MODEL 1
REMARK VINA RESULT:      -6.0      0.000      0.000
REMARK  Name = 45783396
REMARK  9 active torsions:
REMARK  status: ('A' for Active; 'I' for Inactive)
REMARK    1  A    between atoms: O_2  and  C_23
REMARK    2  A    between atoms: O_2  and  C_24
REMARK    3  A    between atoms: N_3  and  C_12
REMARK    4  A    between atoms: N_6  and  C_20
REMARK    5  A    between atoms: C_8  and  C_13
REMARK    6  A    between atoms: C_12  and  C_14
REMARK    7  A    between atoms: C_12  and  C_15
REMARK    8  A    between atoms: C_16  and  C_17
REMARK    9  A    between atoms: C_20  and  C_23
REMARK                            x       y       z     vdW  Elec       q    Type
REMARK                         _______ _______ _______ _____ _____    ______ ____
ROOT
ATOM      1  O   UNL     1      15.271   6.300  18.848  0.00  0.00    -0.336 OA
ATOM      4  N   UNL     1      15.223   7.545  20.709  0.00  0.00    -0.190 NA
ATOM      5  N   UNL     1      16.602   6.420  19.271  0.00  0.00    -0.056 NA
ATOM     13  C   UNL     1      14.526   6.992  19.750  0.00  0.00    +0.245 A 
ATOM     16  C   UNL     1      16.491   7.167  20.373  0.00  0.00    +0.205 A 
ENDROOT
BRANCH  16  17
ATOM      6  N   UNL     1      16.873   9.844  21.242  0.00  0.00    -0.326 N 
ATOM      7  N   UNL     1      18.887   9.251  22.334  0.00  0.00    -0.240 NA
ATOM     17  C   UNL     1      17.625   7.555  21.160  0.00  0.00    +0.062 A 
ATOM     18  C   UNL     1      17.828   8.856  21.592  0.00  0.00    +0.130 A 
ATOM     19  C   UNL     1      18.570   6.598  21.512  0.00  0.00    +0.016 A 
ATOM     21  C   UNL     1      19.673   6.965  22.275  0.00  0.00    +0.020 A 
ATOM     22  C   UNL     1      19.784   8.292  22.657  0.00  0.00    +0.113 A 
ATOM     25  H   UNL     1      15.941   9.508  21.029  0.00  0.00    +0.148 HD
BRANCH   6  20
ATOM     20  C   UNL     1      16.997  11.209  21.640  0.00  0.00    +0.131 C 
BRANCH  20  23
ATOM     23  C   UNL     1      16.014  11.515  22.757  0.00  0.00    +0.178 C 
BRANCH  23   2
ATOM      2  O   UNL     1      15.050  10.473  22.837  0.00  0.00    -0.381 OA
ATOM     24  C   UNL     1      13.726  10.977  22.721  0.00  0.00    +0.194 C 
ENDBRANCH  23   2
ENDBRANCH  20  23
ENDBRANCH   6  20
ENDBRANCH  16  17
BRANCH  13   8
ATOM      3  N   UNL     1      12.331   7.973  20.391  0.00  0.00    -0.289 NA
ATOM      8  C   UNL     1      13.031   7.015  19.512  0.00  0.00    +0.146 C 
ATOM      9  C   UNL     1      12.663   7.454  18.083  0.00  0.00    +0.030 C 
ATOM     10  C   UNL     1      11.149   8.422  19.654  0.00  0.00    +0.085 C 
ATOM     11  C   UNL     1      11.706   8.625  18.260  0.00  0.00    +0.017 C 
BRANCH   3  12
ATOM     12  C   UNL     1      11.987   7.413  21.692  0.00  0.00    +0.051 C 
ATOM     14  C   UNL     1      11.337   6.043  21.523  0.00  0.00    +0.024 C 
ATOM     15  C   UNL     1      11.057   8.373  22.427  0.00  0.00    +0.024 C 
ENDBRANCH   3  12
ENDBRANCH  13   8
TORSDOF 6
ENDMDL
MODEL 2
REMARK VINA RESULT:      -5.9     16.151     19.294
REMARK  Name = 45783396
REMARK  9 active torsions:
REMARK  status: ('A' for Active; 'I' for Inactive)
REMARK    1  A    between atoms: O_2  and  C_23
REMARK    2  A    between atoms: O_2  and  C_24
REMARK    3  A    between atoms: N_3  and  C_12
REMARK    4  A    between atoms: N_6  and  C_20
REMARK    5  A    between atoms: C_8  and  C_13
REMARK    6  A    between atoms: C_12  and  C_14
REMARK    7  A    between atoms: C_12  and  C_15
REMARK    8  A    between atoms: C_16  and  C_17
REMARK    9  A    between atoms: C_20  and  C_23
REMARK                            x       y       z     vdW  Elec       q    Type
REMARK                         _______ _______ _______ _____ _____    ______ ____
ROOT
ATOM      1  O   UNL     1      11.434   3.171   2.755  0.00  0.00    -0.336 OA
ATOM      4  N   UNL     1      11.841   5.295   2.171  0.00  0.00    -0.190 NA
ATOM      5  N   UNL     1      10.601   3.962   3.557  0.00  0.00    -0.056 NA
ATOM     13  C   UNL     1      12.130   4.034   1.969  0.00  0.00    +0.245 A 
ATOM     16  C   UNL     1      10.899   5.201   3.154  0.00  0.00    +0.205 A 
ENDROOT
BRANCH  16  17
ATOM      6  N   UNL     1      10.794   5.651   5.956  0.00  0.00    -0.326 N 
ATOM      7  N   UNL     1       9.634   7.687   5.632  0.00  0.00    -0.240 NA
ATOM     17  C   UNL     1      10.275   6.365   3.713  0.00  0.00    +0.062 A 
ATOM     18  C   UNL     1      10.214   6.601   5.077  0.00  0.00    +0.130 A 
ATOM     19  C   UNL     1       9.703   7.306   2.864  0.00  0.00    +0.016 A 
ATOM     21  C   UNL     1       9.096   8.438   3.398  0.00  0.00    +0.020 A 
ATOM     22  C   UNL     1       9.088   8.580   4.776  0.00  0.00    +0.113 A 
ATOM     25  H   UNL     1      11.522   5.065   5.563  0.00  0.00    +0.148 HD
BRANCH   6  20
ATOM     20  C   UNL     1      10.780   5.807   7.374  0.00  0.00    +0.131 C 
BRANCH  20  23
ATOM     23  C   UNL     1       9.717   4.910   7.985  0.00  0.00    +0.178 C 
BRANCH  23   2
ATOM      2  O   UNL     1      10.184   4.402   9.229  0.00  0.00    -0.381 OA
ATOM     24  C   UNL     1       9.211   4.557  10.252  0.00  0.00    +0.194 C 
ENDBRANCH  23   2
ENDBRANCH  20  23
ENDBRANCH   6  20
ENDBRANCH  16  17
BRANCH  13   8
ATOM      3  N   UNL     1      13.052   4.037  -0.342  0.00  0.00    -0.289 NA
ATOM      8  C   UNL     1      13.113   3.418   0.997  0.00  0.00    +0.146 C 
ATOM      9  C   UNL     1      14.577   3.591   1.442  0.00  0.00    +0.030 C 
ATOM     10  C   UNL     1      14.393   3.914  -0.916  0.00  0.00    +0.085 C 
ATOM     11  C   UNL     1      15.274   4.262   0.266  0.00  0.00    +0.017 C 
BRANCH   3  12
ATOM     12  C   UNL     1      12.031   3.450  -1.200  0.00  0.00    +0.051 C 
ATOM     14  C   UNL     1      12.659   2.939  -2.494  0.00  0.00    +0.024 C 
ATOM     15  C   UNL     1      10.952   4.489  -1.488  0.00  0.00    +0.024 C 
ENDBRANCH   3  12
ENDBRANCH  13   8
TORSDOF 6
ENDMDL
MODEL 3
REMARK VINA RESULT:      -5.8     26.966     28.557
REMARK  Name = 45783396
REMARK  9 active torsions:
REMARK  status: ('A' for Active; 'I' for Inactive)
REMARK    1  A    between atoms: O_2  and  C_23
REMARK    2  A    between atoms: O_2  and  C_24
REMARK    3  A    between atoms: N_3  and  C_12
REMARK    4  A    between atoms: N_6  and  C_20
REMARK    5  A    between atoms: C_8  and  C_13
REMARK    6  A    between atoms: C_12  and  C_14
REMARK    7  A    between atoms: C_12  and  C_15
REMARK    8  A    between atoms: C_16  and  C_17
REMARK    9  A    between atoms: C_20  and  C_23
REMARK                            x       y       z     vdW  Elec       q    Type
REMARK                         _______ _______ _______ _____ _____    ______ ____
ROOT
ATOM      1  O   UNL     1      -2.459 -10.327  14.477  0.00  0.00    -0.336 OA
ATOM      4  N   UNL     1      -4.587 -10.980  14.723  0.00  0.00    -0.190 NA
ATOM      5  N   UNL     1      -2.707 -10.334  15.856  0.00  0.00    -0.056 NA
ATOM     13  C   UNL     1      -3.617 -10.719  13.883  0.00  0.00    +0.245 A 
ATOM     16  C   UNL     1      -3.982 -10.730  15.920  0.00  0.00    +0.205 A 
ENDROOT
BRANCH  16  17
ATOM      6  N   UNL     1      -6.554  -9.604  16.349  0.00  0.00    -0.326 N 
ATOM      7  N   UNL     1      -6.616 -10.469  18.550  0.00  0.00    -0.240 NA
ATOM     17  C   UNL     1      -4.680 -10.884  17.163  0.00  0.00    +0.062 A 
ATOM     18  C   UNL     1      -5.935 -10.342  17.390  0.00  0.00    +0.130 A 
ATOM     19  C   UNL     1      -4.087 -11.604  18.194  0.00  0.00    +0.016 A 
ATOM     21  C   UNL     1      -4.757 -11.758  19.403  0.00  0.00    +0.020 A 
ATOM     22  C   UNL     1      -6.008 -11.177  19.529  0.00  0.00    +0.113 A 
ATOM     25  H   UNL     1      -6.242  -9.815  15.407  0.00  0.00    +0.148 HD
BRANCH   6  20
ATOM     20  C   UNL     1      -7.843  -9.009  16.489  0.00  0.00    +0.131 C 
BRANCH  20  23
ATOM     23  C   UNL     1      -8.787  -9.561  15.435  0.00  0.00    +0.178 C 
BRANCH  23   2
ATOM      2  O   UNL     1      -9.736  -8.563  15.081  0.00  0.00    -0.381 OA
ATOM     24  C   UNL     1      -9.908  -7.614  16.124  0.00  0.00    +0.194 C 
ENDBRANCH  23   2
ENDBRANCH  20  23
ENDBRANCH   6  20
ENDBRANCH  16  17
BRANCH  13   8
ATOM      3  N   UNL     1      -4.446  -9.752  11.746  0.00  0.00    -0.289 NA
ATOM      8  C   UNL     1      -3.609 -10.794  12.372  0.00  0.00    +0.146 C 
ATOM      9  C   UNL     1      -2.205 -10.579  11.774  0.00  0.00    +0.030 C 
ATOM     10  C   UNL     1      -3.843  -9.463  10.444  0.00  0.00    +0.085 C 
ATOM     11  C   UNL     1      -2.367  -9.437  10.781  0.00  0.00    +0.017 C 
BRANCH   3  12
ATOM     12  C   UNL     1      -5.847 -10.134  11.630  0.00  0.00    +0.051 C 
ATOM     14  C   UNL     1      -6.246 -10.240  10.160  0.00  0.00    +0.024 C 
ATOM     15  C   UNL     1      -6.714  -9.114  12.360  0.00  0.00    +0.024 C 
ENDBRANCH   3  12
ENDBRANCH  13   8
TORSDOF 6
ENDMDL
MODEL 4
REMARK VINA RESULT:      -5.7      2.613      6.813
REMARK  Name = 45783396
REMARK  9 active torsions:
REMARK  status: ('A' for Active; 'I' for Inactive)
REMARK    1  A    between atoms: O_2  and  C_23
REMARK    2  A    between atoms: O_2  and  C_24
REMARK    3  A    between atoms: N_3  and  C_12
REMARK    4  A    between atoms: N_6  and  C_20
REMARK    5  A    between atoms: C_8  and  C_13
REMARK    6  A    between atoms: C_12  and  C_14
REMARK    7  A    between atoms: C_12  and  C_15
REMARK    8  A    between atoms: C_16  and  C_17
REMARK    9  A    between atoms: C_20  and  C_23
REMARK                            x       y       z     vdW  Elec       q    Type
REMARK                         _______ _______ _______ _____ _____    ______ ____
ROOT
ATOM      1  O   UNL     1      17.862   5.685  19.057  0.00  0.00    -0.336 OA
ATOM      4  N   UNL     1      17.079   7.038  20.662  0.00  0.00    -0.190 NA
ATOM      5  N   UNL     1      16.481   5.791  18.839  0.00  0.00    -0.056 NA
ATOM     13  C   UNL     1      18.130   6.449  20.149  0.00  0.00    +0.245 A 
ATOM     16  C   UNL     1      16.092   6.604  19.825  0.00  0.00    +0.205 A 
ENDROOT
BRANCH  16  17
ATOM      6  N   UNL     1      14.542   7.650  17.688  0.00  0.00    -0.326 N 
ATOM      7  N   UNL     1      12.666   7.898  19.109  0.00  0.00    -0.240 NA
ATOM     17  C   UNL     1      14.726   7.002  20.003  0.00  0.00    +0.062 A 
ATOM     18  C   UNL     1      13.955   7.514  18.972  0.00  0.00    +0.130 A 
ATOM     19  C   UNL     1      14.135   6.875  21.255  0.00  0.00    +0.016 A 
ATOM     21  C   UNL     1      12.811   7.258  21.436  0.00  0.00    +0.020 A 
ATOM     22  C   UNL     1      12.126   7.759  20.341  0.00  0.00    +0.113 A 
ATOM     25  H   UNL     1      15.333   7.046  17.493  0.00  0.00    +0.148 HD
BRANCH   6  20
ATOM     20  C   UNL     1      13.827   8.167  16.567  0.00  0.00    +0.131 C 
BRANCH  20  23
ATOM     23  C   UNL     1      14.323   9.564  16.234  0.00  0.00    +0.178 C 
BRANCH  23   2
ATOM      2  O   UNL     1      13.573  10.085  15.144  0.00  0.00    -0.381 OA
ATOM     24  C   UNL     1      13.925  11.434  14.868  0.00  0.00    +0.194 C 
ENDBRANCH  23   2
ENDBRANCH  20  23
ENDBRANCH   6  20
ENDBRANCH  16  17
BRANCH  13   8
ATOM      3  N   UNL     1      19.712   6.707  22.051  0.00  0.00    -0.289 NA
ATOM      8  C   UNL     1      19.575   6.502  20.596  0.00  0.00    +0.146 C 
ATOM      9  C   UNL     1      20.333   5.191  20.312  0.00  0.00    +0.030 C 
ATOM     10  C   UNL     1      20.966   6.060  22.443  0.00  0.00    +0.085 C 
ATOM     11  C   UNL     1      20.913   4.768  21.655  0.00  0.00    +0.017 C 
BRANCH   3  12
ATOM     12  C   UNL     1      19.674   8.111  22.440  0.00  0.00    +0.051 C 
ATOM     14  C   UNL     1      20.389   8.967  21.398  0.00  0.00    +0.024 C 
ATOM     15  C   UNL     1      20.313   8.274  23.815  0.00  0.00    +0.024 C 
ENDBRANCH   3  12
ENDBRANCH  13   8
TORSDOF 6
ENDMDL
MODEL 5
REMARK VINA RESULT:      -5.6     15.477     18.539
REMARK  Name = 45783396
REMARK  9 active torsions:
REMARK  status: ('A' for Active; 'I' for Inactive)
REMARK    1  A    between atoms: O_2  and  C_23
REMARK    2  A    between atoms: O_2  and  C_24
REMARK    3  A    between atoms: N_3  and  C_12
REMARK    4  A    between atoms: N_6  and  C_20
REMARK    5  A    between atoms: C_8  and  C_13
REMARK    6  A    between atoms: C_12  and  C_14
REMARK    7  A    between atoms: C_12  and  C_15
REMARK    8  A    between atoms: C_16  and  C_17
REMARK    9  A    between atoms: C_20  and  C_23
REMARK                            x       y       z     vdW  Elec       q    Type
REMARK                         _______ _______ _______ _____ _____    ______ ____
ROOT
ATOM      1  O   UNL     1      11.304   3.788   2.750  0.00  0.00    -0.336 OA
ATOM      4  N   UNL     1      11.191   6.016   2.948  0.00  0.00    -0.190 NA
ATOM      5  N   UNL     1      10.696   4.039   3.988  0.00  0.00    -0.056 NA
ATOM     13  C   UNL     1      11.564   5.006   2.205  0.00  0.00    +0.245 A 
ATOM     16  C   UNL     1      10.665   5.375   4.031  0.00  0.00    +0.205 A 
ENDROOT
BRANCH  16  17
ATOM      6  N   UNL     1      12.294   6.336   6.150  0.00  0.00    -0.326 N 
ATOM      7  N   UNL     1      10.409   7.257   7.243  0.00  0.00    -0.240 NA
ATOM     17  C   UNL     1      10.117   6.098   5.142  0.00  0.00    +0.062 A 
ATOM     18  C   UNL     1      10.896   6.574   6.184  0.00  0.00    +0.130 A 
ATOM     19  C   UNL     1       8.749   6.340   5.191  0.00  0.00    +0.016 A 
ATOM     21  C   UNL     1       8.209   7.040   6.264  0.00  0.00    +0.020 A 
ATOM     22  C   UNL     1       9.074   7.474   7.255  0.00  0.00    +0.113 A 
ATOM     25  H   UNL     1      12.697   6.174   5.233  0.00  0.00    +0.148 HD
BRANCH   6  20
ATOM     20  C   UNL     1      13.177   6.787   7.176  0.00  0.00    +0.131 C 
BRANCH  20  23
ATOM     23  C   UNL     1      14.000   7.961   6.675  0.00  0.00    +0.178 C 
BRANCH  23   2
ATOM      2  O   UNL     1      15.299   7.509   6.314  0.00  0.00    -0.381 OA
ATOM     24  C   UNL     1      15.512   7.602   4.912  0.00  0.00    +0.194 C 
ENDBRANCH  23   2
ENDBRANCH  20  23
ENDBRANCH   6  20
ENDBRANCH  16  17
BRANCH  13   8
ATOM      3  N   UNL     1      13.338   4.036   0.755  0.00  0.00    -0.289 NA
ATOM      8  C   UNL     1      12.229   5.006   0.845  0.00  0.00    +0.146 C 
ATOM      9  C   UNL     1      11.266   4.606  -0.288  0.00  0.00    +0.030 C 
ATOM     10  C   UNL     1      13.410   3.619  -0.646  0.00  0.00    +0.085 C 
ATOM     11  C   UNL     1      11.947   3.443  -0.996  0.00  0.00    +0.017 C 
BRANCH   3  12
ATOM     12  C   UNL     1      14.607   4.568   1.235  0.00  0.00    +0.051 C 
ATOM     14  C   UNL     1      14.671   6.075   1.001  0.00  0.00    +0.024 C 
ATOM     15  C   UNL     1      15.755   3.855   0.529  0.00  0.00    +0.024 C 
ENDBRANCH   3  12
ENDBRANCH  13   8
TORSDOF 6
ENDMDL
MODEL 6
REMARK VINA RESULT:      -5.6     16.037     19.027
REMARK  Name = 45783396
REMARK  9 active torsions:
REMARK  status: ('A' for Active; 'I' for Inactive)
REMARK    1  A    between atoms: O_2  and  C_23
REMARK    2  A    between atoms: O_2  and  C_24
REMARK    3  A    between atoms: N_3  and  C_12
REMARK    4  A    between atoms: N_6  and  C_20
REMARK    5  A    between atoms: C_8  and  C_13
REMARK    6  A    between atoms: C_12  and  C_14
REMARK    7  A    between atoms: C_12  and  C_15
REMARK    8  A    between atoms: C_16  and  C_17
REMARK    9  A    between atoms: C_20  and  C_23
REMARK                            x       y       z     vdW  Elec       q    Type
REMARK                         _______ _______ _______ _____ _____    ______ ____
ROOT
ATOM      1  O   UNL     1      11.990   6.105   1.625  0.00  0.00    -0.336 OA
ATOM      4  N   UNL     1      11.370   4.583   3.146  0.00  0.00    -0.190 NA
ATOM      5  N   UNL     1      11.403   6.822   2.676  0.00  0.00    -0.056 NA
ATOM     13  C   UNL     1      11.929   4.795   1.982  0.00  0.00    +0.245 A 
ATOM     16  C   UNL     1      11.063   5.855   3.534  0.00  0.00    +0.205 A 
ENDROOT
BRANCH  16  17
ATOM      6  N   UNL     1      12.535   6.446   5.890  0.00  0.00    -0.326 N 
ATOM      7  N   UNL     1      10.536   6.675   7.136  0.00  0.00    -0.240 NA
ATOM     17  C   UNL     1      10.416   6.126   4.785  0.00  0.00    +0.062 A 
ATOM     18  C   UNL     1      11.118   6.416   5.944  0.00  0.00    +0.130 A 
ATOM     19  C   UNL     1       9.028   6.102   4.854  0.00  0.00    +0.016 A 
ATOM     21  C   UNL     1       8.392   6.364   6.063  0.00  0.00    +0.020 A 
ATOM     22  C   UNL     1       9.185   6.642   7.164  0.00  0.00    +0.113 A 
ATOM     25  H   UNL     1      12.943   6.623   4.979  0.00  0.00    +0.148 HD
BRANCH   6  20
ATOM     20  C   UNL     1      13.342   6.734   7.031  0.00  0.00    +0.131 C 
BRANCH  20  23
ATOM     23  C   UNL     1      14.591   7.486   6.606  0.00  0.00    +0.178 C 
BRANCH  23   2
ATOM      2  O   UNL     1      14.630   7.577   5.188  0.00  0.00    -0.381 OA
ATOM     24  C   UNL     1      15.962   7.710   4.710  0.00  0.00    +0.194 C 
ENDBRANCH  23   2
ENDBRANCH  20  23
ENDBRANCH   6  20
ENDBRANCH  16  17
BRANCH  13   8
ATOM      3  N   UNL     1      12.366   4.240  -0.403  0.00  0.00    -0.289 NA
ATOM      8  C   UNL     1      12.507   3.800   0.999  0.00  0.00    +0.146 C 
ATOM      9  C   UNL     1      14.020   3.586   1.191  0.00  0.00    +0.030 C 
ATOM     10  C   UNL     1      13.490   3.656  -1.136  0.00  0.00    +0.085 C 
ATOM     11  C   UNL     1      14.638   3.871  -0.172  0.00  0.00    +0.017 C 
BRANCH   3  12
ATOM     12  C   UNL     1      11.082   3.881  -0.991  0.00  0.00    +0.051 C 
ATOM     14  C   UNL     1      11.285   2.908  -2.150  0.00  0.00    +0.024 C 
ATOM     15  C   UNL     1      10.365   5.144  -1.456  0.00  0.00    +0.024 C 
ENDBRANCH   3  12
ENDBRANCH  13   8
TORSDOF 6
ENDMDL
MODEL 7
REMARK VINA RESULT:      -5.5     14.880     17.870
REMARK  Name = 45783396
REMARK  9 active torsions:
REMARK  status: ('A' for Active; 'I' for Inactive)
REMARK    1  A    between atoms: O_2  and  C_23
REMARK    2  A    between atoms: O_2  and  C_24
REMARK    3  A    between atoms: N_3  and  C_12
REMARK    4  A    between atoms: N_6  and  C_20
REMARK    5  A    between atoms: C_8  and  C_13
REMARK    6  A    between atoms: C_12  and  C_14
REMARK    7  A    between atoms: C_12  and  C_15
REMARK    8  A    between atoms: C_16  and  C_17
REMARK    9  A    between atoms: C_20  and  C_23
REMARK                            x       y       z     vdW  Elec       q    Type
REMARK                         _______ _______ _______ _____ _____    ______ ____
ROOT
ATOM      1  O   UNL     1      11.901   5.918   3.475  0.00  0.00    -0.336 OA
ATOM      4  N   UNL     1      10.393   4.510   4.345  0.00  0.00    -0.190 NA
ATOM      5  N   UNL     1      11.616   6.398   4.760  0.00  0.00    -0.056 NA
ATOM     13  C   UNL     1      11.137   4.805   3.311  0.00  0.00    +0.245 A 
ATOM     16  C   UNL     1      10.720   5.514   5.209  0.00  0.00    +0.205 A 
ENDROOT
BRANCH  16  17
ATOM      6  N   UNL     1       9.560   7.924   6.166  0.00  0.00    -0.326 N 
ATOM      7  N   UNL     1       9.000   6.893   8.220  0.00  0.00    -0.240 NA
ATOM     17  C   UNL     1      10.131   5.607   6.514  0.00  0.00    +0.062 A 
ATOM     18  C   UNL     1       9.561   6.774   6.997  0.00  0.00    +0.130 A 
ATOM     19  C   UNL     1      10.124   4.490   7.340  0.00  0.00    +0.016 A 
ATOM     21  C   UNL     1       9.555   4.571   8.607  0.00  0.00    +0.020 A 
ATOM     22  C   UNL     1       9.012   5.785   8.996  0.00  0.00    +0.113 A 
ATOM     25  H   UNL     1       9.626   7.753   5.168  0.00  0.00    +0.148 HD
BRANCH   6  20
ATOM     20  C   UNL     1       8.997   9.169   6.576  0.00  0.00    +0.131 C 
BRANCH  20  23
ATOM     23  C   UNL     1      10.101  10.130   6.981  0.00  0.00    +0.178 C 
BRANCH  23   2
ATOM      2  O   UNL     1      11.345   9.662   6.474  0.00  0.00    -0.381 OA
ATOM     24  C   UNL     1      12.396   9.858   7.410  0.00  0.00    +0.194 C 
ENDBRANCH  23   2
ENDBRANCH  20  23
ENDBRANCH   6  20
ENDBRANCH  16  17
BRANCH  13   8
ATOM      3  N   UNL     1      11.390   5.023   0.845  0.00  0.00    -0.289 NA
ATOM      8  C   UNL     1      11.265   4.090   1.983  0.00  0.00    +0.146 C 
ATOM      9  C   UNL     1      12.523   3.205   1.903  0.00  0.00    +0.030 C 
ATOM     10  C   UNL     1      12.177   4.328  -0.175  0.00  0.00    +0.085 C 
ATOM     11  C   UNL     1      13.261   3.673   0.656  0.00  0.00    +0.017 C 
BRANCH   3  12
ATOM     12  C   UNL     1      10.105   5.479   0.331  0.00  0.00    +0.051 C 
ATOM     14  C   UNL     1       9.978   5.138  -1.151  0.00  0.00    +0.024 C 
ATOM     15  C   UNL     1       9.970   6.980   0.562  0.00  0.00    +0.024 C 
ENDBRANCH   3  12
ENDBRANCH  13   8
TORSDOF 6
ENDMDL
MODEL 8
REMARK VINA RESULT:      -5.5     26.360     28.925
REMARK  Name = 45783396
REMARK  9 active torsions:
REMARK  status: ('A' for Active; 'I' for Inactive)
REMARK    1  A    between atoms: O_2  and  C_23
REMARK    2  A    between atoms: O_2  and  C_24
REMARK    3  A    between atoms: N_3  and  C_12
REMARK    4  A    between atoms: N_6  and  C_20
REMARK    5  A    between atoms: C_8  and  C_13
REMARK    6  A    between atoms: C_12  and  C_14
REMARK    7  A    between atoms: C_12  and  C_15
REMARK    8  A    between atoms: C_16  and  C_17
REMARK    9  A    between atoms: C_20  and  C_23
REMARK                            x       y       z     vdW  Elec       q    Type
REMARK                         _______ _______ _______ _____ _____    ______ ____
ROOT
ATOM      1  O   UNL     1      -6.741 -11.943  17.188  0.00  0.00    -0.336 OA
ATOM      4  N   UNL     1      -5.784  -9.960  16.780  0.00  0.00    -0.190 NA
ATOM      5  N   UNL     1      -5.575 -12.216  16.460  0.00  0.00    -0.056 NA
ATOM     13  C   UNL     1      -6.789 -10.592  17.332  0.00  0.00    +0.245 A 
ATOM     16  C   UNL     1      -5.067 -10.996  16.258  0.00  0.00    +0.205 A 
ENDROOT
BRANCH  16  17
ATOM      6  N   UNL     1      -5.036 -10.554  13.452  0.00  0.00    -0.326 N 
ATOM      7  N   UNL     1      -2.678 -10.356  13.464  0.00  0.00    -0.240 NA
ATOM     17  C   UNL     1      -3.846 -10.780  15.537  0.00  0.00    +0.062 A 
ATOM     18  C   UNL     1      -3.812 -10.563  14.169  0.00  0.00    +0.130 A 
ATOM     19  C   UNL     1      -2.638 -10.784  16.225  0.00  0.00    +0.016 A 
ATOM     21  C   UNL     1      -1.449 -10.575  15.534  0.00  0.00    +0.020 A 
ATOM     22  C   UNL     1      -1.523 -10.367  14.167  0.00  0.00    +0.113 A 
ATOM     25  H   UNL     1      -5.867 -10.337  13.992  0.00  0.00    +0.148 HD
BRANCH   6  20
ATOM     20  C   UNL     1      -5.100 -10.340  12.043  0.00  0.00    +0.131 C 
BRANCH  20  23
ATOM     23  C   UNL     1      -5.859  -9.057  11.748  0.00  0.00    +0.178 C 
BRANCH  23   2
ATOM      2  O   UNL     1      -5.110  -8.265  10.835  0.00  0.00    -0.381 OA
ATOM     24  C   UNL     1      -4.031  -8.998  10.272  0.00  0.00    +0.194 C 
ENDBRANCH  23   2
ENDBRANCH  20  23
ENDBRANCH   6  20
ENDBRANCH  16  17
BRANCH  13   8
ATOM      3  N   UNL     1      -9.178  -9.903  17.254  0.00  0.00    -0.289 NA
ATOM      8  C   UNL     1      -7.972 -10.037  18.095  0.00  0.00    +0.146 C 
ATOM      9  C   UNL     1      -8.406 -10.945  19.261  0.00  0.00    +0.030 C 
ATOM     10  C   UNL     1     -10.325 -10.062  18.149  0.00  0.00    +0.085 C 
ATOM     11  C   UNL     1      -9.885 -11.218  19.022  0.00  0.00    +0.017 C 
BRANCH   3  12
ATOM     12  C   UNL     1      -9.227  -8.647  16.516  0.00  0.00    +0.051 C 
ATOM     14  C   UNL     1     -10.220  -7.689  17.169  0.00  0.00    +0.024 C 
ATOM     15  C   UNL     1      -9.607  -8.926  15.066  0.00  0.00    +0.024 C 
ENDBRANCH   3  12
ENDBRANCH  13   8
TORSDOF 6
ENDMDL
MODEL 9
REMARK VINA RESULT:      -5.3     26.108     29.384
REMARK  Name = 45783396
REMARK  9 active torsions:
REMARK  status: ('A' for Active; 'I' for Inactive)
REMARK    1  A    between atoms: O_2  and  C_23
REMARK    2  A    between atoms: O_2  and  C_24
REMARK    3  A    between atoms: N_3  and  C_12
REMARK    4  A    between atoms: N_6  and  C_20
REMARK    5  A    between atoms: C_8  and  C_13
REMARK    6  A    between atoms: C_12  and  C_14
REMARK    7  A    between atoms: C_12  and  C_15
REMARK    8  A    between atoms: C_16  and  C_17
REMARK    9  A    between atoms: C_20  and  C_23
REMARK                            x       y       z     vdW  Elec       q    Type
REMARK                         _______ _______ _______ _____ _____    ______ ____
ROOT
ATOM      1  O   UNL     1      -5.228  -9.538  15.977  0.00  0.00    -0.336 OA
ATOM      4  N   UNL     1      -5.574 -11.490  17.020  0.00  0.00    -0.190 NA
ATOM      5  N   UNL     1      -6.419  -9.388  16.700  0.00  0.00    -0.056 NA
ATOM     13  C   UNL     1      -4.797 -10.804  16.220  0.00  0.00    +0.245 A 
ATOM     16  C   UNL     1      -6.555 -10.580  17.288  0.00  0.00    +0.205 A 
ENDROOT
BRANCH  16  17
ATOM      6  N   UNL     1      -8.870  -8.941  17.422  0.00  0.00    -0.326 N 
ATOM      7  N   UNL     1      -9.852 -10.378  19.025  0.00  0.00    -0.240 NA
ATOM     17  C   UNL     1      -7.660 -10.895  18.147  0.00  0.00    +0.062 A 
ATOM     18  C   UNL     1      -8.796 -10.107  18.225  0.00  0.00    +0.130 A 
ATOM     19  C   UNL     1      -7.603 -12.036  18.941  0.00  0.00    +0.016 A 
ATOM     21  C   UNL     1      -8.670 -12.348  19.776  0.00  0.00    +0.020 A 
ATOM     22  C   UNL     1      -9.761 -11.495  19.782  0.00  0.00    +0.113 A 
ATOM     25  H   UNL     1      -8.292  -8.936  16.589  0.00  0.00    +0.148 HD
BRANCH   6  20
ATOM     20  C   UNL     1      -9.999  -8.068  17.434  0.00  0.00    +0.131 C 
BRANCH  20  23
ATOM     23  C   UNL     1     -10.118  -7.354  16.099  0.00  0.00    +0.178 C 
BRANCH  23   2
ATOM      2  O   UNL     1     -10.889  -6.171  16.262  0.00  0.00    -0.381 OA
ATOM     24  C   UNL     1     -11.652  -5.881  15.099  0.00  0.00    +0.194 C 
ENDBRANCH  23   2
ENDBRANCH  20  23
ENDBRANCH   6  20
ENDBRANCH  16  17
BRANCH  13   8
ATOM      3  N   UNL     1      -3.297 -10.531  14.254  0.00  0.00    -0.289 NA
ATOM      8  C   UNL     1      -3.509 -11.219  15.543  0.00  0.00    +0.146 C 
ATOM      9  C   UNL     1      -2.261 -10.875  16.379  0.00  0.00    +0.030 C 
ATOM     10  C   UNL     1      -1.849 -10.434  14.070  0.00  0.00    +0.085 C 
ATOM     11  C   UNL     1      -1.381 -10.044  15.456  0.00  0.00    +0.017 C 
BRANCH   3  12
ATOM     12  C   UNL     1      -3.950 -11.196  13.134  0.00  0.00    +0.051 C 
ATOM     14  C   UNL     1      -3.692 -12.699  13.189  0.00  0.00    +0.024 C 
ATOM     15  C   UNL     1      -3.442 -10.601  11.825  0.00  0.00    +0.024 C 
ENDBRANCH   3  12
ENDBRANCH  13   8
TORSDOF 6
ENDMDL
MODEL 10
REMARK VINA RESULT:      -5.3      3.628      6.539
REMARK  Name = 45783396
REMARK  9 active torsions:
REMARK  status: ('A' for Active; 'I' for Inactive)
REMARK    1  A    between atoms: O_2  and  C_23
REMARK    2  A    between atoms: O_2  and  C_24
REMARK    3  A    between atoms: N_3  and  C_12
REMARK    4  A    between atoms: N_6  and  C_20
REMARK    5  A    between atoms: C_8  and  C_13
REMARK    6  A    between atoms: C_12  and  C_14
REMARK    7  A    between atoms: C_12  and  C_15
REMARK    8  A    between atoms: C_16  and  C_17
REMARK    9  A    between atoms: C_20  and  C_23
REMARK                            x       y       z     vdW  Elec       q    Type
REMARK                         _______ _______ _______ _____ _____    ______ ____
ROOT
ATOM      1  O   UNL     1      11.316   8.538  22.077  0.00  0.00    -0.336 OA
ATOM      4  N   UNL     1      12.713  10.259  22.399  0.00  0.00    -0.190 NA
ATOM      5  N   UNL     1      10.582   9.512  22.767  0.00  0.00    -0.056 NA
ATOM     13  C   UNL     1      12.560   9.058  21.902  0.00  0.00    +0.245 A 
ATOM     16  C   UNL     1      11.474  10.495  22.920  0.00  0.00    +0.205 A 
ENDROOT
BRANCH  16  17
ATOM      6  N   UNL     1      11.181  12.941  21.506  0.00  0.00    -0.326 N 
ATOM      7  N   UNL     1      10.718  14.100  23.515  0.00  0.00    -0.240 NA
ATOM     17  C   UNL     1      11.160  11.725  23.588  0.00  0.00    +0.062 A 
ATOM     18  C   UNL     1      11.013  12.927  22.914  0.00  0.00    +0.130 A 
ATOM     19  C   UNL     1      10.991  11.728  24.968  0.00  0.00    +0.016 A 
ATOM     21  C   UNL     1      10.686  12.916  25.623  0.00  0.00    +0.020 A 
ATOM     22  C   UNL     1      10.561  14.064  24.858  0.00  0.00    +0.113 A 
ATOM     25  H   UNL     1      11.031  12.058  21.030  0.00  0.00    +0.148 HD
BRANCH   6  20
ATOM     20  C   UNL     1      11.050  14.129  20.727  0.00  0.00    +0.131 C 
BRANCH  20  23
ATOM     23  C   UNL     1      12.228  14.260  19.777  0.00  0.00    +0.178 C 
BRANCH  23   2
ATOM      2  O   UNL     1      13.440  14.257  20.522  0.00  0.00    -0.381 OA
ATOM     24  C   UNL     1      13.692  15.524  21.112  0.00  0.00    +0.194 C 
ENDBRANCH  23   2
ENDBRANCH  20  23
ENDBRANCH   6  20
ENDBRANCH  16  17
BRANCH  13   8
ATOM      3  N   UNL     1      14.175   8.873  20.018  0.00  0.00    -0.289 NA
ATOM      8  C   UNL     1      13.558   8.186  21.171  0.00  0.00    +0.146 C 
ATOM      9  C   UNL     1      14.745   7.769  22.059  0.00  0.00    +0.030 C 
ATOM     10  C   UNL     1      15.511   8.296  19.860  0.00  0.00    +0.085 C 
ATOM     11  C   UNL     1      15.987   8.208  21.295  0.00  0.00    +0.017 C 
BRANCH   3  12
ATOM     12  C   UNL     1      13.385   8.770  18.799  0.00  0.00    +0.051 C 
ATOM     14  C   UNL     1      12.842   7.353  18.638  0.00  0.00    +0.024 C 
ATOM     15  C   UNL     1      14.244   9.166  17.603  0.00  0.00    +0.024 C 
ENDBRANCH   3  12
ENDBRANCH  13   8
TORSDOF 6
ENDMDL
