MODEL 1
REMARK VINA RESULT:      -6.5      0.000      0.000
REMARK  Name = 26743464
REMARK  13 active torsions:
REMARK  status: ('A' for Active; 'I' for Inactive)
REMARK    1  A    between atoms: S_1  and  C_23
REMARK    2  A    between atoms: S_1  and  C_27
REMARK    3  A    between atoms: O_3  and  C_15
REMARK    4  A    between atoms: O_5  and  C_20
REMARK    5  A    between atoms: O_5  and  C_28
REMARK    6  A    between atoms: O_6  and  C_24
REMARK    7  A    between atoms: O_6  and  C_31
REMARK    8  A    between atoms: O_7  and  C_26
REMARK    9  A    between atoms: O_7  and  C_32
REMARK   10  A    between atoms: N_10  and  C_17
REMARK   11  A    between atoms: C_13  and  C_18
REMARK   12  A    between atoms: C_17  and  C_19
REMARK   13  A    between atoms: C_21  and  C_23
REMARK                            x       y       z     vdW  Elec       q    Type
REMARK                         _______ _______ _______ _____ _____    ______ ____
ROOT
ATOM     10  N   UNL     1      12.600  11.886  23.607  0.00  0.00    -0.284 NA
ATOM     13  C   UNL     1      13.718  12.836  23.432  0.00  0.00    +0.149 C 
ATOM     14  C   UNL     1      14.025  13.347  24.852  0.00  0.00    +0.061 C 
ATOM     15  C   UNL     1      13.000  12.664  25.748  0.00  0.00    +0.130 C 
ATOM     16  C   UNL     1      11.870  12.319  24.797  0.00  0.00    +0.116 C 
ENDROOT
BRANCH  13  18
ATOM      4  O   UNL     1      15.580  12.969  21.854  0.00  0.00    -0.336 OA
ATOM     11  N   UNL     1      15.430  11.010  22.931  0.00  0.00    -0.193 NA
ATOM     12  N   UNL     1      16.636  12.182  21.379  0.00  0.00    -0.060 NA
ATOM     18  C   UNL     1      14.921  12.204  22.764  0.00  0.00    +0.245 A 
ATOM     21  C   UNL     1      16.480  11.043  22.060  0.00  0.00    +0.193 A 
BRANCH  21  23
ATOM     23  C   UNL     1      17.383   9.900  21.881  0.00  0.00    +0.251 C 
BRANCH  23   1
ATOM      1  S   UNL     1      16.500   8.601  21.064  0.00  0.00    +0.004 S 
ATOM      8  O   UNL     1      16.084   9.102  19.767  0.00  0.00    -0.169 OA
ATOM      9  O   UNL     1      15.525   8.054  21.988  0.00  0.00    -0.169 OA
BRANCH   1  27
ATOM      2  F   UNL     1      20.586   4.443  20.188  0.00  0.00    -0.205 F 
ATOM     27  C   UNL     1      17.724   7.354  20.803  0.00  0.00    +0.089 A 
ATOM     29  C   UNL     1      18.864   7.316  21.605  0.00  0.00    +0.030 A 
ATOM     30  C   UNL     1      17.551   6.408  19.792  0.00  0.00    +0.030 A 
ATOM     33  C   UNL     1      19.831   6.333  21.398  0.00  0.00    +0.040 A 
ATOM     34  C   UNL     1      18.518   5.425  19.585  0.00  0.00    +0.040 A 
ATOM     35  C   UNL     1      19.657   5.387  20.387  0.00  0.00    +0.124 A 
ENDBRANCH   1  27
ENDBRANCH  23   1
ENDBRANCH  21  23
ENDBRANCH  13  18
BRANCH  15   3
ATOM      3  O   UNL     1      12.573  13.535  26.778  0.00  0.00    -0.390 OA
ATOM     36  H   UNL     1      12.020  14.222  26.369  0.00  0.00    +0.210 HD
ENDBRANCH  15   3
BRANCH  10  17
ATOM     17  C   UNL     1      11.737  11.793  22.436  0.00  0.00    +0.124 C 
BRANCH  17  19
ATOM     19  C   UNL     1      11.611  10.377  21.943  0.00  0.00    +0.012 A 
ATOM     20  C   UNL     1      12.435   9.900  20.923  0.00  0.00    +0.170 A 
ATOM     22  C   UNL     1      10.658   9.537  22.519  0.00  0.00    +0.012 A 
ATOM     24  C   UNL     1      12.305   8.584  20.479  0.00  0.00    +0.204 A 
ATOM     25  C   UNL     1      10.528   8.221  22.075  0.00  0.00    +0.050 A 
ATOM     26  C   UNL     1      11.351   7.745  21.054  0.00  0.00    +0.165 A 
BRANCH  20   5
ATOM      5  O   UNL     1      13.369  10.718  20.358  0.00  0.00    -0.491 OA
ATOM     28  C   UNL     1      12.935  11.545  19.280  0.00  0.00    +0.277 C 
ENDBRANCH  20   5
BRANCH  24   6
ATOM      6  O   UNL     1      13.110   8.117  19.482  0.00  0.00    -0.488 OA
ATOM     31  C   UNL     1      12.561   8.092  18.166  0.00  0.00    +0.277 C 
ENDBRANCH  24   6
BRANCH  26   7
ATOM      7  O   UNL     1      11.215   6.458  20.631  0.00  0.00    -0.491 OA
ATOM     32  C   UNL     1      11.101   5.453  21.636  0.00  0.00    +0.277 C 
ENDBRANCH  26   7
ENDBRANCH  17  19
ENDBRANCH  10  17
TORSDOF 10
ENDMDL
MODEL 2
REMARK VINA RESULT:      -6.4     26.855     30.278
REMARK  Name = 26743464
REMARK  13 active torsions:
REMARK  status: ('A' for Active; 'I' for Inactive)
REMARK    1  A    between atoms: S_1  and  C_23
REMARK    2  A    between atoms: S_1  and  C_27
REMARK    3  A    between atoms: O_3  and  C_15
REMARK    4  A    between atoms: O_5  and  C_20
REMARK    5  A    between atoms: O_5  and  C_28
REMARK    6  A    between atoms: O_6  and  C_24
REMARK    7  A    between atoms: O_6  and  C_31
REMARK    8  A    between atoms: O_7  and  C_26
REMARK    9  A    between atoms: O_7  and  C_32
REMARK   10  A    between atoms: N_10  and  C_17
REMARK   11  A    between atoms: C_13  and  C_18
REMARK   12  A    between atoms: C_17  and  C_19
REMARK   13  A    between atoms: C_21  and  C_23
REMARK                            x       y       z     vdW  Elec       q    Type
REMARK                         _______ _______ _______ _____ _____    ______ ____
ROOT
ATOM     10  N   UNL     1      -3.386 -10.688  14.352  0.00  0.00    -0.284 NA
ATOM     13  C   UNL     1      -3.607 -11.292  15.682  0.00  0.00    +0.149 C 
ATOM     14  C   UNL     1      -2.399 -10.842  16.525  0.00  0.00    +0.061 C 
ATOM     15  C   UNL     1      -1.533 -10.029  15.570  0.00  0.00    +0.130 C 
ATOM     16  C   UNL     1      -1.939 -10.538  14.200  0.00  0.00    +0.116 C 
ENDROOT
BRANCH  13  18
ATOM      4  O   UNL     1      -5.470 -11.747  17.198  0.00  0.00    -0.336 OA
ATOM     11  N   UNL     1      -5.651  -9.815  16.079  0.00  0.00    -0.193 NA
ATOM     12  N   UNL     1      -6.674 -11.166  17.615  0.00  0.00    -0.060 NA
ATOM     18  C   UNL     1      -4.931 -10.886  16.294  0.00  0.00    +0.245 A 
ATOM     21  C   UNL     1      -6.710 -10.031  16.911  0.00  0.00    +0.193 A 
BRANCH  21  23
ATOM     23  C   UNL     1      -7.820  -9.078  17.029  0.00  0.00    +0.251 C 
BRANCH  23   1
ATOM      1  S   UNL     1      -9.282  -9.827  16.366  0.00  0.00    +0.004 S 
ATOM      8  O   UNL     1      -9.952 -10.516  17.453  0.00  0.00    -0.169 OA
ATOM      9  O   UNL     1      -8.928 -10.536  15.152  0.00  0.00    -0.169 OA
BRANCH   1  27
ATOM      2  F   UNL     1     -12.622  -5.236  14.777  0.00  0.00    -0.205 F 
ATOM     27  C   UNL     1     -10.284  -8.452  15.890  0.00  0.00    +0.089 A 
ATOM     29  C   UNL     1     -10.925  -8.451  14.651  0.00  0.00    +0.030 A 
ATOM     30  C   UNL     1     -10.433  -7.366  16.752  0.00  0.00    +0.030 A 
ATOM     33  C   UNL     1     -11.714  -7.365  14.275  0.00  0.00    +0.040 A 
ATOM     34  C   UNL     1     -11.222  -6.280  16.376  0.00  0.00    +0.040 A 
ATOM     35  C   UNL     1     -11.863  -6.279  15.138  0.00  0.00    +0.124 A 
ENDBRANCH   1  27
ENDBRANCH  23   1
ENDBRANCH  21  23
ENDBRANCH  13  18
BRANCH  15   3
ATOM      3  O   UNL     1      -0.160 -10.249  15.827  0.00  0.00    -0.390 OA
ATOM     36  H   UNL     1       0.301 -10.249  14.971  0.00  0.00    +0.210 HD
ENDBRANCH  15   3
BRANCH  10  17
ATOM     17  C   UNL     1      -3.975 -11.460  13.265  0.00  0.00    +0.124 C 
BRANCH  17  19
ATOM     19  C   UNL     1      -4.862 -10.613  12.393  0.00  0.00    +0.012 A 
ATOM     20  C   UNL     1      -4.417 -10.157  11.152  0.00  0.00    +0.170 A 
ATOM     22  C   UNL     1      -6.143 -10.286  12.838  0.00  0.00    +0.012 A 
ATOM     24  C   UNL     1      -5.253  -9.373  10.356  0.00  0.00    +0.204 A 
ATOM     25  C   UNL     1      -6.979  -9.502  12.042  0.00  0.00    +0.050 A 
ATOM     26  C   UNL     1      -6.533  -9.046  10.802  0.00  0.00    +0.165 A 
BRANCH  20   5
ATOM      5  O   UNL     1      -3.166 -10.476  10.713  0.00  0.00    -0.491 OA
ATOM     28  C   UNL     1      -2.166  -9.464  10.822  0.00  0.00    +0.277 C 
ENDBRANCH  20   5
BRANCH  24   6
ATOM      6  O   UNL     1      -4.820  -8.927   9.143  0.00  0.00    -0.488 OA
ATOM     31  C   UNL     1      -5.106  -9.746   8.012  0.00  0.00    +0.277 C 
ENDBRANCH  24   6
BRANCH  26   7
ATOM      7  O   UNL     1      -7.360  -8.282  10.034  0.00  0.00    -0.491 OA
ATOM     32  C   UNL     1      -8.588  -8.875   9.616  0.00  0.00    +0.277 C 
ENDBRANCH  26   7
ENDBRANCH  17  19
ENDBRANCH  10  17
TORSDOF 10
ENDMDL
MODEL 3
REMARK VINA RESULT:      -6.1      0.944      2.212
REMARK  Name = 26743464
REMARK  13 active torsions:
REMARK  status: ('A' for Active; 'I' for Inactive)
REMARK    1  A    between atoms: S_1  and  C_23
REMARK    2  A    between atoms: S_1  and  C_27
REMARK    3  A    between atoms: O_3  and  C_15
REMARK    4  A    between atoms: O_5  and  C_20
REMARK    5  A    between atoms: O_5  and  C_28
REMARK    6  A    between atoms: O_6  and  C_24
REMARK    7  A    between atoms: O_6  and  C_31
REMARK    8  A    between atoms: O_7  and  C_26
REMARK    9  A    between atoms: O_7  and  C_32
REMARK   10  A    between atoms: N_10  and  C_17
REMARK   11  A    between atoms: C_13  and  C_18
REMARK   12  A    between atoms: C_17  and  C_19
REMARK   13  A    between atoms: C_21  and  C_23
REMARK                            x       y       z     vdW  Elec       q    Type
REMARK                         _______ _______ _______ _____ _____    ______ ____
ROOT
ATOM     10  N   UNL     1      12.277  12.051  23.093  0.00  0.00    -0.284 NA
ATOM     13  C   UNL     1      13.475  12.909  23.196  0.00  0.00    +0.149 C 
ATOM     14  C   UNL     1      13.597  13.237  24.696  0.00  0.00    +0.061 C 
ATOM     15  C   UNL     1      12.398  12.558  25.346  0.00  0.00    +0.130 C 
ATOM     16  C   UNL     1      11.406  12.420  24.208  0.00  0.00    +0.116 C 
ENDROOT
BRANCH  13  18
ATOM      4  O   UNL     1      15.492  13.001  21.817  0.00  0.00    -0.336 OA
ATOM     11  N   UNL     1      15.165  11.030  22.831  0.00  0.00    -0.193 NA
ATOM     12  N   UNL     1      16.562  12.183  21.434  0.00  0.00    -0.060 NA
ATOM     18  C   UNL     1      14.717  12.245  22.640  0.00  0.00    +0.245 A 
ATOM     21  C   UNL     1      16.299  11.039  22.071  0.00  0.00    +0.193 A 
BRANCH  21  23
ATOM     23  C   UNL     1      17.175   9.868  21.960  0.00  0.00    +0.251 C 
BRANCH  23   1
ATOM      1  S   UNL     1      16.346   8.628  21.004  0.00  0.00    +0.004 S 
ATOM      8  O   UNL     1      16.011   9.217  19.720  0.00  0.00    -0.169 OA
ATOM      9  O   UNL     1      15.317   8.022  21.826  0.00  0.00    -0.169 OA
BRANCH   1  27
ATOM      2  F   UNL     1      20.484   4.525  20.113  0.00  0.00    -0.205 F 
ATOM     27  C   UNL     1      17.586   7.399  20.735  0.00  0.00    +0.089 A 
ATOM     29  C   UNL     1      17.404   6.426  19.752  0.00  0.00    +0.030 A 
ATOM     30  C   UNL     1      18.748   7.400  21.508  0.00  0.00    +0.030 A 
ATOM     33  C   UNL     1      18.383   5.456  19.542  0.00  0.00    +0.040 A 
ATOM     34  C   UNL     1      19.726   6.430  21.297  0.00  0.00    +0.040 A 
ATOM     35  C   UNL     1      19.544   5.457  20.315  0.00  0.00    +0.124 A 
ENDBRANCH   1  27
ENDBRANCH  23   1
ENDBRANCH  21  23
ENDBRANCH  13  18
BRANCH  15   3
ATOM      3  O   UNL     1      11.883  13.350  26.399  0.00  0.00    -0.390 OA
ATOM     36  H   UNL     1      10.923  13.203  26.433  0.00  0.00    +0.210 HD
ENDBRANCH  15   3
BRANCH  10  17
ATOM     17  C   UNL     1      11.600  12.161  21.807  0.00  0.00    +0.124 C 
BRANCH  17  19
ATOM     19  C   UNL     1      11.928  11.006  20.900  0.00  0.00    +0.012 A 
ATOM     20  C   UNL     1      11.305   9.769  21.065  0.00  0.00    +0.170 A 
ATOM     22  C   UNL     1      12.868  11.183  19.884  0.00  0.00    +0.012 A 
ATOM     24  C   UNL     1      11.621   8.709  20.215  0.00  0.00    +0.204 A 
ATOM     25  C   UNL     1      13.184  10.123  19.034  0.00  0.00    +0.050 A 
ATOM     26  C   UNL     1      12.560   8.887  19.200  0.00  0.00    +0.165 A 
BRANCH  20   5
ATOM      5  O   UNL     1      10.385   9.593  22.057  0.00  0.00    -0.491 OA
ATOM     28  C   UNL     1      10.836   8.952  23.249  0.00  0.00    +0.277 C 
ENDBRANCH  20   5
BRANCH  24   6
ATOM      6  O   UNL     1      11.012   7.500  20.375  0.00  0.00    -0.488 OA
ATOM     31  C   UNL     1      11.767   6.476  21.018  0.00  0.00    +0.277 C 
ENDBRANCH  24   6
BRANCH  26   7
ATOM      7  O   UNL     1      12.877   7.861  18.362  0.00  0.00    -0.491 OA
ATOM     32  C   UNL     1      13.736   8.162  17.263  0.00  0.00    +0.277 C 
ENDBRANCH  26   7
ENDBRANCH  17  19
ENDBRANCH  10  17
TORSDOF 10
ENDMDL
MODEL 4
REMARK VINA RESULT:      -6.1      4.127      8.907
REMARK  Name = 26743464
REMARK  13 active torsions:
REMARK  status: ('A' for Active; 'I' for Inactive)
REMARK    1  A    between atoms: S_1  and  C_23
REMARK    2  A    between atoms: S_1  and  C_27
REMARK    3  A    between atoms: O_3  and  C_15
REMARK    4  A    between atoms: O_5  and  C_20
REMARK    5  A    between atoms: O_5  and  C_28
REMARK    6  A    between atoms: O_6  and  C_24
REMARK    7  A    between atoms: O_6  and  C_31
REMARK    8  A    between atoms: O_7  and  C_26
REMARK    9  A    between atoms: O_7  and  C_32
REMARK   10  A    between atoms: N_10  and  C_17
REMARK   11  A    between atoms: C_13  and  C_18
REMARK   12  A    between atoms: C_17  and  C_19
REMARK   13  A    between atoms: C_21  and  C_23
REMARK                            x       y       z     vdW  Elec       q    Type
REMARK                         _______ _______ _______ _____ _____    ______ ____
ROOT
ATOM     10  N   UNL     1      18.839   8.065  21.466  0.00  0.00    -0.284 NA
ATOM     13  C   UNL     1      17.499   8.671  21.597  0.00  0.00    +0.149 C 
ATOM     14  C   UNL     1      17.691  10.144  21.188  0.00  0.00    +0.061 C 
ATOM     15  C   UNL     1      19.179  10.279  20.890  0.00  0.00    +0.130 C 
ATOM     16  C   UNL     1      19.804   9.143  21.677  0.00  0.00    +0.116 C 
ENDROOT
BRANCH  13  18
ATOM      4  O   UNL     1      16.914   7.225  19.715  0.00  0.00    -0.336 OA
ATOM     11  N   UNL     1      15.152   7.956  20.889  0.00  0.00    -0.193 NA
ATOM     12  N   UNL     1      15.781   6.678  19.099  0.00  0.00    -0.060 NA
ATOM     18  C   UNL     1      16.454   7.963  20.760  0.00  0.00    +0.245 A 
ATOM     21  C   UNL     1      14.783   7.155  19.849  0.00  0.00    +0.193 A 
BRANCH  21  23
ATOM     23  C   UNL     1      13.379   6.835  19.567  0.00  0.00    +0.251 C 
BRANCH  23   1
ATOM      1  S   UNL     1      12.584   8.284  18.930  0.00  0.00    +0.004 S 
ATOM      8  O   UNL     1      11.461   7.848  18.121  0.00  0.00    -0.169 OA
ATOM      9  O   UNL     1      13.597   9.159  18.372  0.00  0.00    -0.169 OA
BRANCH   1  27
ATOM      2  F   UNL     1      10.448  10.951  23.735  0.00  0.00    -0.205 F 
ATOM     27  C   UNL     1      11.943   9.084  20.369  0.00  0.00    +0.089 A 
ATOM     29  C   UNL     1      12.330  10.390  20.673  0.00  0.00    +0.030 A 
ATOM     30  C   UNL     1      11.052   8.410  21.203  0.00  0.00    +0.030 A 
ATOM     33  C   UNL     1      11.825  11.020  21.809  0.00  0.00    +0.040 A 
ATOM     34  C   UNL     1      10.547   9.040  22.340  0.00  0.00    +0.040 A 
ATOM     35  C   UNL     1      10.933  10.345  22.643  0.00  0.00    +0.124 A 
ENDBRANCH   1  27
ENDBRANCH  23   1
ENDBRANCH  21  23
ENDBRANCH  13  18
BRANCH  15   3
ATOM      3  O   UNL     1      19.663  11.539  21.313  0.00  0.00    -0.390 OA
ATOM     36  H   UNL     1      20.586  11.420  21.590  0.00  0.00    +0.210 HD
ENDBRANCH  15   3
BRANCH  10  17
ATOM     17  C   UNL     1      19.056   6.948  22.378  0.00  0.00    +0.124 C 
BRANCH  17  19
ATOM     19  C   UNL     1      20.279   6.153  22.008  0.00  0.00    +0.012 A 
ATOM     20  C   UNL     1      21.256   5.860  22.961  0.00  0.00    +0.170 A 
ATOM     22  C   UNL     1      20.430   5.705  20.695  0.00  0.00    +0.012 A 
ATOM     24  C   UNL     1      22.382   5.121  22.601  0.00  0.00    +0.204 A 
ATOM     25  C   UNL     1      21.557   4.967  20.335  0.00  0.00    +0.050 A 
ATOM     26  C   UNL     1      22.533   4.675  21.288  0.00  0.00    +0.165 A 
BRANCH  20   5
ATOM      5  O   UNL     1      21.111   6.295  24.245  0.00  0.00    -0.491 OA
ATOM     28  C   UNL     1      21.744   7.527  24.585  0.00  0.00    +0.277 C 
ENDBRANCH  20   5
BRANCH  24   6
ATOM      6  O   UNL     1      23.338   4.835  23.530  0.00  0.00    -0.488 OA
ATOM     31  C   UNL     1      23.131   3.676  24.334  0.00  0.00    +0.277 C 
ENDBRANCH  24   6
BRANCH  26   7
ATOM      7  O   UNL     1      23.628   3.952  20.923  0.00  0.00    -0.491 OA
ATOM     32  C   UNL     1      23.470   2.537  20.834  0.00  0.00    +0.277 C 
ENDBRANCH  26   7
ENDBRANCH  17  19
ENDBRANCH  10  17
TORSDOF 10
ENDMDL
MODEL 5
REMARK VINA RESULT:      -6.1     15.130     17.875
REMARK  Name = 26743464
REMARK  13 active torsions:
REMARK  status: ('A' for Active; 'I' for Inactive)
REMARK    1  A    between atoms: S_1  and  C_23
REMARK    2  A    between atoms: S_1  and  C_27
REMARK    3  A    between atoms: O_3  and  C_15
REMARK    4  A    between atoms: O_5  and  C_20
REMARK    5  A    between atoms: O_5  and  C_28
REMARK    6  A    between atoms: O_6  and  C_24
REMARK    7  A    between atoms: O_6  and  C_31
REMARK    8  A    between atoms: O_7  and  C_26
REMARK    9  A    between atoms: O_7  and  C_32
REMARK   10  A    between atoms: N_10  and  C_17
REMARK   11  A    between atoms: C_13  and  C_18
REMARK   12  A    between atoms: C_17  and  C_19
REMARK   13  A    between atoms: C_21  and  C_23
REMARK                            x       y       z     vdW  Elec       q    Type
REMARK                         _______ _______ _______ _____ _____    ______ ____
ROOT
ATOM     10  N   UNL     1      10.818   5.898   5.793  0.00  0.00    -0.284 NA
ATOM     13  C   UNL     1      11.127   7.053   6.662  0.00  0.00    +0.149 C 
ATOM     14  C   UNL     1      10.748   6.590   8.082  0.00  0.00    +0.061 C 
ATOM     15  C   UNL     1      10.194   5.182   7.902  0.00  0.00    +0.130 C 
ATOM     16  C   UNL     1       9.744   5.158   6.454  0.00  0.00    +0.116 C 
ENDROOT
BRANCH  13  18
ATOM      4  O   UNL     1      13.509   6.599   6.973  0.00  0.00    -0.336 OA
ATOM     11  N   UNL     1      13.065   8.623   6.119  0.00  0.00    -0.193 NA
ATOM     12  N   UNL     1      14.749   7.223   6.783  0.00  0.00    -0.060 NA
ATOM     18  C   UNL     1      12.572   7.492   6.556  0.00  0.00    +0.245 A 
ATOM     21  C   UNL     1      14.404   8.411   6.278  0.00  0.00    +0.193 A 
BRANCH  21  23
ATOM     23  C   UNL     1      15.404   9.422   5.918  0.00  0.00    +0.251 C 
BRANCH  23   1
ATOM      1  S   UNL     1      16.201   8.922   4.417  0.00  0.00    +0.004 S 
ATOM      8  O   UNL     1      16.254  10.079   3.543  0.00  0.00    -0.169 OA
ATOM      9  O   UNL     1      15.597   7.684   3.964  0.00  0.00    -0.169 OA
BRANCH   1  27
ATOM      2  F   UNL     1      21.706   7.643   6.098  0.00  0.00    -0.205 F 
ATOM     27  C   UNL     1      17.851   8.540   4.920  0.00  0.00    +0.089 A 
ATOM     29  C   UNL     1      18.747   7.981   4.008  0.00  0.00    +0.030 A 
ATOM     30  C   UNL     1      18.258   8.794   6.229  0.00  0.00    +0.030 A 
ATOM     33  C   UNL     1      20.049   7.678   4.406  0.00  0.00    +0.040 A 
ATOM     34  C   UNL     1      19.559   8.491   6.627  0.00  0.00    +0.040 A 
ATOM     35  C   UNL     1      20.455   7.934   5.716  0.00  0.00    +0.124 A 
ENDBRANCH   1  27
ENDBRANCH  23   1
ENDBRANCH  21  23
ENDBRANCH  13  18
BRANCH  15   3
ATOM      3  O   UNL     1       9.118   4.949   8.791  0.00  0.00    -0.390 OA
ATOM     36  H   UNL     1       9.481   4.942   9.693  0.00  0.00    +0.210 HD
ENDBRANCH  15   3
BRANCH  10  17
ATOM     17  C   UNL     1      10.464   6.282   4.433  0.00  0.00    +0.124 C 
BRANCH  17  19
ATOM     19  C   UNL     1      11.301   5.561   3.411  0.00  0.00    +0.012 A 
ATOM     20  C   UNL     1      12.345   6.213   2.754  0.00  0.00    +0.170 A 
ATOM     22  C   UNL     1      11.024   4.223   3.125  0.00  0.00    +0.012 A 
ATOM     24  C   UNL     1      13.110   5.528   1.810  0.00  0.00    +0.204 A 
ATOM     25  C   UNL     1      11.790   3.539   2.181  0.00  0.00    +0.050 A 
ATOM     26  C   UNL     1      12.833   4.192   1.524  0.00  0.00    +0.165 A 
BRANCH  20   5
ATOM      5  O   UNL     1      12.618   7.519   3.031  0.00  0.00    -0.491 OA
ATOM     28  C   UNL     1      11.870   8.502   2.318  0.00  0.00    +0.277 C 
ENDBRANCH  20   5
BRANCH  24   6
ATOM      6  O   UNL     1      14.130   6.165   1.166  0.00  0.00    -0.488 OA
ATOM     31  C   UNL     1      13.841   6.721  -0.114  0.00  0.00    +0.277 C 
ENDBRANCH  24   6
BRANCH  26   7
ATOM      7  O   UNL     1      13.574   3.511   0.605  0.00  0.00    -0.491 OA
ATOM     32  C   UNL     1      12.926   3.153  -0.614  0.00  0.00    +0.277 C 
ENDBRANCH  26   7
ENDBRANCH  17  19
ENDBRANCH  10  17
TORSDOF 10
ENDMDL
MODEL 6
REMARK VINA RESULT:      -6.0     26.971     30.366
REMARK  Name = 26743464
REMARK  13 active torsions:
REMARK  status: ('A' for Active; 'I' for Inactive)
REMARK    1  A    between atoms: S_1  and  C_23
REMARK    2  A    between atoms: S_1  and  C_27
REMARK    3  A    between atoms: O_3  and  C_15
REMARK    4  A    between atoms: O_5  and  C_20
REMARK    5  A    between atoms: O_5  and  C_28
REMARK    6  A    between atoms: O_6  and  C_24
REMARK    7  A    between atoms: O_6  and  C_31
REMARK    8  A    between atoms: O_7  and  C_26
REMARK    9  A    between atoms: O_7  and  C_32
REMARK   10  A    between atoms: N_10  and  C_17
REMARK   11  A    between atoms: C_13  and  C_18
REMARK   12  A    between atoms: C_17  and  C_19
REMARK   13  A    between atoms: C_21  and  C_23
REMARK                            x       y       z     vdW  Elec       q    Type
REMARK                         _______ _______ _______ _____ _____    ______ ____
ROOT
ATOM     10  N   UNL     1      -3.473 -10.903  14.473  0.00  0.00    -0.284 NA
ATOM     13  C   UNL     1      -3.675 -11.357  15.864  0.00  0.00    +0.149 C 
ATOM     14  C   UNL     1      -2.428 -10.865  16.624  0.00  0.00    +0.061 C 
ATOM     15  C   UNL     1      -1.564 -10.187  15.567  0.00  0.00    +0.130 C 
ATOM     16  C   UNL     1      -2.027 -10.822  14.269  0.00  0.00    +0.116 C 
ENDROOT
BRANCH  13  18
ATOM      4  O   UNL     1      -5.366  -9.604  16.070  0.00  0.00    -0.336 OA
ATOM     11  N   UNL     1      -5.769 -11.417  17.323  0.00  0.00    -0.193 NA
ATOM     12  N   UNL     1      -6.564  -9.349  16.750  0.00  0.00    -0.060 NA
ATOM     18  C   UNL     1      -4.966 -10.842  16.464  0.00  0.00    +0.245 A 
ATOM     21  C   UNL     1      -6.734 -10.463  17.468  0.00  0.00    +0.193 A 
BRANCH  21  23
ATOM     23  C   UNL     1      -7.888 -10.647  18.355  0.00  0.00    +0.251 C 
BRANCH  23   1
ATOM      1  S   UNL     1      -9.289 -11.111  17.376  0.00  0.00    +0.004 S 
ATOM      8  O   UNL     1     -10.302 -11.626  18.278  0.00  0.00    -0.169 OA
ATOM      9  O   UNL     1      -8.826 -11.909  16.257  0.00  0.00    -0.169 OA
BRANCH   1  27
ATOM      2  F   UNL     1     -11.229  -5.998  15.172  0.00  0.00    -0.205 F 
ATOM     27  C   UNL     1      -9.872  -9.580  16.715  0.00  0.00    +0.089 A 
ATOM     29  C   UNL     1     -10.008  -9.421  15.336  0.00  0.00    +0.030 A 
ATOM     30  C   UNL     1     -10.193  -8.528  17.573  0.00  0.00    +0.030 A 
ATOM     33  C   UNL     1     -10.466  -8.212  14.815  0.00  0.00    +0.040 A 
ATOM     34  C   UNL     1     -10.652  -7.319  17.052  0.00  0.00    +0.040 A 
ATOM     35  C   UNL     1     -10.789  -7.160  15.673  0.00  0.00    +0.124 A 
ENDBRANCH   1  27
ENDBRANCH  23   1
ENDBRANCH  21  23
ENDBRANCH  13  18
BRANCH  15   3
ATOM      3  O   UNL     1      -0.192 -10.429  15.810  0.00  0.00    -0.390 OA
ATOM     36  H   UNL     1       0.150  -9.678  16.323  0.00  0.00    +0.210 HD
ENDBRANCH  15   3
BRANCH  10  17
ATOM     17  C   UNL     1      -4.119 -11.763  13.489  0.00  0.00    +0.124 C 
BRANCH  17  19
ATOM     19  C   UNL     1      -4.331 -11.053  12.179  0.00  0.00    +0.012 A 
ATOM     20  C   UNL     1      -5.372 -10.138  12.023  0.00  0.00    +0.170 A 
ATOM     22  C   UNL     1      -3.472 -11.320  11.113  0.00  0.00    +0.012 A 
ATOM     24  C   UNL     1      -5.554  -9.489  10.802  0.00  0.00    +0.204 A 
ATOM     25  C   UNL     1      -3.654 -10.672   9.891  0.00  0.00    +0.050 A 
ATOM     26  C   UNL     1      -4.695  -9.757   9.736  0.00  0.00    +0.165 A 
BRANCH  20   5
ATOM      5  O   UNL     1      -6.213  -9.874  13.063  0.00  0.00    -0.491 OA
ATOM     28  C   UNL     1      -7.322 -10.754  13.237  0.00  0.00    +0.277 C 
ENDBRANCH  20   5
BRANCH  24   6
ATOM      6  O   UNL     1      -6.571  -8.594  10.648  0.00  0.00    -0.488 OA
ATOM     31  C   UNL     1      -7.793  -9.090  10.106  0.00  0.00    +0.277 C 
ENDBRANCH  24   6
BRANCH  26   7
ATOM      7  O   UNL     1      -4.861  -9.130   8.538  0.00  0.00    -0.491 OA
ATOM     32  C   UNL     1      -5.355  -9.917   7.457  0.00  0.00    +0.277 C 
ENDBRANCH  26   7
ENDBRANCH  17  19
ENDBRANCH  10  17
TORSDOF 10
ENDMDL
MODEL 7
REMARK VINA RESULT:      -6.0     19.014     22.487
REMARK  Name = 26743464
REMARK  13 active torsions:
REMARK  status: ('A' for Active; 'I' for Inactive)
REMARK    1  A    between atoms: S_1  and  C_23
REMARK    2  A    between atoms: S_1  and  C_27
REMARK    3  A    between atoms: O_3  and  C_15
REMARK    4  A    between atoms: O_5  and  C_20
REMARK    5  A    between atoms: O_5  and  C_28
REMARK    6  A    between atoms: O_6  and  C_24
REMARK    7  A    between atoms: O_6  and  C_31
REMARK    8  A    between atoms: O_7  and  C_26
REMARK    9  A    between atoms: O_7  and  C_32
REMARK   10  A    between atoms: N_10  and  C_17
REMARK   11  A    between atoms: C_13  and  C_18
REMARK   12  A    between atoms: C_17  and  C_19
REMARK   13  A    between atoms: C_21  and  C_23
REMARK                            x       y       z     vdW  Elec       q    Type
REMARK                         _______ _______ _______ _____ _____    ______ ____
ROOT
ATOM     10  N   UNL     1      13.054   4.015  -0.602  0.00  0.00    -0.284 NA
ATOM     13  C   UNL     1      13.200   3.679   0.829  0.00  0.00    +0.149 C 
ATOM     14  C   UNL     1      14.642   4.086   1.184  0.00  0.00    +0.061 C 
ATOM     15  C   UNL     1      15.241   4.595  -0.121  0.00  0.00    +0.130 C 
ATOM     16  C   UNL     1      14.392   3.928  -1.186  0.00  0.00    +0.116 C 
ENDROOT
BRANCH  13  18
ATOM      4  O   UNL     1      11.786   5.614   1.312  0.00  0.00    -0.336 OA
ATOM     11  N   UNL     1      11.579   3.939   2.785  0.00  0.00    -0.193 NA
ATOM     12  N   UNL     1      10.842   6.040   2.255  0.00  0.00    -0.060 NA
ATOM     18  C   UNL     1      12.168   4.368   1.697  0.00  0.00    +0.245 A 
ATOM     21  C   UNL     1      10.775   4.999   3.090  0.00  0.00    +0.193 A 
BRANCH  21  23
ATOM     23  C   UNL     1       9.892   4.998   4.262  0.00  0.00    +0.251 C 
BRANCH  23   1
ATOM      1  S   UNL     1      10.353   6.340   5.321  0.00  0.00    +0.004 S 
ATOM      8  O   UNL     1       9.521   7.478   4.975  0.00  0.00    -0.169 OA
ATOM      9  O   UNL     1      11.799   6.457   5.316  0.00  0.00    -0.169 OA
BRANCH   1  27
ATOM      2  F   UNL     1       8.780   4.503  10.698  0.00  0.00    -0.205 F 
ATOM     27  C   UNL     1       9.883   5.789   6.933  0.00  0.00    +0.089 A 
ATOM     29  C   UNL     1      10.029   4.447   7.282  0.00  0.00    +0.030 A 
ATOM     30  C   UNL     1       9.364   6.697   7.856  0.00  0.00    +0.030 A 
ATOM     33  C   UNL     1       9.657   4.012   8.553  0.00  0.00    +0.040 A 
ATOM     34  C   UNL     1       8.992   6.262   9.127  0.00  0.00    +0.040 A 
ATOM     35  C   UNL     1       9.138   4.920   9.477  0.00  0.00    +0.124 A 
ENDBRANCH   1  27
ENDBRANCH  23   1
ENDBRANCH  21  23
ENDBRANCH  13  18
BRANCH  15   3
ATOM      3  O   UNL     1      16.602   4.225  -0.226  0.00  0.00    -0.390 OA
ATOM     36  H   UNL     1      17.134   5.032  -0.120  0.00  0.00    +0.210 HD
ENDBRANCH  15   3
BRANCH  10  17
ATOM     17  C   UNL     1      12.096   3.165  -1.297  0.00  0.00    +0.124 C 
BRANCH  17  19
ATOM     19  C   UNL     1      11.116   3.970  -2.107  0.00  0.00    +0.012 A 
ATOM     20  C   UNL     1      11.121   3.909  -3.501  0.00  0.00    +0.170 A 
ATOM     22  C   UNL     1      10.195   4.786  -1.448  0.00  0.00    +0.012 A 
ATOM     24  C   UNL     1      10.206   4.663  -4.235  0.00  0.00    +0.204 A 
ATOM     25  C   UNL     1       9.280   5.539  -2.183  0.00  0.00    +0.050 A 
ATOM     26  C   UNL     1       9.286   5.478  -3.576  0.00  0.00    +0.165 A 
BRANCH  20   5
ATOM      5  O   UNL     1      12.019   3.113  -4.148  0.00  0.00    -0.491 OA
ATOM     28  C   UNL     1      13.157   3.755  -4.719  0.00  0.00    +0.277 C 
ENDBRANCH  20   5
BRANCH  24   6
ATOM      6  O   UNL     1      10.209   4.604  -5.598  0.00  0.00    -0.488 OA
ATOM     31  C   UNL     1       9.391   3.607  -6.204  0.00  0.00    +0.277 C 
ENDBRANCH  24   6
BRANCH  26   7
ATOM      7  O   UNL     1       8.386   6.218  -4.282  0.00  0.00    -0.491 OA
ATOM     32  C   UNL     1       7.011   5.860  -4.156  0.00  0.00    +0.277 C 
ENDBRANCH  26   7
ENDBRANCH  17  19
ENDBRANCH  10  17
TORSDOF 10
ENDMDL
MODEL 8
REMARK VINA RESULT:      -6.0     28.094     30.232
REMARK  Name = 26743464
REMARK  13 active torsions:
REMARK  status: ('A' for Active; 'I' for Inactive)
REMARK    1  A    between atoms: S_1  and  C_23
REMARK    2  A    between atoms: S_1  and  C_27
REMARK    3  A    between atoms: O_3  and  C_15
REMARK    4  A    between atoms: O_5  and  C_20
REMARK    5  A    between atoms: O_5  and  C_28
REMARK    6  A    between atoms: O_6  and  C_24
REMARK    7  A    between atoms: O_6  and  C_31
REMARK    8  A    between atoms: O_7  and  C_26
REMARK    9  A    between atoms: O_7  and  C_32
REMARK   10  A    between atoms: N_10  and  C_17
REMARK   11  A    between atoms: C_13  and  C_18
REMARK   12  A    between atoms: C_17  and  C_19
REMARK   13  A    between atoms: C_21  and  C_23
REMARK                            x       y       z     vdW  Elec       q    Type
REMARK                         _______ _______ _______ _____ _____    ______ ____
ROOT
ATOM     10  N   UNL     1      -9.205  -8.807  16.061  0.00  0.00    -0.284 NA
ATOM     13  C   UNL     1     -10.300  -9.076  15.106  0.00  0.00    +0.149 C 
ATOM     14  C   UNL     1     -11.067  -7.744  15.003  0.00  0.00    +0.061 C 
ATOM     15  C   UNL     1     -10.358  -6.804  15.969  0.00  0.00    +0.130 C 
ATOM     16  C   UNL     1      -9.679  -7.744  16.946  0.00  0.00    +0.116 C 
ENDROOT
BRANCH  13  18
ATOM      4  O   UNL     1     -10.555 -10.506  13.140  0.00  0.00    -0.336 OA
ATOM     11  N   UNL     1      -8.720  -9.221  13.106  0.00  0.00    -0.193 NA
ATOM     12  N   UNL     1      -9.896 -10.800  11.940  0.00  0.00    -0.060 NA
ATOM     18  C   UNL     1      -9.796  -9.567  13.765  0.00  0.00    +0.245 A 
ATOM     21  C   UNL     1      -8.824 -10.003  11.993  0.00  0.00    +0.193 A 
BRANCH  21  23
ATOM     23  C   UNL     1      -7.824  -9.974  10.920  0.00  0.00    +0.251 C 
BRANCH  23   1
ATOM      1  S   UNL     1      -6.709 -11.332  11.146  0.00  0.00    +0.004 S 
ATOM      8  O   UNL     1      -6.903 -12.247  10.037  0.00  0.00    -0.169 OA
ATOM      9  O   UNL     1      -6.823 -11.799  12.515  0.00  0.00    -0.169 OA
BRANCH   1  27
ATOM      2  F   UNL     1      -1.373  -8.887  10.590  0.00  0.00    -0.205 F 
ATOM     27  C   UNL     1      -5.110 -10.601  10.979  0.00  0.00    +0.089 A 
ATOM     29  C   UNL     1      -4.117 -10.869  11.922  0.00  0.00    +0.030 A 
ATOM     30  C   UNL     1      -4.839  -9.753   9.905  0.00  0.00    +0.030 A 
ATOM     33  C   UNL     1      -2.856 -10.291  11.791  0.00  0.00    +0.040 A 
ATOM     34  C   UNL     1      -3.578  -9.174   9.774  0.00  0.00    +0.040 A 
ATOM     35  C   UNL     1      -2.585  -9.443  10.716  0.00  0.00    +0.124 A 
ENDBRANCH   1  27
ENDBRANCH  23   1
ENDBRANCH  21  23
ENDBRANCH  13  18
BRANCH  15   3
ATOM      3  O   UNL     1     -11.286  -5.955  16.615  0.00  0.00    -0.390 OA
ATOM     36  H   UNL     1     -11.168  -5.061  16.252  0.00  0.00    +0.210 HD
ENDBRANCH  15   3
BRANCH  10  17
ATOM     17  C   UNL     1      -8.784  -9.991  16.800  0.00  0.00    +0.124 C 
BRANCH  17  19
ATOM     19  C   UNL     1      -7.288 -10.153  16.794  0.00  0.00    +0.012 A 
ATOM     20  C   UNL     1      -6.605 -10.529  17.951  0.00  0.00    +0.170 A 
ATOM     22  C   UNL     1      -6.583  -9.923  15.612  0.00  0.00    +0.012 A 
ATOM     24  C   UNL     1      -5.218 -10.675  17.927  0.00  0.00    +0.204 A 
ATOM     25  C   UNL     1      -5.196 -10.069  15.588  0.00  0.00    +0.050 A 
ATOM     26  C   UNL     1      -4.514 -10.445  16.745  0.00  0.00    +0.165 A 
BRANCH  20   5
ATOM      5  O   UNL     1      -7.291 -10.755  19.108  0.00  0.00    -0.491 OA
ATOM     28  C   UNL     1      -7.725 -12.092  19.352  0.00  0.00    +0.277 C 
ENDBRANCH  20   5
BRANCH  24   6
ATOM      6  O   UNL     1      -4.550 -11.042  19.057  0.00  0.00    -0.488 OA
ATOM     31  C   UNL     1      -4.098 -12.392  19.132  0.00  0.00    +0.277 C 
ENDBRANCH  24   6
BRANCH  26   7
ATOM      7  O   UNL     1      -3.160 -10.585  16.707  0.00  0.00    -0.491 OA
ATOM     32  C   UNL     1      -2.591 -11.062  15.490  0.00  0.00    +0.277 C 
ENDBRANCH  26   7
ENDBRANCH  17  19
ENDBRANCH  10  17
TORSDOF 10
ENDMDL
MODEL 9
REMARK VINA RESULT:      -5.9     27.646     30.001
REMARK  Name = 26743464
REMARK  13 active torsions:
REMARK  status: ('A' for Active; 'I' for Inactive)
REMARK    1  A    between atoms: S_1  and  C_23
REMARK    2  A    between atoms: S_1  and  C_27
REMARK    3  A    between atoms: O_3  and  C_15
REMARK    4  A    between atoms: O_5  and  C_20
REMARK    5  A    between atoms: O_5  and  C_28
REMARK    6  A    between atoms: O_6  and  C_24
REMARK    7  A    between atoms: O_6  and  C_31
REMARK    8  A    between atoms: O_7  and  C_26
REMARK    9  A    between atoms: O_7  and  C_32
REMARK   10  A    between atoms: N_10  and  C_17
REMARK   11  A    between atoms: C_13  and  C_18
REMARK   12  A    between atoms: C_17  and  C_19
REMARK   13  A    between atoms: C_21  and  C_23
REMARK                            x       y       z     vdW  Elec       q    Type
REMARK                         _______ _______ _______ _____ _____    ______ ____
ROOT
ATOM     10  N   UNL     1      -6.979 -10.789  17.381  0.00  0.00    -0.284 NA
ATOM     13  C   UNL     1      -5.722 -10.835  18.157  0.00  0.00    +0.149 C 
ATOM     14  C   UNL     1      -5.838 -12.107  19.019  0.00  0.00    +0.061 C 
ATOM     15  C   UNL     1      -7.211 -12.681  18.692  0.00  0.00    +0.130 C 
ATOM     16  C   UNL     1      -7.987 -11.481  18.184  0.00  0.00    +0.116 C 
ENDROOT
BRANCH  13  18
ATOM      4  O   UNL     1      -3.374 -11.411  17.794  0.00  0.00    -0.336 OA
ATOM     11  N   UNL     1      -4.337 -10.357  16.067  0.00  0.00    -0.193 NA
ATOM     12  N   UNL     1      -2.384 -11.290  16.810  0.00  0.00    -0.060 NA
ATOM     18  C   UNL     1      -4.492 -10.837  17.274  0.00  0.00    +0.245 A 
ATOM     21  C   UNL     1      -3.028 -10.659  15.824  0.00  0.00    +0.193 A 
BRANCH  21  23
ATOM     23  C   UNL     1      -2.367 -10.312  14.561  0.00  0.00    +0.251 C 
BRANCH  23   1
ATOM      1  S   UNL     1      -2.946 -11.411  13.298  0.00  0.00    +0.004 S 
ATOM      8  O   UNL     1      -3.972 -12.252  13.885  0.00  0.00    -0.169 OA
ATOM      9  O   UNL     1      -1.797 -12.002  12.639  0.00  0.00    -0.169 OA
BRANCH   1  27
ATOM      2  F   UNL     1      -5.531  -7.831   9.391  0.00  0.00    -0.205 F 
ATOM     27  C   UNL     1      -3.720 -10.339  12.126  0.00  0.00    +0.089 A 
ATOM     29  C   UNL     1      -3.030  -9.940  10.982  0.00  0.00    +0.030 A 
ATOM     30  C   UNL     1      -5.023  -9.891  12.346  0.00  0.00    +0.030 A 
ATOM     33  C   UNL     1      -3.641  -9.093  10.058  0.00  0.00    +0.040 A 
ATOM     34  C   UNL     1      -5.634  -9.044  11.422  0.00  0.00    +0.040 A 
ATOM     35  C   UNL     1      -4.944  -8.645  10.278  0.00  0.00    +0.124 A 
ENDBRANCH   1  27
ENDBRANCH  23   1
ENDBRANCH  21  23
ENDBRANCH  13  18
BRANCH  15   3
ATOM      3  O   UNL     1      -7.807 -13.242  19.845  0.00  0.00    -0.390 OA
ATOM     36  H   UNL     1      -7.577 -14.186  19.863  0.00  0.00    +0.210 HD
ENDBRANCH  15   3
BRANCH  10  17
ATOM     17  C   UNL     1      -7.389  -9.435  17.032  0.00  0.00    +0.124 C 
BRANCH  17  19
ATOM     19  C   UNL     1      -8.325  -9.419  15.854  0.00  0.00    +0.012 A 
ATOM     20  C   UNL     1      -9.581  -8.820  15.947  0.00  0.00    +0.170 A 
ATOM     22  C   UNL     1      -7.923 -10.013  14.657  0.00  0.00    +0.012 A 
ATOM     24  C   UNL     1     -10.435  -8.814  14.844  0.00  0.00    +0.204 A 
ATOM     25  C   UNL     1      -8.777 -10.008  13.554  0.00  0.00    +0.050 A 
ATOM     26  C   UNL     1     -10.033  -9.409  13.648  0.00  0.00    +0.165 A 
BRANCH  20   5
ATOM      5  O   UNL     1      -9.977  -8.238  17.115  0.00  0.00    -0.491 OA
ATOM     28  C   UNL     1     -10.775  -9.030  17.993  0.00  0.00    +0.277 C 
ENDBRANCH  20   5
BRANCH  24   6
ATOM      6  O   UNL     1     -11.664  -8.229  14.934  0.00  0.00    -0.488 OA
ATOM     31  C   UNL     1     -11.737  -6.833  14.655  0.00  0.00    +0.277 C 
ENDBRANCH  24   6
BRANCH  26   7
ATOM      7  O   UNL     1     -10.857  -9.409  12.563  0.00  0.00    -0.491 OA
ATOM     32  C   UNL     1     -11.139 -10.672  11.964  0.00  0.00    +0.277 C 
ENDBRANCH  26   7
ENDBRANCH  17  19
ENDBRANCH  10  17
TORSDOF 10
ENDMDL
MODEL 10
REMARK VINA RESULT:      -5.9      3.661      7.936
REMARK  Name = 26743464
REMARK  13 active torsions:
REMARK  status: ('A' for Active; 'I' for Inactive)
REMARK    1  A    between atoms: S_1  and  C_23
REMARK    2  A    between atoms: S_1  and  C_27
REMARK    3  A    between atoms: O_3  and  C_15
REMARK    4  A    between atoms: O_5  and  C_20
REMARK    5  A    between atoms: O_5  and  C_28
REMARK    6  A    between atoms: O_6  and  C_24
REMARK    7  A    between atoms: O_6  and  C_31
REMARK    8  A    between atoms: O_7  and  C_26
REMARK    9  A    between atoms: O_7  and  C_32
REMARK   10  A    between atoms: N_10  and  C_17
REMARK   11  A    between atoms: C_13  and  C_18
REMARK   12  A    between atoms: C_17  and  C_19
REMARK   13  A    between atoms: C_21  and  C_23
REMARK                            x       y       z     vdW  Elec       q    Type
REMARK                         _______ _______ _______ _____ _____    ______ ____
ROOT
ATOM     10  N   UNL     1      12.859   8.107  21.048  0.00  0.00    -0.284 NA
ATOM     13  C   UNL     1      11.504   8.692  20.983  0.00  0.00    +0.149 C 
ATOM     14  C   UNL     1      10.557   7.535  21.354  0.00  0.00    +0.061 C 
ATOM     15  C   UNL     1      11.468   6.332  21.563  0.00  0.00    +0.130 C 
ATOM     16  C   UNL     1      12.709   6.681  20.763  0.00  0.00    +0.116 C 
ENDROOT
BRANCH  13  18
ATOM      4  O   UNL     1      11.105   9.632  23.204  0.00  0.00    -0.336 OA
ATOM     11  N   UNL     1      11.397  11.168  21.599  0.00  0.00    -0.193 NA
ATOM     12  N   UNL     1      10.992  10.879  23.833  0.00  0.00    -0.060 NA
ATOM     18  C   UNL     1      11.344   9.893  21.892  0.00  0.00    +0.245 A 
ATOM     21  C   UNL     1      11.176  11.733  22.821  0.00  0.00    +0.193 A 
BRANCH  21  23
ATOM     23  C   UNL     1      11.142  13.187  23.016  0.00  0.00    +0.251 C 
BRANCH  23   1
ATOM      1  S   UNL     1      12.785  13.753  23.359  0.00  0.00    +0.004 S 
ATOM      8  O   UNL     1      13.019  14.934  22.550  0.00  0.00    -0.169 OA
ATOM      9  O   UNL     1      13.688  12.620  23.286  0.00  0.00    -0.169 OA
BRANCH   1  27
ATOM      2  F   UNL     1      12.552  15.419  29.009  0.00  0.00    -0.205 F 
ATOM     27  C   UNL     1      12.716  14.253  25.052  0.00  0.00    +0.089 A 
ATOM     29  C   UNL     1      13.613  13.715  25.976  0.00  0.00    +0.030 A 
ATOM     30  C   UNL     1      11.764  15.185  25.466  0.00  0.00    +0.030 A 
ATOM     33  C   UNL     1      13.557  14.109  27.312  0.00  0.00    +0.040 A 
ATOM     34  C   UNL     1      11.709  15.578  26.802  0.00  0.00    +0.040 A 
ATOM     35  C   UNL     1      12.605  15.041  27.725  0.00  0.00    +0.124 A 
ENDBRANCH   1  27
ENDBRANCH  23   1
ENDBRANCH  21  23
ENDBRANCH  13  18
BRANCH  15   3
ATOM      3  O   UNL     1      10.854   5.149  21.091  0.00  0.00    -0.390 OA
ATOM     36  H   UNL     1      11.328   4.873  20.289  0.00  0.00    +0.210 HD
ENDBRANCH  15   3
BRANCH  10  17
ATOM     17  C   UNL     1      13.806   8.750  20.147  0.00  0.00    +0.124 C 
BRANCH  17  19
ATOM     19  C   UNL     1      15.187   8.166  20.275  0.00  0.00    +0.012 A 
ATOM     20  C   UNL     1      16.133   8.747  21.121  0.00  0.00    +0.170 A 
ATOM     22  C   UNL     1      15.518   7.029  19.537  0.00  0.00    +0.012 A 
ATOM     24  C   UNL     1      17.408   8.192  21.228  0.00  0.00    +0.204 A 
ATOM     25  C   UNL     1      16.793   6.474  19.644  0.00  0.00    +0.050 A 
ATOM     26  C   UNL     1      17.738   7.056  20.489  0.00  0.00    +0.165 A 
BRANCH  20   5
ATOM      5  O   UNL     1      15.814   9.858  21.844  0.00  0.00    -0.491 OA
ATOM     28  C   UNL     1      16.039  11.121  21.221  0.00  0.00    +0.277 C 
ENDBRANCH  20   5
BRANCH  24   6
ATOM      6  O   UNL     1      18.333   8.759  22.053  0.00  0.00    -0.488 OA
ATOM     31  C   UNL     1      19.295   9.623  21.451  0.00  0.00    +0.277 C 
ENDBRANCH  24   6
BRANCH  26   7
ATOM      7  O   UNL     1      18.979   6.503  20.585  0.00  0.00    -0.491 OA
ATOM     32  C   UNL     1      19.183   5.250  19.934  0.00  0.00    +0.277 C 
ENDBRANCH  26   7
ENDBRANCH  17  19
ENDBRANCH  10  17
TORSDOF 10
ENDMDL
