REMARK  Name = 40777147
REMARK  11 active torsions:
REMARK  status: ('A' for Active; 'I' for Inactive)
REMARK    1  A    between atoms: O_5  and  C_34
REMARK    2  A    between atoms: N_8  and  C_18
REMARK    3  A    between atoms: C_12  and  C_19
REMARK    4  A    between atoms: C_13  and  C_18
REMARK    5  A    between atoms: C_21  and  C_25
REMARK    6  A    between atoms: C_22  and  C_24
REMARK    7  A    between atoms: C_23  and  C_26
REMARK    8  A    between atoms: C_24  and  C_27
REMARK    9  A    between atoms: C_27  and  C_30
REMARK   10  A    between atoms: C_30  and  C_34
REMARK   11  A    between atoms: C_33  and  C_35
REMARK                            x       y       z     vdW  Elec       q    Type
REMARK                         _______ _______ _______ _____ _____    ______ ____
ROOT
ATOM      7  N   UNL     1      -1.563  -2.265   1.769  0.00  0.00    -0.297 NA
ATOM     11  C   UNL     1      -1.147  -2.840  -0.737  0.00  0.00    +0.002 C 
ATOM     12  C   UNL     1       0.181  -2.418  -0.048  0.00  0.00    +0.055 C 
ATOM     13  C   UNL     1      -2.543  -1.546   0.913  0.00  0.00    +0.074 C 
ATOM     14  C   UNL     1      -2.185  -1.709  -0.580  0.00  0.00    +0.024 C 
ATOM     15  C   UNL     1      -1.684  -4.060   0.042  0.00  0.00    +0.019 C 
ATOM     16  C   UNL     1      -0.179  -1.900   1.374  0.00  0.00    +0.094 C 
ATOM     17  C   UNL     1      -1.741  -3.719   1.541  0.00  0.00    +0.085 C 
ENDROOT
BRANCH  12  19
ATOM      9  N   UNL     1       0.692  -1.043  -2.005  0.00  0.00    -0.237 NA
ATOM     10  N   UNL     1       2.723   0.242  -2.176  0.00  0.00    -0.232 NA
ATOM     19  C   UNL     1       1.105  -1.465  -0.792  0.00  0.00    +0.050 A 
ATOM     20  C   UNL     1       2.298  -1.083  -0.213  0.00  0.00    +0.052 A 
ATOM     21  C   UNL     1       3.074  -0.219  -0.958  0.00  0.00    +0.075 A 
ATOM     23  C   UNL     1       1.537  -0.203  -2.633  0.00  0.00    +0.127 A 
ATOM     26  C   UNL     1       1.116   0.283  -3.978  0.00  0.00    +0.088 C 
BRANCH  21  25
ATOM     25  C   UNL     1       4.345   0.255  -0.465  0.00  0.00    +0.000 A 
ATOM     28  C   UNL     1       4.405   0.978   0.727  0.00  0.00    +0.010 A 
ATOM     29  C   UNL     1       5.513  -0.010  -1.180  0.00  0.00    +0.010 A 
ATOM     31  C   UNL     1       5.634   1.435   1.203  0.00  0.00    +0.013 A 
ATOM     32  C   UNL     1       6.742   0.448  -0.703  0.00  0.00    +0.013 A 
ATOM     33  C   UNL     1       6.802   1.170   0.488  0.00  0.00    +0.055 A 
BRANCH  33  35
ATOM      1  F   UNL     1       9.013   0.661   1.246  0.00  0.00    -0.166 F 
ATOM      2  F   UNL     1       8.000   2.348   2.171  0.00  0.00    -0.166 F 
ATOM      3  F   UNL     1       8.754   2.508   0.138  0.00  0.00    -0.166 F 
ATOM     35  C   UNL     1       8.115   1.660   0.998  0.00  0.00    +0.417 C 
ENDBRANCH  33  35
ENDBRANCH  21  25
ENDBRANCH  12  19
BRANCH  13  18
ATOM     18  C   UNL     1      -2.691  -0.074   1.306  0.00  0.00    +0.123 C 
BRANCH  18   8
ATOM      4  O   UNL     1      -5.472   0.095   1.998  0.00  0.00    -0.276 OA
ATOM      8  N   UNL     1      -3.723   0.557   0.542  0.00  0.00    -0.314 N 
ATOM     22  C   UNL     1      -5.054   0.592   0.955  0.00  0.00    +0.213 C 
ATOM     36  H   UNL     1      -3.469   0.989  -0.342  0.00  0.00    +0.149 HD
BRANCH  22  24
ATOM     24  C   UNL     1      -5.947   1.297  -0.051  0.00  0.00    +0.096 C 
BRANCH  24  27
ATOM     27  C   UNL     1      -7.416   1.356   0.366  0.00  0.00    +0.020 C 
BRANCH  27  30
ATOM     30  C   UNL     1      -8.285   2.081  -0.664  0.00  0.00    +0.121 C 
BRANCH  30  34
ATOM      6  O   UNL     1     -10.184   1.694   0.811  0.00  0.00    -0.251 OA
ATOM     34  C   UNL     1      -9.734   2.138  -0.237  0.00  0.00    +0.305 C 
BRANCH  34   5
ATOM      5  O   UNL     1     -10.502   2.757  -1.171  0.00  0.00    -0.481 OA
ATOM     37  H   UNL     1     -11.444   2.799  -0.899  0.00  0.00    +0.295 HD
ENDBRANCH  34   5
ENDBRANCH  30  34
ENDBRANCH  27  30
ENDBRANCH  24  27
ENDBRANCH  22  24
ENDBRANCH  18   8
ENDBRANCH  13  18
TORSDOF 10
