MODEL 1
REMARK VINA RESULT:      -7.7      0.000      0.000
REMARK  Name = 71693951
REMARK  6 active torsions:
REMARK  status: ('A' for Active; 'I' for Inactive)
REMARK    1  A    between atoms: O_4  and  C_12
REMARK    2  A    between atoms: O_5  and  C_14
REMARK    3  A    between atoms: N_9  and  C_11
REMARK    4  A    between atoms: C_10  and  C_15
REMARK    5  A    between atoms: C_18  and  C_22
REMARK    6  A    between atoms: C_21  and  C_24
REMARK                            x       y       z     vdW  Elec       q    Type
REMARK                         _______ _______ _______ _____ _____    ______ ____
ROOT
ATOM     10  C   UNL     1      13.487   9.608  20.103  0.00  0.00    +0.044 C 
ATOM     11  C   UNL     1      13.852   8.112  20.227  0.00  0.00    +0.112 C 
ATOM     12  C   UNL     1      12.908   7.604  21.315  0.00  0.00    +0.164 C 
ATOM     13  C   UNL     1      12.038   9.735  20.641  0.00  0.00    +0.044 C 
ATOM     14  C   UNL     1      11.599   8.317  20.997  0.00  0.00    +0.145 C 
ENDROOT
BRANCH  10  15
ATOM     15  C   UNL     1      13.682  10.151  18.703  0.00  0.00    -0.042 A 
ATOM     16  C   UNL     1      13.467   9.328  17.598  0.00  0.00    +0.004 A 
ATOM     17  C   UNL     1      14.078  11.477  18.519  0.00  0.00    +0.004 A 
ATOM     19  C   UNL     1      13.648   9.828  16.309  0.00  0.00    +0.012 A 
ATOM     20  C   UNL     1      14.258  11.977  17.229  0.00  0.00    +0.012 A 
ATOM     21  C   UNL     1      14.043  11.153  16.125  0.00  0.00    +0.055 A 
BRANCH  21  24
ATOM      1  F   UNL     1      14.668  12.985  14.719  0.00  0.00    -0.166 F 
ATOM      2  F   UNL     1      13.104  11.674  13.987  0.00  0.00    -0.166 F 
ATOM      3  F   UNL     1      15.165  10.982  14.035  0.00  0.00    -0.166 F 
ATOM     24  C   UNL     1      14.239  11.688  14.747  0.00  0.00    +0.417 C 
ENDBRANCH  21  24
ENDBRANCH  10  15
BRANCH  11   9
ATOM      6  O   UNL     1      15.706   6.296  18.995  0.00  0.00    -0.270 OA
ATOM      9  N   UNL     1      15.235   7.921  20.583  0.00  0.00    -0.305 N 
ATOM     18  C   UNL     1      16.059   7.015  19.927  0.00  0.00    +0.245 C 
ATOM     31  H   UNL     1      15.588   8.466  21.362  0.00  0.00    +0.149 HD
BRANCH  18  22
ATOM      7  O   UNL     1      20.308   4.678  20.111  0.00  0.00    -0.485 OA
ATOM      8  O   UNL     1      21.357   6.726  21.848  0.00  0.00    -0.485 OA
ATOM     22  C   UNL     1      17.452   6.917  20.431  0.00  0.00    +0.040 A 
ATOM     23  C   UNL     1      18.262   5.851  20.037  0.00  0.00    +0.062 A 
ATOM     25  C   UNL     1      17.948   7.887  21.302  0.00  0.00    +0.017 A 
ATOM     26  C   UNL     1      19.568   5.758  20.518  0.00  0.00    +0.163 A 
ATOM     27  C   UNL     1      19.258   7.802  21.774  0.00  0.00    +0.050 A 
ATOM     28  C   UNL     1      20.074   6.744  21.369  0.00  0.00    +0.162 A 
ATOM     29  C   UNL     1      21.475   4.498  20.917  0.00  0.00    +0.270 C 
ATOM     30  C   UNL     1      22.188   5.821  21.115  0.00  0.00    +0.270 C 
ENDBRANCH  18  22
ENDBRANCH  11   9
BRANCH  12   4
ATOM      4  O   UNL     1      12.747   6.198  21.274  0.00  0.00    -0.387 OA
ATOM     32  H   UNL     1      13.141   5.885  20.442  0.00  0.00    +0.210 HD
ENDBRANCH  12   4
BRANCH  14   5
ATOM      5  O   UNL     1      10.965   7.737  19.862  0.00  0.00    -0.389 OA
ATOM     33  H   UNL     1      10.007   7.733  20.031  0.00  0.00    +0.210 HD
ENDBRANCH  14   5
TORSDOF 6
ENDMDL
MODEL 2
REMARK VINA RESULT:      -7.4     14.746     18.149
REMARK  Name = 71693951
REMARK  6 active torsions:
REMARK  status: ('A' for Active; 'I' for Inactive)
REMARK    1  A    between atoms: O_4  and  C_12
REMARK    2  A    between atoms: O_5  and  C_14
REMARK    3  A    between atoms: N_9  and  C_11
REMARK    4  A    between atoms: C_10  and  C_15
REMARK    5  A    between atoms: C_18  and  C_22
REMARK    6  A    between atoms: C_21  and  C_24
REMARK                            x       y       z     vdW  Elec       q    Type
REMARK                         _______ _______ _______ _____ _____    ______ ____
ROOT
ATOM     10  C   UNL     1       8.402   7.598   4.017  0.00  0.00    +0.044 C 
ATOM     11  C   UNL     1       9.673   8.026   3.251  0.00  0.00    +0.112 C 
ATOM     12  C   UNL     1       9.226   9.272   2.488  0.00  0.00    +0.164 C 
ATOM     13  C   UNL     1       7.531   8.875   4.137  0.00  0.00    +0.044 C 
ATOM     14  C   UNL     1       8.344   9.997   3.497  0.00  0.00    +0.145 C 
ENDROOT
BRANCH  10  15
ATOM     15  C   UNL     1       8.705   6.924   5.339  0.00  0.00    -0.042 A 
ATOM     16  C   UNL     1       8.556   7.630   6.533  0.00  0.00    +0.004 A 
ATOM     17  C   UNL     1       9.137   5.597   5.362  0.00  0.00    +0.004 A 
ATOM     19  C   UNL     1       8.837   7.009   7.749  0.00  0.00    +0.012 A 
ATOM     20  C   UNL     1       9.417   4.977   6.579  0.00  0.00    +0.012 A 
ATOM     21  C   UNL     1       9.268   5.683   7.773  0.00  0.00    +0.055 A 
BRANCH  21  24
ATOM      1  F   UNL     1       8.567   5.132   9.992  0.00  0.00    -0.166 F 
ATOM      2  F   UNL     1      10.680   5.516   9.696  0.00  0.00    -0.166 F 
ATOM      3  F   UNL     1       9.796   3.680   8.941  0.00  0.00    -0.166 F 
ATOM     24  C   UNL     1       9.571   5.019   9.073  0.00  0.00    +0.417 C 
ENDBRANCH  21  24
ENDBRANCH  10  15
BRANCH  11   9
ATOM      6  O   UNL     1      12.066   6.467   3.552  0.00  0.00    -0.270 OA
ATOM      9  N   UNL     1      10.144   6.992   2.364  0.00  0.00    -0.305 N 
ATOM     18  C   UNL     1      11.319   6.288   2.594  0.00  0.00    +0.245 C 
ATOM     31  H   UNL     1       9.588   6.810   1.537  0.00  0.00    +0.149 HD
BRANCH  18  22
ATOM      7  O   UNL     1      10.472   4.130  -1.671  0.00  0.00    -0.485 OA
ATOM      8  O   UNL     1      12.770   2.437  -1.268  0.00  0.00    -0.485 OA
ATOM     22  C   UNL     1      11.680   5.273   1.571  0.00  0.00    +0.040 A 
ATOM     23  C   UNL     1      10.926   5.163   0.402  0.00  0.00    +0.062 A 
ATOM     25  C   UNL     1      12.769   4.427   1.783  0.00  0.00    +0.017 A 
ATOM     26  C   UNL     1      11.263   4.204  -0.553  0.00  0.00    +0.163 A 
ATOM     27  C   UNL     1      13.114   3.476   0.822  0.00  0.00    +0.050 A 
ATOM     28  C   UNL     1      12.370   3.375  -0.353  0.00  0.00    +0.162 A 
ATOM     29  C   UNL     1      10.686   2.917  -2.396  0.00  0.00    +0.270 C 
ATOM     30  C   UNL     1      12.171   2.651  -2.549  0.00  0.00    +0.270 C 
ENDBRANCH  18  22
ENDBRANCH  11   9
BRANCH  12   4
ATOM      4  O   UNL     1      10.319  10.080   2.091  0.00  0.00    -0.387 OA
ATOM     32  H   UNL     1       9.964  10.806   1.551  0.00  0.00    +0.210 HD
ENDBRANCH  12   4
BRANCH  14   5
ATOM      5  O   UNL     1       9.132  10.622   4.506  0.00  0.00    -0.389 OA
ATOM     33  H   UNL     1       9.080  10.067   5.303  0.00  0.00    +0.210 HD
ENDBRANCH  14   5
TORSDOF 6
ENDMDL
MODEL 3
REMARK VINA RESULT:      -7.2     29.583     32.286
REMARK  Name = 71693951
REMARK  6 active torsions:
REMARK  status: ('A' for Active; 'I' for Inactive)
REMARK    1  A    between atoms: O_4  and  C_12
REMARK    2  A    between atoms: O_5  and  C_14
REMARK    3  A    between atoms: N_9  and  C_11
REMARK    4  A    between atoms: C_10  and  C_15
REMARK    5  A    between atoms: C_18  and  C_22
REMARK    6  A    between atoms: C_21  and  C_24
REMARK                            x       y       z     vdW  Elec       q    Type
REMARK                         _______ _______ _______ _____ _____    ______ ____
ROOT
ATOM     10  C   UNL     1     -16.814   4.241  24.062  0.00  0.00    +0.044 C 
ATOM     11  C   UNL     1     -16.212   3.011  24.777  0.00  0.00    +0.112 C 
ATOM     12  C   UNL     1     -17.344   1.985  24.737  0.00  0.00    +0.164 C 
ATOM     13  C   UNL     1     -17.954   3.691  23.165  0.00  0.00    +0.044 C 
ATOM     14  C   UNL     1     -17.932   2.175  23.344  0.00  0.00    +0.145 C 
ENDROOT
BRANCH  10  15
ATOM     15  C   UNL     1     -15.780   5.061  23.321  0.00  0.00    -0.042 A 
ATOM     16  C   UNL     1     -14.609   4.459  22.860  0.00  0.00    +0.004 A 
ATOM     17  C   UNL     1     -15.997   6.422  23.101  0.00  0.00    +0.004 A 
ATOM     19  C   UNL     1     -13.656   5.215  22.179  0.00  0.00    +0.012 A 
ATOM     20  C   UNL     1     -15.043   7.179  22.419  0.00  0.00    +0.012 A 
ATOM     21  C   UNL     1     -13.874   6.575  21.958  0.00  0.00    +0.055 A 
BRANCH  21  24
ATOM      1  F   UNL     1     -13.136   7.560  19.908  0.00  0.00    -0.166 F 
ATOM      2  F   UNL     1     -11.602   6.842  21.260  0.00  0.00    -0.166 F 
ATOM      3  F   UNL     1     -12.718   8.643  21.746  0.00  0.00    -0.166 F 
ATOM     24  C   UNL     1     -12.854   7.385  21.233  0.00  0.00    +0.417 C 
ENDBRANCH  21  24
ENDBRANCH  10  15
BRANCH  11   9
ATOM      6  O   UNL     1     -17.941   3.439  27.030  0.00  0.00    -0.270 OA
ATOM      9  N   UNL     1     -15.808   3.314  26.126  0.00  0.00    -0.305 N 
ATOM     18  C   UNL     1     -16.721   3.505  27.155  0.00  0.00    +0.245 C 
ATOM     31  H   UNL     1     -14.813   3.410  26.297  0.00  0.00    +0.149 HD
BRANCH  18  22
ATOM      7  O   UNL     1     -13.712   2.456  30.817  0.00  0.00    -0.485 OA
ATOM      8  O   UNL     1     -14.546   4.852  32.186  0.00  0.00    -0.485 OA
ATOM     22  C   UNL     1     -16.146   3.839  28.483  0.00  0.00    +0.040 A 
ATOM     23  C   UNL     1     -15.178   3.009  29.051  0.00  0.00    +0.062 A 
ATOM     25  C   UNL     1     -16.577   4.977  29.164  0.00  0.00    +0.017 A 
ATOM     26  C   UNL     1     -14.645   3.320  30.302  0.00  0.00    +0.163 A 
ATOM     27  C   UNL     1     -16.034   5.296  30.409  0.00  0.00    +0.050 A 
ATOM     28  C   UNL     1     -15.056   4.475  30.971  0.00  0.00    +0.162 A 
ATOM     29  C   UNL     1     -13.498   2.674  32.213  0.00  0.00    +0.270 C 
ATOM     30  C   UNL     1     -13.337   4.154  32.497  0.00  0.00    +0.270 C 
ENDBRANCH  18  22
ENDBRANCH  11   9
BRANCH  12   4
ATOM      4  O   UNL     1     -16.876   0.662  24.918  0.00  0.00    -0.387 OA
ATOM     32  H   UNL     1     -16.328   0.654  25.722  0.00  0.00    +0.210 HD
ENDBRANCH  12   4
BRANCH  14   5
ATOM      5  O   UNL     1     -17.083   1.610  22.351  0.00  0.00    -0.389 OA
ATOM     33  H   UNL     1     -17.484   1.795  21.483  0.00  0.00    +0.210 HD
ENDBRANCH  14   5
TORSDOF 6
ENDMDL
MODEL 4
REMARK VINA RESULT:      -7.1      4.134      7.624
REMARK  Name = 71693951
REMARK  6 active torsions:
REMARK  status: ('A' for Active; 'I' for Inactive)
REMARK    1  A    between atoms: O_4  and  C_12
REMARK    2  A    between atoms: O_5  and  C_14
REMARK    3  A    between atoms: N_9  and  C_11
REMARK    4  A    between atoms: C_10  and  C_15
REMARK    5  A    between atoms: C_18  and  C_22
REMARK    6  A    between atoms: C_21  and  C_24
REMARK                            x       y       z     vdW  Elec       q    Type
REMARK                         _______ _______ _______ _____ _____    ______ ____
ROOT
ATOM     10  C   UNL     1      14.084   7.492  19.243  0.00  0.00    +0.044 C 
ATOM     11  C   UNL     1      13.745   8.974  19.517  0.00  0.00    +0.112 C 
ATOM     12  C   UNL     1      12.255   8.941  19.854  0.00  0.00    +0.164 C 
ATOM     13  C   UNL     1      13.003   6.667  19.986  0.00  0.00    +0.044 C 
ATOM     14  C   UNL     1      12.121   7.685  20.706  0.00  0.00    +0.145 C 
ENDROOT
BRANCH  10  15
ATOM     15  C   UNL     1      15.508   7.132  19.614  0.00  0.00    -0.042 A 
ATOM     16  C   UNL     1      16.220   6.213  18.843  0.00  0.00    +0.004 A 
ATOM     17  C   UNL     1      16.106   7.719  20.730  0.00  0.00    +0.004 A 
ATOM     19  C   UNL     1      17.530   5.882  19.187  0.00  0.00    +0.012 A 
ATOM     20  C   UNL     1      17.417   7.387  21.073  0.00  0.00    +0.012 A 
ATOM     21  C   UNL     1      18.129   6.469  20.302  0.00  0.00    +0.055 A 
BRANCH  21  24
ATOM      1  F   UNL     1      19.942   4.915  20.158  0.00  0.00    -0.166 F 
ATOM      2  F   UNL     1      19.731   6.011  22.017  0.00  0.00    -0.166 F 
ATOM      3  F   UNL     1      20.438   7.031  20.233  0.00  0.00    -0.166 F 
ATOM     24  C   UNL     1      19.529   6.112  20.671  0.00  0.00    +0.417 C 
ENDBRANCH  21  24
ENDBRANCH  10  15
BRANCH  11   9
ATOM      6  O   UNL     1      15.775  10.997  19.325  0.00  0.00    -0.270 OA
ATOM      9  N   UNL     1      14.020   9.811  18.377  0.00  0.00    -0.305 N 
ATOM     18  C   UNL     1      15.028  10.767  18.377  0.00  0.00    +0.245 C 
ATOM     31  H   UNL     1      13.424   9.692  17.566  0.00  0.00    +0.149 HD
BRANCH  18  22
ATOM      7  O   UNL     1      15.213  11.010  13.532  0.00  0.00    -0.485 OA
ATOM      8  O   UNL     1      15.520  13.872  13.690  0.00  0.00    -0.485 OA
ATOM     22  C   UNL     1      15.166  11.567  17.133  0.00  0.00    +0.040 A 
ATOM     23  C   UNL     1      15.115  10.936  15.889  0.00  0.00    +0.062 A 
ATOM     25  C   UNL     1      15.354  12.947  17.209  0.00  0.00    +0.017 A 
ATOM     26  C   UNL     1      15.252  11.689  14.723  0.00  0.00    +0.163 A 
ATOM     27  C   UNL     1      15.479  13.703  16.043  0.00  0.00    +0.050 A 
ATOM     28  C   UNL     1      15.412  13.075  14.799  0.00  0.00    +0.162 A 
ATOM     29  C   UNL     1      15.702  11.805  12.450  0.00  0.00    +0.270 C 
ATOM     30  C   UNL     1      15.098  13.195  12.503  0.00  0.00    +0.270 C 
ENDBRANCH  18  22
ENDBRANCH  11   9
BRANCH  12   4
ATOM      4  O   UNL     1      11.842  10.090  20.570  0.00  0.00    -0.387 OA
ATOM     32  H   UNL     1      11.884   9.875  21.517  0.00  0.00    +0.210 HD
ENDBRANCH  12   4
BRANCH  14   5
ATOM      5  O   UNL     1      12.643   7.897  22.014  0.00  0.00    -0.389 OA
ATOM     33  H   UNL     1      13.610   7.805  21.961  0.00  0.00    +0.210 HD
ENDBRANCH  14   5
TORSDOF 6
ENDMDL
MODEL 5
REMARK VINA RESULT:      -7.0     27.664     30.083
REMARK  Name = 71693951
REMARK  6 active torsions:
REMARK  status: ('A' for Active; 'I' for Inactive)
REMARK    1  A    between atoms: O_4  and  C_12
REMARK    2  A    between atoms: O_5  and  C_14
REMARK    3  A    between atoms: N_9  and  C_11
REMARK    4  A    between atoms: C_10  and  C_15
REMARK    5  A    between atoms: C_18  and  C_22
REMARK    6  A    between atoms: C_21  and  C_24
REMARK                            x       y       z     vdW  Elec       q    Type
REMARK                         _______ _______ _______ _____ _____    ______ ____
ROOT
ATOM     10  C   UNL     1      -2.987 -10.714  14.699  0.00  0.00    +0.044 C 
ATOM     11  C   UNL     1      -3.547 -11.472  13.475  0.00  0.00    +0.112 C 
ATOM     12  C   UNL     1      -2.296 -12.039  12.805  0.00  0.00    +0.164 C 
ATOM     13  C   UNL     1      -1.606 -11.355  14.997  0.00  0.00    +0.044 C 
ATOM     14  C   UNL     1      -1.444 -12.487  13.986  0.00  0.00    +0.145 C 
ENDROOT
BRANCH  10  15
ATOM     15  C   UNL     1      -3.938 -10.707  15.878  0.00  0.00    -0.042 A 
ATOM     16  C   UNL     1      -5.179 -10.080  15.770  0.00  0.00    +0.004 A 
ATOM     17  C   UNL     1      -3.570 -11.325  17.074  0.00  0.00    +0.004 A 
ATOM     19  C   UNL     1      -6.054 -10.074  16.856  0.00  0.00    +0.012 A 
ATOM     20  C   UNL     1      -4.446 -11.319  18.159  0.00  0.00    +0.012 A 
ATOM     21  C   UNL     1      -5.687 -10.693  18.051  0.00  0.00    +0.055 A 
BRANCH  21  24
ATOM      1  F   UNL     1      -6.740 -11.896  19.829  0.00  0.00    -0.166 F 
ATOM      2  F   UNL     1      -7.897 -10.324  18.887  0.00  0.00    -0.166 F 
ATOM      3  F   UNL     1      -6.234  -9.813  20.191  0.00  0.00    -0.166 F 
ATOM     24  C   UNL     1      -6.621 -10.683  19.213  0.00  0.00    +0.417 C 
ENDBRANCH  21  24
ENDBRANCH  10  15
BRANCH  11   9
ATOM      6  O   UNL     1      -5.639 -12.242  11.664  0.00  0.00    -0.270 OA
ATOM      9  N   UNL     1      -4.284 -10.604  12.593  0.00  0.00    -0.305 N 
ATOM     18  C   UNL     1      -5.284 -11.069  11.749  0.00  0.00    +0.245 C 
ATOM     31  H   UNL     1      -4.024  -9.624  12.592  0.00  0.00    +0.149 HD
BRANCH  18  22
ATOM      7  O   UNL     1      -9.295  -9.059   9.896  0.00  0.00    -0.485 OA
ATOM      8  O   UNL     1      -7.675  -7.150   8.467  0.00  0.00    -0.485 OA
ATOM     22  C   UNL     1      -5.930 -10.051  10.881  0.00  0.00    +0.040 A 
ATOM     23  C   UNL     1      -7.321  -9.999  10.786  0.00  0.00    +0.062 A 
ATOM     25  C   UNL     1      -5.146  -9.152  10.159  0.00  0.00    +0.017 A 
ATOM     26  C   UNL     1      -7.925  -9.047   9.964  0.00  0.00    +0.163 A 
ATOM     27  C   UNL     1      -5.749  -8.191   9.347  0.00  0.00    +0.050 A 
ATOM     28  C   UNL     1      -7.141  -8.129   9.262  0.00  0.00    +0.162 A 
ATOM     29  C   UNL     1      -9.779  -8.296   8.788  0.00  0.00    +0.270 C 
ATOM     30  C   UNL     1      -9.070  -6.958   8.720  0.00  0.00    +0.270 C 
ENDBRANCH  18  22
ENDBRANCH  11   9
BRANCH  12   4
ATOM      4  O   UNL     1      -2.593 -13.126  11.947  0.00  0.00    -0.387 OA
ATOM     32  H   UNL     1      -2.162 -12.949  11.094  0.00  0.00    +0.210 HD
ENDBRANCH  12   4
BRANCH  14   5
ATOM      5  O   UNL     1      -1.955 -13.686  14.558  0.00  0.00    -0.389 OA
ATOM     33  H   UNL     1      -2.706 -13.975  14.010  0.00  0.00    +0.210 HD
ENDBRANCH  14   5
TORSDOF 6
ENDMDL
MODEL 6
REMARK VINA RESULT:      -7.0     27.358     30.786
REMARK  Name = 71693951
REMARK  6 active torsions:
REMARK  status: ('A' for Active; 'I' for Inactive)
REMARK    1  A    between atoms: O_4  and  C_12
REMARK    2  A    between atoms: O_5  and  C_14
REMARK    3  A    between atoms: N_9  and  C_11
REMARK    4  A    between atoms: C_10  and  C_15
REMARK    5  A    between atoms: C_18  and  C_22
REMARK    6  A    between atoms: C_21  and  C_24
REMARK                            x       y       z     vdW  Elec       q    Type
REMARK                         _______ _______ _______ _____ _____    ______ ____
ROOT
ATOM     10  C   UNL     1      -7.001 -11.941  17.340  0.00  0.00    +0.044 C 
ATOM     11  C   UNL     1      -7.796 -10.728  17.872  0.00  0.00    +0.112 C 
ATOM     12  C   UNL     1      -8.571 -11.302  19.057  0.00  0.00    +0.164 C 
ATOM     13  C   UNL     1      -6.887 -12.927  18.531  0.00  0.00    +0.044 C 
ATOM     14  C   UNL     1      -7.559 -12.233  19.714  0.00  0.00    +0.145 C 
ENDROOT
BRANCH  10  15
ATOM     15  C   UNL     1      -5.673 -11.554  16.722  0.00  0.00    -0.042 A 
ATOM     16  C   UNL     1      -5.572 -11.367  15.344  0.00  0.00    +0.004 A 
ATOM     17  C   UNL     1      -4.550 -11.388  17.533  0.00  0.00    +0.004 A 
ATOM     19  C   UNL     1      -4.349 -11.011  14.776  0.00  0.00    +0.012 A 
ATOM     20  C   UNL     1      -3.326 -11.032  16.965  0.00  0.00    +0.012 A 
ATOM     21  C   UNL     1      -3.226 -10.844  15.587  0.00  0.00    +0.055 A 
BRANCH  21  24
ATOM      1  F   UNL     1      -1.221  -9.547  15.710  0.00  0.00    -0.166 F 
ATOM      2  F   UNL     1      -2.029  -9.922  13.733  0.00  0.00    -0.166 F 
ATOM      3  F   UNL     1      -1.077 -11.533  14.839  0.00  0.00    -0.166 F 
ATOM     24  C   UNL     1      -1.917 -10.467  14.980  0.00  0.00    +0.417 C 
ENDBRANCH  21  24
ENDBRANCH  10  15
BRANCH  11   9
ATOM      6  O   UNL     1      -8.914  -8.082  17.842  0.00  0.00    -0.270 OA
ATOM      9  N   UNL     1      -8.673 -10.175  16.871  0.00  0.00    -0.305 N 
ATOM     18  C   UNL     1      -9.165  -8.879  16.942  0.00  0.00    +0.245 C 
ATOM     31  H   UNL     1      -8.944 -10.788  16.110  0.00  0.00    +0.149 HD
BRANCH  18  22
ATOM      7  O   UNL     1     -12.082  -5.570  14.915  0.00  0.00    -0.485 OA
ATOM      8  O   UNL     1     -12.599  -7.370  12.724  0.00  0.00    -0.485 OA
ATOM     22  C   UNL     1     -10.080  -8.469  15.845  0.00  0.00    +0.040 A 
ATOM     23  C   UNL     1     -10.662  -7.200  15.861  0.00  0.00    +0.062 A 
ATOM     25  C   UNL     1     -10.361  -9.354  14.805  0.00  0.00    +0.017 A 
ATOM     26  C   UNL     1     -11.526  -6.821  14.834  0.00  0.00    +0.163 A 
ATOM     27  C   UNL     1     -11.216  -8.971  13.771  0.00  0.00    +0.050 A 
ATOM     28  C   UNL     1     -11.786  -7.697  13.777  0.00  0.00    +0.162 A 
ATOM     29  C   UNL     1     -13.192  -5.421  14.026  0.00  0.00    +0.270 C 
ATOM     30  C   UNL     1     -12.842  -5.963  12.653  0.00  0.00    +0.270 C 
ENDBRANCH  18  22
ENDBRANCH  11   9
BRANCH  12   4
ATOM      4  O   UNL     1      -9.001 -10.297  19.956  0.00  0.00    -0.387 OA
ATOM     32  H   UNL     1      -9.603 -10.715  20.594  0.00  0.00    +0.210 HD
ENDBRANCH  12   4
BRANCH  14   5
ATOM      5  O   UNL     1      -6.575 -11.492  20.428  0.00  0.00    -0.389 OA
ATOM     33  H   UNL     1      -5.741 -11.992  20.379  0.00  0.00    +0.210 HD
ENDBRANCH  14   5
TORSDOF 6
ENDMDL
MODEL 7
REMARK VINA RESULT:      -6.9     28.337     30.155
REMARK  Name = 71693951
REMARK  6 active torsions:
REMARK  status: ('A' for Active; 'I' for Inactive)
REMARK    1  A    between atoms: O_4  and  C_12
REMARK    2  A    between atoms: O_5  and  C_14
REMARK    3  A    between atoms: N_9  and  C_11
REMARK    4  A    between atoms: C_10  and  C_15
REMARK    5  A    between atoms: C_18  and  C_22
REMARK    6  A    between atoms: C_21  and  C_24
REMARK                            x       y       z     vdW  Elec       q    Type
REMARK                         _______ _______ _______ _____ _____    ______ ____
ROOT
ATOM     10  C   UNL     1      -8.751  -8.692   8.177  0.00  0.00    +0.044 C 
ATOM     11  C   UNL     1      -7.234  -8.640   8.465  0.00  0.00    +0.112 C 
ATOM     12  C   UNL     1      -6.632  -9.508   7.360  0.00  0.00    +0.164 C 
ATOM     13  C   UNL     1      -8.883  -9.048   6.674  0.00  0.00    +0.044 C 
ATOM     14  C   UNL     1      -7.457  -9.130   6.136  0.00  0.00    +0.145 C 
ENDROOT
BRANCH  10  15
ATOM     15  C   UNL     1      -9.475  -7.426   8.584  0.00  0.00    -0.042 A 
ATOM     16  C   UNL     1     -10.669  -7.503   9.299  0.00  0.00    +0.004 A 
ATOM     17  C   UNL     1      -8.946  -6.181   8.240  0.00  0.00    +0.004 A 
ATOM     19  C   UNL     1     -11.335  -6.336   9.672  0.00  0.00    +0.012 A 
ATOM     20  C   UNL     1      -9.612  -5.014   8.614  0.00  0.00    +0.012 A 
ATOM     21  C   UNL     1     -10.807  -5.091   9.330  0.00  0.00    +0.055 A 
BRANCH  21  24
ATOM      1  F   UNL     1     -12.638  -3.592   8.982  0.00  0.00    -0.166 F 
ATOM      2  F   UNL     1     -10.757  -2.717   9.611  0.00  0.00    -0.166 F 
ATOM      3  F   UNL     1     -11.943  -3.868  11.023  0.00  0.00    -0.166 F 
ATOM     24  C   UNL     1     -11.520  -3.843   9.726  0.00  0.00    +0.417 C 
ENDBRANCH  21  24
ENDBRANCH  10  15
BRANCH  11   9
ATOM      6  O   UNL     1      -4.875  -8.061   9.998  0.00  0.00    -0.270 OA
ATOM      9  N   UNL     1      -6.915  -9.142   9.777  0.00  0.00    -0.305 N 
ATOM     18  C   UNL     1      -5.745  -8.805  10.444  0.00  0.00    +0.245 C 
ATOM     31  H   UNL     1      -7.579  -9.784  10.196  0.00  0.00    +0.149 HD
BRANCH  18  22
ATOM      7  O   UNL     1      -2.959 -11.246  13.581  0.00  0.00    -0.485 OA
ATOM      8  O   UNL     1      -5.063 -11.115  15.547  0.00  0.00    -0.485 OA
ATOM     22  C   UNL     1      -5.552  -9.427  11.778  0.00  0.00    +0.040 A 
ATOM     23  C   UNL     1      -4.340 -10.046  12.090  0.00  0.00    +0.062 A 
ATOM     25  C   UNL     1      -6.583  -9.399  12.716  0.00  0.00    +0.017 A 
ATOM     26  C   UNL     1      -4.164 -10.636  13.341  0.00  0.00    +0.163 A 
ATOM     27  C   UNL     1      -6.404  -9.978  13.973  0.00  0.00    +0.050 A 
ATOM     28  C   UNL     1      -5.188 -10.583  14.291  0.00  0.00    +0.162 A 
ATOM     29  C   UNL     1      -3.013 -12.098  14.728  0.00  0.00    +0.270 C 
ATOM     30  C   UNL     1      -3.699 -11.390  15.879  0.00  0.00    +0.270 C 
ENDBRANCH  18  22
ENDBRANCH  11   9
BRANCH  12   4
ATOM      4  O   UNL     1      -5.258  -9.238   7.154  0.00  0.00    -0.387 OA
ATOM     32  H   UNL     1      -4.936  -9.863   6.483  0.00  0.00    +0.210 HD
ENDBRANCH  12   4
BRANCH  14   5
ATOM      5  O   UNL     1      -7.081  -7.848   5.644  0.00  0.00    -0.389 OA
ATOM     33  H   UNL     1      -6.584  -7.985   4.818  0.00  0.00    +0.210 HD
ENDBRANCH  14   5
TORSDOF 6
ENDMDL
MODEL 8
REMARK VINA RESULT:      -6.9     28.432     31.491
REMARK  Name = 71693951
REMARK  6 active torsions:
REMARK  status: ('A' for Active; 'I' for Inactive)
REMARK    1  A    between atoms: O_4  and  C_12
REMARK    2  A    between atoms: O_5  and  C_14
REMARK    3  A    between atoms: N_9  and  C_11
REMARK    4  A    between atoms: C_10  and  C_15
REMARK    5  A    between atoms: C_18  and  C_22
REMARK    6  A    between atoms: C_21  and  C_24
REMARK                            x       y       z     vdW  Elec       q    Type
REMARK                         _______ _______ _______ _____ _____    ______ ____
ROOT
ATOM     10  C   UNL     1      -5.528 -10.012   7.297  0.00  0.00    +0.044 C 
ATOM     11  C   UNL     1      -7.033 -10.194   7.598  0.00  0.00    +0.112 C 
ATOM     12  C   UNL     1      -7.578 -10.828   6.319  0.00  0.00    +0.164 C 
ATOM     13  C   UNL     1      -5.192 -11.040   6.186  0.00  0.00    +0.044 C 
ATOM     14  C   UNL     1      -6.483 -11.814   5.928  0.00  0.00    +0.145 C 
ENDROOT
BRANCH  10  15
ATOM     15  C   UNL     1      -4.659 -10.123   8.532  0.00  0.00    -0.042 A 
ATOM     16  C   UNL     1      -4.452 -11.365   9.131  0.00  0.00    +0.004 A 
ATOM     17  C   UNL     1      -4.067  -8.980   9.072  0.00  0.00    +0.004 A 
ATOM     19  C   UNL     1      -3.652 -11.466  10.269  0.00  0.00    +0.012 A 
ATOM     20  C   UNL     1      -3.266  -9.082  10.210  0.00  0.00    +0.012 A 
ATOM     21  C   UNL     1      -3.059 -10.324  10.808  0.00  0.00    +0.055 A 
BRANCH  21  24
ATOM      1  F   UNL     1      -2.871 -10.149  13.186  0.00  0.00    -0.166 F 
ATOM      2  F   UNL     1      -1.132  -9.588  12.019  0.00  0.00    -0.166 F 
ATOM      3  F   UNL     1      -1.689 -11.682  12.198  0.00  0.00    -0.166 F 
ATOM     24  C   UNL     1      -2.206 -10.431  12.027  0.00  0.00    +0.417 C 
ENDBRANCH  21  24
ENDBRANCH  10  15
BRANCH  11   9
ATOM      6  O   UNL     1      -9.565  -9.841   8.906  0.00  0.00    -0.270 OA
ATOM      9  N   UNL     1      -7.680  -8.942   7.897  0.00  0.00    -0.305 N 
ATOM     18  C   UNL     1      -8.911  -8.870   8.536  0.00  0.00    +0.245 C 
ATOM     31  H   UNL     1      -7.206  -8.098   7.595  0.00  0.00    +0.149 HD
BRANCH  18  22
ATOM      7  O   UNL     1     -12.386  -5.951  10.256  0.00  0.00    -0.485 OA
ATOM      8  O   UNL     1     -10.906  -3.653   9.339  0.00  0.00    -0.485 OA
ATOM     22  C   UNL     1      -9.456  -7.505   8.747  0.00  0.00    +0.040 A 
ATOM     23  C   UNL     1     -10.668  -7.335   9.418  0.00  0.00    +0.062 A 
ATOM     25  C   UNL     1      -8.760  -6.395   8.269  0.00  0.00    +0.017 A 
ATOM     26  C   UNL     1     -11.182  -6.052   9.608  0.00  0.00    +0.163 A 
ATOM     27  C   UNL     1      -9.267  -5.110   8.471  0.00  0.00    +0.050 A 
ATOM     28  C   UNL     1     -10.471  -4.938   9.154  0.00  0.00    +0.162 A 
ATOM     29  C   UNL     1     -12.973  -4.658  10.090  0.00  0.00    +0.270 C 
ATOM     30  C   UNL     1     -11.938  -3.575  10.328  0.00  0.00    +0.270 C 
ENDBRANCH  18  22
ENDBRANCH  11   9
BRANCH  12   4
ATOM      4  O   UNL     1      -8.811 -11.490   6.531  0.00  0.00    -0.387 OA
ATOM     32  H   UNL     1      -9.500 -10.808   6.600  0.00  0.00    +0.210 HD
ENDBRANCH  12   4
BRANCH  14   5
ATOM      5  O   UNL     1      -6.504 -12.960   6.773  0.00  0.00    -0.389 OA
ATOM     33  H   UNL     1      -7.356 -13.410   6.634  0.00  0.00    +0.210 HD
ENDBRANCH  14   5
TORSDOF 6
ENDMDL
MODEL 9
REMARK VINA RESULT:      -6.8     27.869     30.503
REMARK  Name = 71693951
REMARK  6 active torsions:
REMARK  status: ('A' for Active; 'I' for Inactive)
REMARK    1  A    between atoms: O_4  and  C_12
REMARK    2  A    between atoms: O_5  and  C_14
REMARK    3  A    between atoms: N_9  and  C_11
REMARK    4  A    between atoms: C_10  and  C_15
REMARK    5  A    between atoms: C_18  and  C_22
REMARK    6  A    between atoms: C_21  and  C_24
REMARK                            x       y       z     vdW  Elec       q    Type
REMARK                         _______ _______ _______ _____ _____    ______ ____
ROOT
ATOM     10  C   UNL     1      -9.979 -10.092  19.054  0.00  0.00    +0.044 C 
ATOM     11  C   UNL     1      -9.411 -11.402  18.465  0.00  0.00    +0.112 C 
ATOM     12  C   UNL     1      -9.674 -12.431  19.563  0.00  0.00    +0.164 C 
ATOM     13  C   UNL     1     -11.020 -10.526  20.119  0.00  0.00    +0.044 C 
ATOM     14  C   UNL     1     -11.061 -12.051  20.067  0.00  0.00    +0.145 C 
ENDROOT
BRANCH  10  15
ATOM     15  C   UNL     1     -10.522  -9.154  17.997  0.00  0.00    -0.042 A 
ATOM     16  C   UNL     1     -11.852  -9.256  17.589  0.00  0.00    +0.004 A 
ATOM     17  C   UNL     1      -9.691  -8.187  17.430  0.00  0.00    +0.004 A 
ATOM     19  C   UNL     1     -12.351  -8.392  16.615  0.00  0.00    +0.012 A 
ATOM     20  C   UNL     1     -10.190  -7.322  16.456  0.00  0.00    +0.012 A 
ATOM     21  C   UNL     1     -11.520  -7.425  16.048  0.00  0.00    +0.055 A 
BRANCH  21  24
ATOM      1  F   UNL     1     -11.191  -5.496  14.673  0.00  0.00    -0.166 F 
ATOM      2  F   UNL     1     -13.209  -5.875  15.367  0.00  0.00    -0.166 F 
ATOM      3  F   UNL     1     -12.335  -7.142  13.832  0.00  0.00    -0.166 F 
ATOM     24  C   UNL     1     -12.053  -6.503  15.005  0.00  0.00    +0.417 C 
ENDBRANCH  21  24
ENDBRANCH  10  15
BRANCH  11   9
ATOM      6  O   UNL     1      -8.252 -10.994  15.868  0.00  0.00    -0.270 OA
ATOM      9  N   UNL     1      -8.007 -11.292  18.156  0.00  0.00    -0.305 N 
ATOM     18  C   UNL     1      -7.539 -11.094  16.864  0.00  0.00    +0.245 C 
ATOM     31  H   UNL     1      -7.359 -11.391  18.929  0.00  0.00    +0.149 HD
BRANCH  18  22
ATOM      7  O   UNL     1      -3.631 -10.428  14.063  0.00  0.00    -0.485 OA
ATOM      8  O   UNL     1      -1.925 -10.820  16.354  0.00  0.00    -0.485 OA
ATOM     22  C   UNL     1      -6.063 -11.028  16.709  0.00  0.00    +0.040 A 
ATOM     23  C   UNL     1      -5.505 -10.744  15.462  0.00  0.00    +0.062 A 
ATOM     25  C   UNL     1      -5.236 -11.256  17.809  0.00  0.00    +0.017 A 
ATOM     26  C   UNL     1      -4.119 -10.691  15.317  0.00  0.00    +0.163 A 
ATOM     27  C   UNL     1      -3.850 -11.190  17.668  0.00  0.00    +0.050 A 
ATOM     28  C   UNL     1      -3.291 -10.892  16.425  0.00  0.00    +0.162 A 
ATOM     29  C   UNL     1      -2.239 -10.736  13.958  0.00  0.00    +0.270 C 
ATOM     30  C   UNL     1      -1.486 -10.181  15.152  0.00  0.00    +0.270 C 
ENDBRANCH  18  22
ENDBRANCH  11   9
BRANCH  12   4
ATOM      4  O   UNL     1      -9.655 -13.758  19.071  0.00  0.00    -0.387 OA
ATOM     32  H   UNL     1      -8.757 -13.934  18.743  0.00  0.00    +0.210 HD
ENDBRANCH  12   4
BRANCH  14   5
ATOM      5  O   UNL     1     -12.067 -12.449  19.141  0.00  0.00    -0.389 OA
ATOM     33  H   UNL     1     -11.618 -12.734  18.326  0.00  0.00    +0.210 HD
ENDBRANCH  14   5
TORSDOF 6
ENDMDL
MODEL 10
REMARK VINA RESULT:      -6.7      5.551     10.240
REMARK  Name = 71693951
REMARK  6 active torsions:
REMARK  status: ('A' for Active; 'I' for Inactive)
REMARK    1  A    between atoms: O_4  and  C_12
REMARK    2  A    between atoms: O_5  and  C_14
REMARK    3  A    between atoms: N_9  and  C_11
REMARK    4  A    between atoms: C_10  and  C_15
REMARK    5  A    between atoms: C_18  and  C_22
REMARK    6  A    between atoms: C_21  and  C_24
REMARK                            x       y       z     vdW  Elec       q    Type
REMARK                         _______ _______ _______ _____ _____    ______ ____
ROOT
ATOM     10  C   UNL     1      21.846   6.055  23.942  0.00  0.00    +0.044 C 
ATOM     11  C   UNL     1      21.422   7.296  23.123  0.00  0.00    +0.112 C 
ATOM     12  C   UNL     1      21.492   8.434  24.140  0.00  0.00    +0.164 C 
ATOM     13  C   UNL     1      22.674   6.600  25.134  0.00  0.00    +0.044 C 
ATOM     14  C   UNL     1      22.751   8.112  24.935  0.00  0.00    +0.145 C 
ENDROOT
BRANCH  10  15
ATOM     15  C   UNL     1      22.563   5.013  23.110  0.00  0.00    -0.042 A 
ATOM     16  C   UNL     1      23.954   4.925  23.147  0.00  0.00    +0.004 A 
ATOM     17  C   UNL     1      21.830   4.141  22.303  0.00  0.00    +0.004 A 
ATOM     19  C   UNL     1      24.613   3.966  22.379  0.00  0.00    +0.012 A 
ATOM     20  C   UNL     1      22.490   3.181  21.536  0.00  0.00    +0.012 A 
ATOM     21  C   UNL     1      23.881   3.094  21.574  0.00  0.00    +0.055 A 
BRANCH  21  24
ATOM      1  F   UNL     1      24.632   2.374  19.420  0.00  0.00    -0.166 F 
ATOM      2  F   UNL     1      24.015   0.831  20.812  0.00  0.00    -0.166 F 
ATOM      3  F   UNL     1      25.885   1.893  21.130  0.00  0.00    -0.166 F 
ATOM     24  C   UNL     1      24.586   2.069  20.751  0.00  0.00    +0.417 C 
ENDBRANCH  21  24
ENDBRANCH  10  15
BRANCH  11   9
ATOM      6  O   UNL     1      20.759   6.925  20.353  0.00  0.00    -0.270 OA
ATOM      9  N   UNL     1      20.101   7.150  22.567  0.00  0.00    -0.305 N 
ATOM     18  C   UNL     1      19.877   6.974  21.208  0.00  0.00    +0.245 C 
ATOM     31  H   UNL     1      19.323   7.207  23.214  0.00  0.00    +0.149 HD
BRANCH  18  22
ATOM      7  O   UNL     1      15.202   8.091  21.883  0.00  0.00    -0.485 OA
ATOM      8  O   UNL     1      14.501   6.560  19.543  0.00  0.00    -0.485 OA
ATOM     22  C   UNL     1      18.456   6.867  20.790  0.00  0.00    +0.040 A 
ATOM     23  C   UNL     1      17.466   7.536  21.512  0.00  0.00    +0.062 A 
ATOM     25  C   UNL     1      18.111   6.095  19.681  0.00  0.00    +0.017 A 
ATOM     26  C   UNL     1      16.131   7.428  21.122  0.00  0.00    +0.163 A 
ATOM     27  C   UNL     1      16.778   5.997  19.283  0.00  0.00    +0.050 A 
ATOM     28  C   UNL     1      15.789   6.677  19.995  0.00  0.00    +0.162 A 
ATOM     29  C   UNL     1      13.872   7.639  21.613  0.00  0.00    +0.270 C 
ATOM     30  C   UNL     1      13.641   7.549  20.117  0.00  0.00    +0.270 C 
ENDBRANCH  18  22
ENDBRANCH  11   9
BRANCH  12   4
ATOM      4  O   UNL     1      21.589   9.703  23.520  0.00  0.00    -0.387 OA
ATOM     32  H   UNL     1      20.864  10.252  23.864  0.00  0.00    +0.210 HD
ENDBRANCH  12   4
BRANCH  14   5
ATOM      5  O   UNL     1      23.921   8.413  24.180  0.00  0.00    -0.389 OA
ATOM     33  H   UNL     1      24.407   7.580  24.049  0.00  0.00    +0.210 HD
ENDBRANCH  14   5
TORSDOF 6
ENDMDL
