MODEL 1
REMARK VINA RESULT:      -8.2      0.000      0.000
REMARK  Name = 25338526
REMARK  9 active torsions:
REMARK  status: ('A' for Active; 'I' for Inactive)
REMARK    1  A    between atoms: N_3  and  C_12
REMARK    2  A    between atoms: N_4  and  C_7
REMARK    3  A    between atoms: C_8  and  C_11
REMARK    4  A    between atoms: C_13  and  C_14
REMARK    5  A    between atoms: C_13  and  C_16
REMARK    6  A    between atoms: C_13  and  C_17
REMARK    7  A    between atoms: C_13  and  C_18
REMARK    8  A    between atoms: C_14  and  C_15
REMARK    9  A    between atoms: C_19  and  C_20
REMARK                            x       y       z     vdW  Elec       q    Type
REMARK                         _______ _______ _______ _____ _____    ______ ____
ROOT
ATOM      3  N   UNL     1      11.407   6.940  21.683  0.00  0.00    -0.293 NA
ATOM      7  C   UNL     1      10.624   9.122  21.925  0.00  0.00    +0.089 C 
ATOM      8  C   UNL     1      11.667   7.555  20.368  0.00  0.00    +0.147 C 
ATOM      9  C   UNL     1      11.297   9.040  20.555  0.00  0.00    +0.052 C 
ATOM     10  C   UNL     1      10.277   7.679  22.255  0.00  0.00    +0.107 C 
ATOM     12  C   UNL     1      11.137   5.509  21.604  0.00  0.00    +0.105 C 
ENDROOT
BRANCH   8  11
ATOM      1  O   UNL     1      13.320   7.615  18.568  0.00  0.00    -0.336 OA
ATOM      5  N   UNL     1      14.150   6.992  20.553  0.00  0.00    -0.190 NA
ATOM      6  N   UNL     1      14.684   7.375  18.362  0.00  0.00    -0.056 NA
ATOM     11  C   UNL     1      13.089   7.367  19.884  0.00  0.00    +0.245 A 
ATOM     19  C   UNL     1      15.104   7.012  19.577  0.00  0.00    +0.202 A 
BRANCH  19  20
ATOM     20  C   UNL     1      16.468   6.664  19.850  0.00  0.00    +0.023 A 
ATOM     21  C   UNL     1      17.142   7.267  20.913  0.00  0.00    +0.020 A 
ATOM     22  C   UNL     1      17.120   5.726  19.055  0.00  0.00    +0.012 A 
ATOM     23  C   UNL     1      18.479   6.938  21.193  0.00  0.00    -0.017 A 
ATOM     24  C   UNL     1      19.141   5.983  20.385  0.00  0.00    -0.018 A 
ATOM     25  C   UNL     1      18.446   5.386  19.319  0.00  0.00    +0.009 A 
ATOM     26  C   UNL     1      19.172   7.535  22.258  0.00  0.00    +0.008 A 
ATOM     27  C   UNL     1      20.476   5.653  20.666  0.00  0.00    +0.008 A 
ATOM     28  C   UNL     1      20.500   7.195  22.523  0.00  0.00    +0.001 A 
ATOM     29  C   UNL     1      21.150   6.256  21.727  0.00  0.00    +0.001 A 
ENDBRANCH  19  20
ENDBRANCH   8  11
BRANCH   7   4
ATOM      2  O   UNL     1      11.123  11.930  22.429  0.00  0.00    -0.276 OA
ATOM      4  N   UNL     1      11.506   9.690  22.917  0.00  0.00    -0.311 N 
ATOM     15  C   UNL     1      11.682  11.054  23.085  0.00  0.00    +0.214 C 
ATOM     30  H   UNL     1      12.040   9.048  23.495  0.00  0.00    +0.149 HD
BRANCH  15  14
ATOM     14  C   UNL     1      12.669  11.394  24.189  0.00  0.00    +0.102 C 
BRANCH  14  13
ATOM     13  C   UNL     1      14.098  11.729  23.698  0.00  0.00    -0.029 C 
ATOM     16  C   UNL     1      14.133  13.093  22.988  0.00  0.00    +0.011 C 
ATOM     17  C   UNL     1      15.021  11.797  24.931  0.00  0.00    +0.011 C 
ATOM     18  C   UNL     1      14.635  10.648  22.747  0.00  0.00    +0.011 C 
ENDBRANCH  14  13
ENDBRANCH  15  14
ENDBRANCH   7   4
TORSDOF 5
ENDMDL
MODEL 2
REMARK VINA RESULT:      -7.3      1.272      2.198
REMARK  Name = 25338526
REMARK  9 active torsions:
REMARK  status: ('A' for Active; 'I' for Inactive)
REMARK    1  A    between atoms: N_3  and  C_12
REMARK    2  A    between atoms: N_4  and  C_7
REMARK    3  A    between atoms: C_8  and  C_11
REMARK    4  A    between atoms: C_13  and  C_14
REMARK    5  A    between atoms: C_13  and  C_16
REMARK    6  A    between atoms: C_13  and  C_17
REMARK    7  A    between atoms: C_13  and  C_18
REMARK    8  A    between atoms: C_14  and  C_15
REMARK    9  A    between atoms: C_19  and  C_20
REMARK                            x       y       z     vdW  Elec       q    Type
REMARK                         _______ _______ _______ _____ _____    ______ ____
ROOT
ATOM      3  N   UNL     1      12.084   7.585  21.132  0.00  0.00    -0.293 NA
ATOM      7  C   UNL     1      11.623   9.821  20.661  0.00  0.00    +0.089 C 
ATOM      8  C   UNL     1      12.718   7.806  19.818  0.00  0.00    +0.147 C 
ATOM      9  C   UNL     1      12.555   9.317  19.560  0.00  0.00    +0.052 C 
ATOM     10  C   UNL     1      10.988   8.555  21.218  0.00  0.00    +0.107 C 
ATOM     12  C   UNL     1      11.614   6.217  21.320  0.00  0.00    +0.105 C 
ENDROOT
BRANCH   8  11
ATOM      1  O   UNL     1      14.501   6.532  18.738  0.00  0.00    -0.336 OA
ATOM      5  N   UNL     1      15.153   7.650  20.565  0.00  0.00    -0.190 NA
ATOM      6  N   UNL     1      15.865   6.258  18.896  0.00  0.00    -0.056 NA
ATOM     11  C   UNL     1      14.162   7.358  19.762  0.00  0.00    +0.245 A 
ATOM     19  C   UNL     1      16.178   6.952  19.993  0.00  0.00    +0.202 A 
BRANCH  19  20
ATOM     20  C   UNL     1      17.502   6.971  20.544  0.00  0.00    +0.023 A 
ATOM     21  C   UNL     1      18.412   5.970  20.206  0.00  0.00    +0.020 A 
ATOM     22  C   UNL     1      17.879   7.990  21.415  0.00  0.00    +0.012 A 
ATOM     23  C   UNL     1      19.713   5.974  20.737  0.00  0.00    -0.017 A 
ATOM     24  C   UNL     1      20.096   7.010  21.622  0.00  0.00    -0.018 A 
ATOM     25  C   UNL     1      19.166   8.010  21.951  0.00  0.00    +0.009 A 
ATOM     26  C   UNL     1      20.642   4.974  20.408  0.00  0.00    +0.008 A 
ATOM     27  C   UNL     1      21.396   7.015  22.153  0.00  0.00    +0.008 A 
ATOM     28  C   UNL     1      21.930   4.994  20.944  0.00  0.00    +0.001 A 
ATOM     29  C   UNL     1      22.306   6.013  21.816  0.00  0.00    +0.001 A 
ENDBRANCH  19  20
ENDBRANCH   8  11
BRANCH   7   4
ATOM      2  O   UNL     1      10.960  12.399  21.801  0.00  0.00    -0.276 OA
ATOM      4  N   UNL     1      12.347  10.538  21.684  0.00  0.00    -0.311 N 
ATOM     15  C   UNL     1      11.952  11.774  22.169  0.00  0.00    +0.214 C 
ATOM     30  H   UNL     1      13.203  10.120  22.036  0.00  0.00    +0.149 HD
BRANCH  15  14
ATOM     14  C   UNL     1      12.888  12.321  23.234  0.00  0.00    +0.102 C 
BRANCH  14  13
ATOM     13  C   UNL     1      12.243  12.506  24.629  0.00  0.00    -0.029 C 
ATOM     16  C   UNL     1      13.307  12.480  25.738  0.00  0.00    +0.011 C 
ATOM     17  C   UNL     1      11.546  13.881  24.653  0.00  0.00    +0.011 C 
ATOM     18  C   UNL     1      11.190  11.422  24.910  0.00  0.00    +0.011 C 
ENDBRANCH  14  13
ENDBRANCH  15  14
ENDBRANCH   7   4
TORSDOF 5
ENDMDL
MODEL 3
REMARK VINA RESULT:      -7.0     27.692     29.498
REMARK  Name = 25338526
REMARK  9 active torsions:
REMARK  status: ('A' for Active; 'I' for Inactive)
REMARK    1  A    between atoms: N_3  and  C_12
REMARK    2  A    between atoms: N_4  and  C_7
REMARK    3  A    between atoms: C_8  and  C_11
REMARK    4  A    between atoms: C_13  and  C_14
REMARK    5  A    between atoms: C_13  and  C_16
REMARK    6  A    between atoms: C_13  and  C_17
REMARK    7  A    between atoms: C_13  and  C_18
REMARK    8  A    between atoms: C_14  and  C_15
REMARK    9  A    between atoms: C_19  and  C_20
REMARK                            x       y       z     vdW  Elec       q    Type
REMARK                         _______ _______ _______ _____ _____    ______ ____
ROOT
ATOM      3  N   UNL     1      -4.460 -11.432   9.569  0.00  0.00    -0.293 NA
ATOM      7  C   UNL     1      -4.811  -9.412   8.462  0.00  0.00    +0.089 C 
ATOM      8  C   UNL     1      -3.467 -10.523  10.173  0.00  0.00    +0.147 C 
ATOM      9  C   UNL     1      -3.785  -9.144   9.563  0.00  0.00    +0.052 C 
ATOM     10  C   UNL     1      -4.716 -10.911   8.223  0.00  0.00    +0.107 C 
ATOM     12  C   UNL     1      -4.021 -12.823   9.539  0.00  0.00    +0.105 C 
ENDROOT
BRANCH   8  11
ATOM      1  O   UNL     1      -2.299 -10.545  12.320  0.00  0.00    -0.336 OA
ATOM      5  N   UNL     1      -4.530 -10.477  12.493  0.00  0.00    -0.190 NA
ATOM      6  N   UNL     1      -2.582 -10.528  13.690  0.00  0.00    -0.056 NA
ATOM     11  C   UNL     1      -3.500 -10.512  11.686  0.00  0.00    +0.245 A 
ATOM     19  C   UNL     1      -3.917 -10.488  13.713  0.00  0.00    +0.202 A 
BRANCH  19  20
ATOM     20  C   UNL     1      -4.668 -10.457  14.934  0.00  0.00    +0.023 A 
ATOM     21  C   UNL     1      -4.137 -11.020  16.094  0.00  0.00    +0.020 A 
ATOM     22  C   UNL     1      -5.928  -9.865  14.961  0.00  0.00    +0.012 A 
ATOM     23  C   UNL     1      -4.860 -10.997  17.299  0.00  0.00    -0.017 A 
ATOM     24  C   UNL     1      -6.141 -10.395  17.326  0.00  0.00    -0.018 A 
ATOM     25  C   UNL     1      -6.660  -9.833  16.147  0.00  0.00    +0.009 A 
ATOM     26  C   UNL     1      -4.341 -11.560  18.476  0.00  0.00    +0.008 A 
ATOM     27  C   UNL     1      -6.864 -10.372  18.529  0.00  0.00    +0.008 A 
ATOM     28  C   UNL     1      -5.073 -11.528  19.663  0.00  0.00    +0.001 A 
ATOM     29  C   UNL     1      -6.333 -10.936  19.689  0.00  0.00    +0.001 A 
ENDBRANCH  19  20
ENDBRANCH   8  11
BRANCH   7   4
ATOM      2  O   UNL     1      -7.116  -8.989   6.762  0.00  0.00    -0.276 OA
ATOM      4  N   UNL     1      -6.142  -9.029   8.871  0.00  0.00    -0.311 N 
ATOM     15  C   UNL     1      -7.187  -8.848   7.981  0.00  0.00    +0.214 C 
ATOM     30  H   UNL     1      -6.300  -8.858   9.860  0.00  0.00    +0.149 HD
BRANCH  15  14
ATOM     14  C   UNL     1      -8.483  -8.438   8.660  0.00  0.00    +0.102 C 
BRANCH  14  13
ATOM     13  C   UNL     1      -9.081  -7.102   8.159  0.00  0.00    -0.029 C 
ATOM     16  C   UNL     1     -10.200  -6.611   9.093  0.00  0.00    +0.011 C 
ATOM     17  C   UNL     1      -7.955  -6.049   8.151  0.00  0.00    +0.011 C 
ATOM     18  C   UNL     1      -9.634  -7.234   6.731  0.00  0.00    +0.011 C 
ENDBRANCH  14  13
ENDBRANCH  15  14
ENDBRANCH   7   4
TORSDOF 5
ENDMDL
MODEL 4
REMARK VINA RESULT:      -6.8     27.143     29.475
REMARK  Name = 25338526
REMARK  9 active torsions:
REMARK  status: ('A' for Active; 'I' for Inactive)
REMARK    1  A    between atoms: N_3  and  C_12
REMARK    2  A    between atoms: N_4  and  C_7
REMARK    3  A    between atoms: C_8  and  C_11
REMARK    4  A    between atoms: C_13  and  C_14
REMARK    5  A    between atoms: C_13  and  C_16
REMARK    6  A    between atoms: C_13  and  C_17
REMARK    7  A    between atoms: C_13  and  C_18
REMARK    8  A    between atoms: C_14  and  C_15
REMARK    9  A    between atoms: C_19  and  C_20
REMARK                            x       y       z     vdW  Elec       q    Type
REMARK                         _______ _______ _______ _____ _____    ______ ____
ROOT
ATOM      3  N   UNL     1      -4.423 -11.327   9.610  0.00  0.00    -0.293 NA
ATOM      7  C   UNL     1      -4.898  -9.260   8.644  0.00  0.00    +0.089 C 
ATOM      8  C   UNL     1      -3.339 -10.453  10.097  0.00  0.00    +0.147 C 
ATOM      9  C   UNL     1      -3.719  -9.047   9.592  0.00  0.00    +0.052 C 
ATOM     10  C   UNL     1      -4.863 -10.750   8.337  0.00  0.00    +0.107 C 
ATOM     12  C   UNL     1      -4.016 -12.720   9.464  0.00  0.00    +0.105 C 
ENDROOT
BRANCH   8  11
ATOM      1  O   UNL     1      -1.870 -10.506  12.049  0.00  0.00    -0.336 OA
ATOM      5  N   UNL     1      -4.053 -10.542  12.545  0.00  0.00    -0.190 NA
ATOM      6  N   UNL     1      -1.951 -10.555  13.446  0.00  0.00    -0.056 NA
ATOM     11  C   UNL     1      -3.151 -10.502  11.598  0.00  0.00    +0.245 A 
ATOM     19  C   UNL     1      -3.268 -10.573  13.662  0.00  0.00    +0.202 A 
BRANCH  19  20
ATOM     20  C   UNL     1      -3.834 -10.622  14.979  0.00  0.00    +0.023 A 
ATOM     21  C   UNL     1      -5.140 -10.181  15.193  0.00  0.00    +0.020 A 
ATOM     22  C   UNL     1      -3.081 -11.109  16.043  0.00  0.00    +0.012 A 
ATOM     23  C   UNL     1      -5.710 -10.222  16.477  0.00  0.00    -0.017 A 
ATOM     24  C   UNL     1      -4.943 -10.718  17.559  0.00  0.00    -0.018 A 
ATOM     25  C   UNL     1      -3.629 -11.158  17.324  0.00  0.00    +0.009 A 
ATOM     26  C   UNL     1      -7.022  -9.781  16.711  0.00  0.00    +0.008 A 
ATOM     27  C   UNL     1      -5.511 -10.759  18.842  0.00  0.00    +0.008 A 
ATOM     28  C   UNL     1      -7.571  -9.830  17.993  0.00  0.00    +0.001 A 
ATOM     29  C   UNL     1      -6.817 -10.317  19.056  0.00  0.00    +0.001 A 
ENDBRANCH  19  20
ENDBRANCH   8  11
BRANCH   7   4
ATOM      2  O   UNL     1      -7.362  -8.538   7.303  0.00  0.00    -0.276 OA
ATOM      4  N   UNL     1      -6.149  -8.879   9.256  0.00  0.00    -0.311 N 
ATOM     15  C   UNL     1      -7.281  -8.548   8.529  0.00  0.00    +0.214 C 
ATOM     30  H   UNL     1      -6.180  -8.827  10.270  0.00  0.00    +0.149 HD
BRANCH  15  14
ATOM     14  C   UNL     1      -8.463  -8.175   9.408  0.00  0.00    +0.102 C 
BRANCH  14  13
ATOM     13  C   UNL     1      -9.261  -9.379   9.963  0.00  0.00    -0.029 C 
ATOM     16  C   UNL     1      -8.787  -9.753  11.377  0.00  0.00    +0.011 C 
ATOM     17  C   UNL     1     -10.747  -8.972  10.038  0.00  0.00    +0.011 C 
ATOM     18  C   UNL     1      -9.139 -10.607   9.046  0.00  0.00    +0.011 C 
ENDBRANCH  14  13
ENDBRANCH  15  14
ENDBRANCH   7   4
TORSDOF 5
ENDMDL
MODEL 5
REMARK VINA RESULT:      -6.7      1.483      2.240
REMARK  Name = 25338526
REMARK  9 active torsions:
REMARK  status: ('A' for Active; 'I' for Inactive)
REMARK    1  A    between atoms: N_3  and  C_12
REMARK    2  A    between atoms: N_4  and  C_7
REMARK    3  A    between atoms: C_8  and  C_11
REMARK    4  A    between atoms: C_13  and  C_14
REMARK    5  A    between atoms: C_13  and  C_16
REMARK    6  A    between atoms: C_13  and  C_17
REMARK    7  A    between atoms: C_13  and  C_18
REMARK    8  A    between atoms: C_14  and  C_15
REMARK    9  A    between atoms: C_19  and  C_20
REMARK                            x       y       z     vdW  Elec       q    Type
REMARK                         _______ _______ _______ _____ _____    ______ ____
ROOT
ATOM      3  N   UNL     1      11.649   9.589  22.193  0.00  0.00    -0.293 NA
ATOM      7  C   UNL     1      12.168  11.853  22.009  0.00  0.00    +0.089 C 
ATOM      8  C   UNL     1      12.010   9.752  20.772  0.00  0.00    +0.147 C 
ATOM      9  C   UNL     1      12.502  11.210  20.663  0.00  0.00    +0.052 C 
ATOM     10  C   UNL     1      11.165  10.898  22.638  0.00  0.00    +0.107 C 
ATOM     12  C   UNL     1      10.661   8.539  22.417  0.00  0.00    +0.105 C 
ENDROOT
BRANCH   8  11
ATOM      1  O   UNL     1      12.653   7.917  19.292  0.00  0.00    -0.336 OA
ATOM      5  N   UNL     1      14.269   8.567  20.700  0.00  0.00    -0.190 NA
ATOM      6  N   UNL     1      13.756   7.098  19.024  0.00  0.00    -0.056 NA
ATOM     11  C   UNL     1      13.040   8.753  20.291  0.00  0.00    +0.245 A 
ATOM     19  C   UNL     1      14.669   7.541  19.892  0.00  0.00    +0.202 A 
BRANCH  19  20
ATOM     20  C   UNL     1      15.987   6.984  19.980  0.00  0.00    +0.023 A 
ATOM     21  C   UNL     1      16.822   7.332  21.041  0.00  0.00    +0.020 A 
ATOM     22  C   UNL     1      16.433   6.096  19.005  0.00  0.00    +0.012 A 
ATOM     23  C   UNL     1      18.117   6.795  21.141  0.00  0.00    -0.017 A 
ATOM     24  C   UNL     1      18.570   5.891  20.150  0.00  0.00    -0.018 A 
ATOM     25  C   UNL     1      17.714   5.552  19.088  0.00  0.00    +0.009 A 
ATOM     26  C   UNL     1      18.971   7.135  22.202  0.00  0.00    +0.008 A 
ATOM     27  C   UNL     1      19.863   5.354  20.250  0.00  0.00    +0.008 A 
ATOM     28  C   UNL     1      20.254   6.591  22.286  0.00  0.00    +0.001 A 
ATOM     29  C   UNL     1      20.699   5.703  21.311  0.00  0.00    +0.001 A 
ENDBRANCH  19  20
ENDBRANCH   8  11
BRANCH   7   4
ATOM      2  O   UNL     1      13.184  14.289  23.201  0.00  0.00    -0.276 OA
ATOM      4  N   UNL     1      13.343  12.000  22.835  0.00  0.00    -0.311 N 
ATOM     15  C   UNL     1      13.753  13.212  23.363  0.00  0.00    +0.214 C 
ATOM     30  H   UNL     1      13.904  11.171  23.006  0.00  0.00    +0.149 HD
BRANCH  15  14
ATOM     14  C   UNL     1      15.024  13.101  24.189  0.00  0.00    +0.102 C 
BRANCH  14  13
ATOM     13  C   UNL     1      14.804  13.126  25.721  0.00  0.00    -0.029 C 
ATOM     16  C   UNL     1      13.348  12.782  26.076  0.00  0.00    +0.011 C 
ATOM     17  C   UNL     1      15.725  12.063  26.352  0.00  0.00    +0.011 C 
ATOM     18  C   UNL     1      15.162  14.496  26.319  0.00  0.00    +0.011 C 
ENDBRANCH  14  13
ENDBRANCH  15  14
ENDBRANCH   7   4
TORSDOF 5
ENDMDL
MODEL 6
REMARK VINA RESULT:      -6.5     26.708     29.618
REMARK  Name = 25338526
REMARK  9 active torsions:
REMARK  status: ('A' for Active; 'I' for Inactive)
REMARK    1  A    between atoms: N_3  and  C_12
REMARK    2  A    between atoms: N_4  and  C_7
REMARK    3  A    between atoms: C_8  and  C_11
REMARK    4  A    between atoms: C_13  and  C_14
REMARK    5  A    between atoms: C_13  and  C_16
REMARK    6  A    between atoms: C_13  and  C_17
REMARK    7  A    between atoms: C_13  and  C_18
REMARK    8  A    between atoms: C_14  and  C_15
REMARK    9  A    between atoms: C_19  and  C_20
REMARK                            x       y       z     vdW  Elec       q    Type
REMARK                         _______ _______ _______ _____ _____    ______ ____
ROOT
ATOM      3  N   UNL     1      -2.941 -12.569  13.818  0.00  0.00    -0.293 NA
ATOM      7  C   UNL     1      -2.264 -10.748  12.530  0.00  0.00    +0.089 C 
ATOM      8  C   UNL     1      -2.492 -11.579  14.816  0.00  0.00    +0.147 C 
ATOM      9  C   UNL     1      -2.183 -10.313  13.993  0.00  0.00    +0.052 C 
ATOM     10  C   UNL     1      -2.199 -12.267  12.591  0.00  0.00    +0.107 C 
ATOM     12  C   UNL     1      -2.743 -13.948  14.248  0.00  0.00    +0.105 C 
ENDROOT
BRANCH   8  11
ATOM      1  O   UNL     1      -3.017 -11.254  17.180  0.00  0.00    -0.336 OA
ATOM      5  N   UNL     1      -4.799 -11.168  15.827  0.00  0.00    -0.190 NA
ATOM      6  N   UNL     1      -4.123 -11.020  18.007  0.00  0.00    -0.056 NA
ATOM     11  C   UNL     1      -3.503 -11.327  15.914  0.00  0.00    +0.245 A 
ATOM     19  C   UNL     1      -5.136 -10.982  17.137  0.00  0.00    +0.202 A 
BRANCH  19  20
ATOM     20  C   UNL     1      -6.493 -10.760  17.542  0.00  0.00    +0.023 A 
ATOM     21  C   UNL     1      -7.209  -9.682  17.020  0.00  0.00    +0.020 A 
ATOM     22  C   UNL     1      -7.097 -11.620  18.455  0.00  0.00    +0.012 A 
ATOM     23  C   UNL     1      -8.540  -9.451  17.407  0.00  0.00    -0.017 A 
ATOM     24  C   UNL     1      -9.153 -10.326  18.335  0.00  0.00    -0.018 A 
ATOM     25  C   UNL     1      -8.417 -11.406  18.850  0.00  0.00    +0.009 A 
ATOM     26  C   UNL     1      -9.275  -8.371  16.892  0.00  0.00    +0.008 A 
ATOM     27  C   UNL     1     -10.483 -10.095  18.721  0.00  0.00    +0.008 A 
ATOM     28  C   UNL     1     -10.596  -8.157  17.287  0.00  0.00    +0.001 A 
ATOM     29  C   UNL     1     -11.199  -9.017  18.200  0.00  0.00    +0.001 A 
ENDBRANCH  19  20
ENDBRANCH   8  11
BRANCH   7   4
ATOM      2  O   UNL     1      -2.530  -9.184  10.108  0.00  0.00    -0.276 OA
ATOM      4  N   UNL     1      -3.486 -10.299  11.908  0.00  0.00    -0.311 N 
ATOM     15  C   UNL     1      -3.516  -9.550  10.743  0.00  0.00    +0.214 C 
ATOM     30  H   UNL     1      -4.361 -10.526  12.372  0.00  0.00    +0.149 HD
BRANCH  15  14
ATOM     14  C   UNL     1      -4.925  -9.197  10.299  0.00  0.00    +0.102 C 
BRANCH  14  13
ATOM     13  C   UNL     1      -5.518 -10.135   9.220  0.00  0.00    -0.029 C 
ATOM     16  C   UNL     1      -5.048 -11.585   9.430  0.00  0.00    +0.011 C 
ATOM     17  C   UNL     1      -7.054 -10.097   9.346  0.00  0.00    +0.011 C 
ATOM     18  C   UNL     1      -5.135  -9.678   7.804  0.00  0.00    +0.011 C 
ENDBRANCH  14  13
ENDBRANCH  15  14
ENDBRANCH   7   4
TORSDOF 5
ENDMDL
MODEL 7
REMARK VINA RESULT:      -6.5     27.814     31.009
REMARK  Name = 25338526
REMARK  9 active torsions:
REMARK  status: ('A' for Active; 'I' for Inactive)
REMARK    1  A    between atoms: N_3  and  C_12
REMARK    2  A    between atoms: N_4  and  C_7
REMARK    3  A    between atoms: C_8  and  C_11
REMARK    4  A    between atoms: C_13  and  C_14
REMARK    5  A    between atoms: C_13  and  C_16
REMARK    6  A    between atoms: C_13  and  C_17
REMARK    7  A    between atoms: C_13  and  C_18
REMARK    8  A    between atoms: C_14  and  C_15
REMARK    9  A    between atoms: C_19  and  C_20
REMARK                            x       y       z     vdW  Elec       q    Type
REMARK                         _______ _______ _______ _____ _____    ______ ____
ROOT
ATOM      3  N   UNL     1     -12.253   8.737  34.480  0.00  0.00    -0.293 NA
ATOM      7  C   UNL     1     -13.261  10.203  32.975  0.00  0.00    +0.089 C 
ATOM      8  C   UNL     1     -13.676   8.350  34.512  0.00  0.00    +0.147 C 
ATOM      9  C   UNL     1     -14.334   9.206  33.412  0.00  0.00    +0.052 C 
ATOM     10  C   UNL     1     -12.229  10.150  34.091  0.00  0.00    +0.107 C 
ATOM     12  C   UNL     1     -11.568   8.510  35.748  0.00  0.00    +0.105 C 
ENDROOT
BRANCH   8  11
ATOM      1  O   UNL     1     -13.790   6.080  35.413  0.00  0.00    -0.336 OA
ATOM      5  N   UNL     1     -14.198   6.215  33.215  0.00  0.00    -0.190 NA
ATOM      6  N   UNL     1     -14.038   4.772  34.982  0.00  0.00    -0.056 NA
ATOM     11  C   UNL     1     -13.904   6.867  34.310  0.00  0.00    +0.245 A 
ATOM     19  C   UNL     1     -14.271   4.932  33.677  0.00  0.00    +0.202 A 
BRANCH  19  20
ATOM     20  C   UNL     1     -14.579   3.835  32.807  0.00  0.00    +0.023 A 
ATOM     21  C   UNL     1     -14.898   4.073  31.470  0.00  0.00    +0.020 A 
ATOM     22  C   UNL     1     -14.560   2.532  33.296  0.00  0.00    +0.012 A 
ATOM     23  C   UNL     1     -15.203   3.009  30.604  0.00  0.00    -0.017 A 
ATOM     24  C   UNL     1     -15.183   1.684  31.102  0.00  0.00    -0.018 A 
ATOM     25  C   UNL     1     -14.858   1.463  32.452  0.00  0.00    +0.009 A 
ATOM     26  C   UNL     1     -15.527   3.231  29.256  0.00  0.00    +0.008 A 
ATOM     27  C   UNL     1     -15.487   0.620  30.238  0.00  0.00    +0.008 A 
ATOM     28  C   UNL     1     -15.827   2.161  28.411  0.00  0.00    +0.001 A 
ATOM     29  C   UNL     1     -15.807   0.859  28.901  0.00  0.00    +0.001 A 
ENDBRANCH  19  20
ENDBRANCH   8  11
BRANCH   7   4
ATOM      2  O   UNL     1     -11.985  11.957  31.057  0.00  0.00    -0.276 OA
ATOM      4  N   UNL     1     -12.681   9.837  31.705  0.00  0.00    -0.311 N 
ATOM     15  C   UNL     1     -12.089  10.751  30.849  0.00  0.00    +0.214 C 
ATOM     30  H   UNL     1     -12.740   8.863  31.423  0.00  0.00    +0.149 HD
BRANCH  15  14
ATOM     14  C   UNL     1     -11.562  10.115  29.573  0.00  0.00    +0.102 C 
BRANCH  14  13
ATOM     13  C   UNL     1     -12.137  10.714  28.267  0.00  0.00    -0.029 C 
ATOM     16  C   UNL     1     -11.748  12.195  28.120  0.00  0.00    +0.011 C 
ATOM     17  C   UNL     1     -11.539   9.932  27.081  0.00  0.00    +0.011 C 
ATOM     18  C   UNL     1     -13.667  10.584  28.213  0.00  0.00    +0.011 C 
ENDBRANCH  14  13
ENDBRANCH  15  14
ENDBRANCH   7   4
TORSDOF 5
ENDMDL
MODEL 8
REMARK VINA RESULT:      -6.5     17.566     20.537
REMARK  Name = 25338526
REMARK  9 active torsions:
REMARK  status: ('A' for Active; 'I' for Inactive)
REMARK    1  A    between atoms: N_3  and  C_12
REMARK    2  A    between atoms: N_4  and  C_7
REMARK    3  A    between atoms: C_8  and  C_11
REMARK    4  A    between atoms: C_13  and  C_14
REMARK    5  A    between atoms: C_13  and  C_16
REMARK    6  A    between atoms: C_13  and  C_17
REMARK    7  A    between atoms: C_13  and  C_18
REMARK    8  A    between atoms: C_14  and  C_15
REMARK    9  A    between atoms: C_19  and  C_20
REMARK                            x       y       z     vdW  Elec       q    Type
REMARK                         _______ _______ _______ _____ _____    ______ ____
ROOT
ATOM      3  N   UNL     1      11.325   8.402  -0.473  0.00  0.00    -0.293 NA
ATOM      7  C   UNL     1      11.223   6.534  -1.864  0.00  0.00    +0.089 C 
ATOM      8  C   UNL     1       9.962   7.879  -0.261  0.00  0.00    +0.147 C 
ATOM      9  C   UNL     1       9.926   6.559  -1.056  0.00  0.00    +0.052 C 
ATOM     10  C   UNL     1      11.715   7.973  -1.819  0.00  0.00    +0.107 C 
ATOM     12  C   UNL     1      11.416   9.849  -0.315  0.00  0.00    +0.105 C 
ENDROOT
BRANCH   8  11
ATOM      1  O   UNL     1       8.772   8.613   1.744  0.00  0.00    -0.336 OA
ATOM      5  N   UNL     1       9.990   6.756   2.030  0.00  0.00    -0.190 NA
ATOM      6  N   UNL     1       8.594   8.234   3.079  0.00  0.00    -0.056 NA
ATOM     11  C   UNL     1       9.607   7.690   1.198  0.00  0.00    +0.245 A 
ATOM     19  C   UNL     1       9.343   7.131   3.172  0.00  0.00    +0.202 A 
BRANCH  19  20
ATOM     20  C   UNL     1       9.465   6.382   4.388  0.00  0.00    +0.023 A 
ATOM     21  C   UNL     1       9.133   6.972   5.608  0.00  0.00    +0.020 A 
ATOM     22  C   UNL     1       9.916   5.065   4.352  0.00  0.00    +0.012 A 
ATOM     23  C   UNL     1       9.247   6.251   6.809  0.00  0.00    -0.017 A 
ATOM     24  C   UNL     1       9.705   4.912   6.771  0.00  0.00    -0.018 A 
ATOM     25  C   UNL     1      10.035   4.334   5.533  0.00  0.00    +0.009 A 
ATOM     26  C   UNL     1       8.918   6.829   8.045  0.00  0.00    +0.008 A 
ATOM     27  C   UNL     1       9.819   4.191   7.970  0.00  0.00    +0.008 A 
ATOM     28  C   UNL     1       9.037   6.097   9.227  0.00  0.00    +0.001 A 
ATOM     29  C   UNL     1       9.488   4.781   9.190  0.00  0.00    +0.001 A 
ENDBRANCH  19  20
ENDBRANCH   8  11
BRANCH   7   4
ATOM      2  O   UNL     1      10.777   3.811  -0.986  0.00  0.00    -0.276 OA
ATOM      4  N   UNL     1      12.190   5.630  -1.289  0.00  0.00    -0.311 N 
ATOM     15  C   UNL     1      11.883   4.338  -0.896  0.00  0.00    +0.214 C 
ATOM     30  H   UNL     1      13.133   5.980  -1.143  0.00  0.00    +0.149 HD
BRANCH  15  14
ATOM     14  C   UNL     1      13.073   3.595  -0.313  0.00  0.00    +0.102 C 
BRANCH  14  13
ATOM     13  C   UNL     1      13.308   3.833   1.198  0.00  0.00    -0.029 C 
ATOM     16  C   UNL     1      14.726   3.407   1.612  0.00  0.00    +0.011 C 
ATOM     17  C   UNL     1      13.152   5.342   1.472  0.00  0.00    +0.011 C 
ATOM     18  C   UNL     1      12.280   3.075   2.053  0.00  0.00    +0.011 C 
ENDBRANCH  14  13
ENDBRANCH  15  14
ENDBRANCH   7   4
TORSDOF 5
ENDMDL
MODEL 9
REMARK VINA RESULT:      -6.4     27.170     30.112
REMARK  Name = 25338526
REMARK  9 active torsions:
REMARK  status: ('A' for Active; 'I' for Inactive)
REMARK    1  A    between atoms: N_3  and  C_12
REMARK    2  A    between atoms: N_4  and  C_7
REMARK    3  A    between atoms: C_8  and  C_11
REMARK    4  A    between atoms: C_13  and  C_14
REMARK    5  A    between atoms: C_13  and  C_16
REMARK    6  A    between atoms: C_13  and  C_17
REMARK    7  A    between atoms: C_13  and  C_18
REMARK    8  A    between atoms: C_14  and  C_15
REMARK    9  A    between atoms: C_19  and  C_20
REMARK                            x       y       z     vdW  Elec       q    Type
REMARK                         _______ _______ _______ _____ _____    ______ ____
ROOT
ATOM      3  N   UNL     1      -4.560 -12.665  15.611  0.00  0.00    -0.293 NA
ATOM      7  C   UNL     1      -2.909 -11.307  14.684  0.00  0.00    +0.089 C 
ATOM      8  C   UNL     1      -4.305 -11.657  16.657  0.00  0.00    +0.147 C 
ATOM      9  C   UNL     1      -3.326 -10.661  16.005  0.00  0.00    +0.052 C 
ATOM     10  C   UNL     1      -3.320 -12.763  14.837  0.00  0.00    +0.107 C 
ATOM     12  C   UNL     1      -4.971 -13.958  16.147  0.00  0.00    +0.105 C 
ENDROOT
BRANCH   8  11
ATOM      1  O   UNL     1      -5.568 -10.634  18.482  0.00  0.00    -0.336 OA
ATOM      5  N   UNL     1      -6.664 -10.691  16.530  0.00  0.00    -0.190 NA
ATOM      6  N   UNL     1      -6.815 -10.043  18.718  0.00  0.00    -0.056 NA
ATOM     11  C   UNL     1      -5.561 -10.987  17.170  0.00  0.00    +0.245 A 
ATOM     19  C   UNL     1      -7.404 -10.114  17.522  0.00  0.00    +0.202 A 
BRANCH  19  20
ATOM     20  C   UNL     1      -8.727  -9.616  17.281  0.00  0.00    +0.023 A 
ATOM     21  C   UNL     1      -8.905  -8.367  16.686  0.00  0.00    +0.020 A 
ATOM     22  C   UNL     1      -9.834 -10.380  17.642  0.00  0.00    +0.012 A 
ATOM     23  C   UNL     1     -10.195  -7.865  16.443  0.00  0.00    -0.017 A 
ATOM     24  C   UNL     1     -11.320  -8.642  16.810  0.00  0.00    -0.018 A 
ATOM     25  C   UNL     1     -11.121  -9.898  17.409  0.00  0.00    +0.009 A 
ATOM     26  C   UNL     1     -10.393  -6.611  15.846  0.00  0.00    +0.008 A 
ATOM     27  C   UNL     1     -12.609  -8.142  16.568  0.00  0.00    +0.008 A 
ATOM     28  C   UNL     1     -11.681  -6.128  15.612  0.00  0.00    +0.001 A 
ATOM     29  C   UNL     1     -12.787  -6.892  15.973  0.00  0.00    +0.001 A 
ENDBRANCH  19  20
ENDBRANCH   8  11
BRANCH   7   4
ATOM      2  O   UNL     1      -1.741 -10.613  12.126  0.00  0.00    -0.276 OA
ATOM      4  N   UNL     1      -3.570 -10.690  13.558  0.00  0.00    -0.311 N 
ATOM     15  C   UNL     1      -2.926 -10.394  12.368  0.00  0.00    +0.214 C 
ATOM     30  H   UNL     1      -4.549 -10.440  13.666  0.00  0.00    +0.149 HD
BRANCH  15  14
ATOM     14  C   UNL     1      -3.840  -9.740  11.345  0.00  0.00    +0.102 C 
BRANCH  14  13
ATOM     13  C   UNL     1      -4.487 -10.720  10.337  0.00  0.00    -0.029 C 
ATOM     16  C   UNL     1      -5.964 -10.975  10.683  0.00  0.00    +0.011 C 
ATOM     17  C   UNL     1      -4.418 -10.078   8.937  0.00  0.00    +0.011 C 
ATOM     18  C   UNL     1      -3.737 -12.061  10.294  0.00  0.00    +0.011 C 
ENDBRANCH  14  13
ENDBRANCH  15  14
ENDBRANCH   7   4
TORSDOF 5
ENDMDL
MODEL 10
REMARK VINA RESULT:      -6.4     10.336     12.581
REMARK  Name = 25338526
REMARK  9 active torsions:
REMARK  status: ('A' for Active; 'I' for Inactive)
REMARK    1  A    between atoms: N_3  and  C_12
REMARK    2  A    between atoms: N_4  and  C_7
REMARK    3  A    between atoms: C_8  and  C_11
REMARK    4  A    between atoms: C_13  and  C_14
REMARK    5  A    between atoms: C_13  and  C_16
REMARK    6  A    between atoms: C_13  and  C_17
REMARK    7  A    between atoms: C_13  and  C_18
REMARK    8  A    between atoms: C_14  and  C_15
REMARK    9  A    between atoms: C_19  and  C_20
REMARK                            x       y       z     vdW  Elec       q    Type
REMARK                         _______ _______ _______ _____ _____    ______ ____
ROOT
ATOM      3  N   UNL     1      20.952  -0.900  28.006  0.00  0.00    -0.293 NA
ATOM      7  C   UNL     1      19.683  -2.715  27.279  0.00  0.00    +0.089 C 
ATOM      8  C   UNL     1      21.912  -1.716  27.239  0.00  0.00    +0.147 C 
ATOM      9  C   UNL     1      21.058  -2.842  26.624  0.00  0.00    +0.052 C 
ATOM     10  C   UNL     1      19.931  -1.833  28.493  0.00  0.00    +0.107 C 
ATOM     12  C   UNL     1      21.573  -0.156  29.096  0.00  0.00    +0.105 C 
ENDROOT
BRANCH   8  11
ATOM      1  O   UNL     1      23.972  -1.287  25.996  0.00  0.00    -0.336 OA
ATOM      5  N   UNL     1      22.272   0.063  25.445  0.00  0.00    -0.190 NA
ATOM      6  N   UNL     1      24.461  -0.430  25.003  0.00  0.00    -0.056 NA
ATOM     11  C   UNL     1      22.676  -0.929  26.197  0.00  0.00    +0.245 A 
ATOM     19  C   UNL     1      23.402   0.336  24.729  0.00  0.00    +0.202 A 
BRANCH  19  20
ATOM     20  C   UNL     1      23.437   1.381  23.748  0.00  0.00    +0.023 A 
ATOM     21  C   UNL     1      24.304   1.286  22.659  0.00  0.00    +0.020 A 
ATOM     22  C   UNL     1      22.606   2.490  23.881  0.00  0.00    +0.012 A 
ATOM     23  C   UNL     1      24.351   2.301  21.688  0.00  0.00    -0.017 A 
ATOM     24  C   UNL     1      23.505   3.427  21.824  0.00  0.00    -0.018 A 
ATOM     25  C   UNL     1      22.638   3.506  22.927  0.00  0.00    +0.009 A 
ATOM     26  C   UNL     1      25.218   2.222  20.587  0.00  0.00    +0.008 A 
ATOM     27  C   UNL     1      23.551   4.442  20.854  0.00  0.00    +0.008 A 
ATOM     28  C   UNL     1      25.251   3.239  19.632  0.00  0.00    +0.001 A 
ATOM     29  C   UNL     1      24.419   4.347  19.766  0.00  0.00    +0.001 A 
ENDBRANCH  19  20
ENDBRANCH   8  11
BRANCH   7   4
ATOM      2  O   UNL     1      17.389  -3.996  26.063  0.00  0.00    -0.276 OA
ATOM      4  N   UNL     1      18.720  -2.119  26.385  0.00  0.00    -0.311 N 
ATOM     15  C   UNL     1      17.649  -2.814  25.849  0.00  0.00    +0.214 C 
ATOM     30  H   UNL     1      18.862  -1.149  26.119  0.00  0.00    +0.149 HD
BRANCH  15  14
ATOM     14  C   UNL     1      16.788  -1.964  24.930  0.00  0.00    +0.102 C 
BRANCH  14  13
ATOM     13  C   UNL     1      16.958  -2.266  23.422  0.00  0.00    -0.029 C 
ATOM     16  C   UNL     1      15.863  -3.222  22.921  0.00  0.00    +0.011 C 
ATOM     17  C   UNL     1      16.834  -0.935  22.652  0.00  0.00    +0.011 C 
ATOM     18  C   UNL     1      18.338  -2.874  23.121  0.00  0.00    +0.011 C 
ENDBRANCH  14  13
ENDBRANCH  15  14
ENDBRANCH   7   4
TORSDOF 5
ENDMDL
