REMARK  Name = 11943018
REMARK  4 active torsions:
REMARK  status: ('A' for Active; 'I' for Inactive)
REMARK    1  A    between atoms: N_4  and  C_11
REMARK    2  A    between atoms: N_5  and  C_12
REMARK    3  A    between atoms: N_8  and  C_25
REMARK    4  A    between atoms: C_15  and  C_21
REMARK                            x       y       z     vdW  Elec       q    Type
REMARK                         _______ _______ _______ _____ _____    ______ ____
ROOT
ATOM      1  O   UNL     1       0.014   3.039   1.056  0.00  0.00    -0.370 OA
ATOM      2  O   UNL     1      -0.670   1.528  -1.587  0.00  0.00    -0.370 OA
ATOM      9  C   UNL     1      -0.731   1.160  -0.199  0.00  0.00    +0.171 C 
ATOM     10  C   UNL     1       0.461   1.797   0.488  0.00  0.00    +0.171 C 
ATOM     11  C   UNL     1      -1.926   1.804   0.462  0.00  0.00    +0.130 C 
ATOM     12  C   UNL     1       1.439   2.054  -0.635  0.00  0.00    +0.131 C 
ATOM     13  C   UNL     1      -1.399   3.175   0.841  0.00  0.00    +0.185 C 
ATOM     14  C   UNL     1       0.519   2.299  -1.818  0.00  0.00    +0.185 C 
ENDROOT
BRANCH  11   4
ATOM      4  N   UNL     1      -2.293   1.064   1.650  0.00  0.00    -0.306 N 
ATOM      6  N   UNL     1      -3.601  -0.457   0.431  0.00  0.00    -0.219 NA
ATOM      7  N   UNL     1      -3.381  -0.653   2.823  0.00  0.00    -0.223 NA
ATOM     20  C   UNL     1      -3.117  -0.048   1.634  0.00  0.00    +0.216 A 
ATOM     21  C   UNL     1      -4.400  -1.544   0.453  0.00  0.00    +0.049 A 
ATOM     23  C   UNL     1      -4.730  -2.230   1.604  0.00  0.00    +0.043 A 
ATOM     24  C   UNL     1      -4.187  -1.734   2.772  0.00  0.00    +0.116 A 
ATOM     31  H   UNL     1      -1.896   1.327   2.544  0.00  0.00    +0.149 HD
BRANCH  21  15
ATOM     15  C   UNL     1      -4.950  -2.014  -0.882  0.00  0.00    +0.038 C 
ATOM     16  C   UNL     1      -6.296  -1.357  -1.208  0.00  0.00    +0.010 C 
ATOM     17  C   UNL     1      -4.117  -1.694  -2.131  0.00  0.00    +0.010 C 
ATOM     18  C   UNL     1      -5.920  -0.054  -1.900  0.00  0.00    +0.001 C 
ATOM     19  C   UNL     1      -4.647  -0.367  -2.680  0.00  0.00    +0.001 C 
ENDBRANCH  21  15
ENDBRANCH  11   4
BRANCH  12   5
ATOM      3  O   UNL     1       4.049   1.615   0.461  0.00  0.00    -0.252 OA
ATOM      5  N   UNL     1       2.288   0.910  -0.861  0.00  0.00    -0.292 N 
ATOM      8  N   UNL     1       4.143  -0.434  -0.682  0.00  0.00    -0.269 N 
ATOM     22  C   UNL     1       3.557   0.771  -0.285  0.00  0.00    +0.304 C 
ATOM     32  H   UNL     1       1.923   0.139  -1.412  0.00  0.00    +0.151 HD
ATOM     33  H   UNL     1       3.597  -1.021  -1.308  0.00  0.00    +0.156 HD
BRANCH   8  25
ATOM     25  C   UNL     1       5.412  -0.943  -0.320  0.00  0.00    +0.035 A 
ATOM     26  C   UNL     1       5.820  -2.167  -0.823  0.00  0.00    +0.023 A 
ATOM     27  C   UNL     1       6.222  -0.205   0.529  0.00  0.00    +0.023 A 
ATOM     28  C   UNL     1       7.072  -2.669  -0.467  0.00  0.00    +0.002 A 
ATOM     29  C   UNL     1       7.473  -0.708   0.885  0.00  0.00    +0.002 A 
ATOM     30  C   UNL     1       7.898  -1.939   0.387  0.00  0.00    +0.000 A 
ENDBRANCH   8  25
ENDBRANCH  12   5
TORSDOF 4
