MODEL 1
REMARK VINA RESULT:      -5.8      0.000      0.000
REMARK  Name = 75367676
REMARK  4 active torsions:
REMARK  status: ('A' for Active; 'I' for Inactive)
REMARK    1  A    between atoms: O_2  and  C_6
REMARK    2  A    between atoms: O_2  and  C_12
REMARK    3  A    between atoms: N_5  and  C_13
REMARK    4  A    between atoms: C_13  and  C_16
REMARK                            x       y       z     vdW  Elec       q    Type
REMARK                         _______ _______ _______ _____ _____    ______ ____
ROOT
ATOM      1  O   UNL     1      10.689   7.598  20.524  0.00  0.00    -0.375 OA
ATOM      3  O   UNL     1      12.786  11.814  22.771  0.00  0.00    -0.253 OA
ATOM      4  N   UNL     1      11.765   9.745  22.434  0.00  0.00    -0.280 N 
ATOM      5  N   UNL     1      10.617  11.529  23.485  0.00  0.00    -0.300 N 
ATOM      6  C   UNL     1      12.722   8.966  20.274  0.00  0.00    +0.216 C 
ATOM      7  C   UNL     1      12.954   9.207  21.765  0.00  0.00    +0.156 C 
ATOM      8  C   UNL     1      10.582   8.883  22.578  0.00  0.00    +0.137 C 
ATOM      9  C   UNL     1      12.004   7.651  19.985  0.00  0.00    +0.206 C 
ATOM     10  C   UNL     1      10.659   7.500  21.944  0.00  0.00    +0.179 C 
ATOM     11  C   UNL     1      11.796  11.086  22.888  0.00  0.00    +0.302 C 
ATOM     20  H   UNL     1       9.825  10.905  23.579  0.00  0.00    +0.150 HD
ENDROOT
BRANCH   5  13
ATOM     13  C   UNL     1      10.448  12.866  24.013  0.00  0.00    +0.102 C 
ATOM     16  C   UNL     1      10.745  12.918  25.496  0.00  0.00    +0.024 C 
ENDBRANCH   5  13
BRANCH   6   2
ATOM      2  O   UNL     1      13.996   8.936  19.633  0.00  0.00    -0.485 OA
BRANCH   2  12
ATOM     12  C   UNL     1      14.046   9.400  18.347  0.00  0.00    +0.121 A 
ATOM     14  C   UNL     1      14.113  10.771  18.102  0.00  0.00    +0.045 A 
ATOM     15  C   UNL     1      14.029   8.502  17.280  0.00  0.00    +0.045 A 
ATOM     17  C   UNL     1      14.164  11.244  16.791  0.00  0.00    +0.004 A 
ATOM     18  C   UNL     1      14.081   8.974  15.969  0.00  0.00    +0.004 A 
ATOM     19  C   UNL     1      14.147  10.346  15.725  0.00  0.00    +0.000 A 
ENDBRANCH   2  12
ENDBRANCH   6   2
TORSDOF 3
ENDMDL
MODEL 2
REMARK VINA RESULT:      -5.7      2.904      6.395
REMARK  Name = 75367676
REMARK  4 active torsions:
REMARK  status: ('A' for Active; 'I' for Inactive)
REMARK    1  A    between atoms: O_2  and  C_6
REMARK    2  A    between atoms: O_2  and  C_12
REMARK    3  A    between atoms: N_5  and  C_13
REMARK    4  A    between atoms: C_13  and  C_16
REMARK                            x       y       z     vdW  Elec       q    Type
REMARK                         _______ _______ _______ _____ _____    ______ ____
ROOT
ATOM      1  O   UNL     1      10.559   7.845  22.581  0.00  0.00    -0.375 OA
ATOM      3  O   UNL     1      15.288   9.039  20.728  0.00  0.00    -0.253 OA
ATOM      4  N   UNL     1      13.190   8.064  21.017  0.00  0.00    -0.280 N 
ATOM      5  N   UNL     1      15.179   6.800  21.244  0.00  0.00    -0.300 N 
ATOM      6  C   UNL     1      11.837   9.881  22.042  0.00  0.00    +0.216 C 
ATOM      7  C   UNL     1      12.505   9.338  20.780  0.00  0.00    +0.156 C 
ATOM      8  C   UNL     1      12.384   6.870  21.316  0.00  0.00    +0.137 C 
ATOM      9  C   UNL     1      10.480   9.241  22.323  0.00  0.00    +0.206 C 
ATOM     10  C   UNL     1      10.878   7.070  21.430  0.00  0.00    +0.179 C 
ATOM     11  C   UNL     1      14.606   8.042  20.978  0.00  0.00    +0.302 C 
ATOM     20  H   UNL     1      14.594   5.995  21.433  0.00  0.00    +0.150 HD
ENDROOT
BRANCH   5  13
ATOM     13  C   UNL     1      16.608   6.570  21.252  0.00  0.00    +0.102 C 
ATOM     16  C   UNL     1      17.133   6.291  19.860  0.00  0.00    +0.024 C 
ENDBRANCH   5  13
BRANCH   6   2
ATOM      2  O   UNL     1      11.647  11.284  21.867  0.00  0.00    -0.485 OA
BRANCH   2  12
ATOM     12  C   UNL     1      11.285  11.997  22.977  0.00  0.00    +0.121 A 
ATOM     14  C   UNL     1      10.509  13.149  22.844  0.00  0.00    +0.045 A 
ATOM     15  C   UNL     1      11.693  11.574  24.241  0.00  0.00    +0.045 A 
ATOM     17  C   UNL     1      10.141  13.876  23.976  0.00  0.00    +0.004 A 
ATOM     18  C   UNL     1      11.323  12.300  25.374  0.00  0.00    +0.004 A 
ATOM     19  C   UNL     1      10.549  13.451  25.240  0.00  0.00    +0.000 A 
ENDBRANCH   2  12
ENDBRANCH   6   2
TORSDOF 3
ENDMDL
MODEL 3
REMARK VINA RESULT:      -5.6     23.128     24.855
REMARK  Name = 75367676
REMARK  4 active torsions:
REMARK  status: ('A' for Active; 'I' for Inactive)
REMARK    1  A    between atoms: O_2  and  C_6
REMARK    2  A    between atoms: O_2  and  C_12
REMARK    3  A    between atoms: N_5  and  C_13
REMARK    4  A    between atoms: C_13  and  C_16
REMARK                            x       y       z     vdW  Elec       q    Type
REMARK                         _______ _______ _______ _____ _____    ______ ____
ROOT
ATOM      1  O   UNL     1     -11.762  12.650  17.573  0.00  0.00    -0.375 OA
ATOM      3  O   UNL     1     -10.320   7.747  16.521  0.00  0.00    -0.253 OA
ATOM      4  N   UNL     1     -10.422  10.076  16.576  0.00  0.00    -0.280 N 
ATOM      5  N   UNL     1     -10.789   8.874  14.571  0.00  0.00    -0.300 N 
ATOM      6  C   UNL     1     -11.362  10.567  18.826  0.00  0.00    +0.216 C 
ATOM      7  C   UNL     1     -10.150  10.108  18.017  0.00  0.00    +0.156 C 
ATOM      8  C   UNL     1     -10.634  11.347  15.867  0.00  0.00    +0.137 C 
ATOM      9  C   UNL     1     -11.522  12.085  18.855  0.00  0.00    +0.206 C 
ATOM     10  C   UNL     1     -10.628  12.614  16.713  0.00  0.00    +0.179 C 
ATOM     11  C   UNL     1     -10.498   8.817  15.932  0.00  0.00    +0.302 C 
ATOM     20  H   UNL     1     -10.916   9.767  14.110  0.00  0.00    +0.150 HD
ENDROOT
BRANCH   5  13
ATOM     13  C   UNL     1     -10.909   7.698  13.735  0.00  0.00    +0.102 C 
ATOM     16  C   UNL     1      -9.883   7.700  12.623  0.00  0.00    +0.024 C 
ENDBRANCH   5  13
BRANCH   6   2
ATOM      2  O   UNL     1     -11.195  10.104  20.165  0.00  0.00    -0.485 OA
BRANCH   2  12
ATOM     12  C   UNL     1     -11.917   9.000  20.526  0.00  0.00    +0.121 A 
ATOM     14  C   UNL     1     -13.236   9.138  20.959  0.00  0.00    +0.045 A 
ATOM     15  C   UNL     1     -11.334   7.734  20.463  0.00  0.00    +0.045 A 
ATOM     17  C   UNL     1     -13.971   8.012  21.327  0.00  0.00    +0.004 A 
ATOM     18  C   UNL     1     -12.069   6.608  20.831  0.00  0.00    +0.004 A 
ATOM     19  C   UNL     1     -13.387   6.747  21.263  0.00  0.00    +0.000 A 
ENDBRANCH   2  12
ENDBRANCH   6   2
TORSDOF 3
ENDMDL
MODEL 4
REMARK VINA RESULT:      -5.6     14.025     17.085
REMARK  Name = 75367676
REMARK  4 active torsions:
REMARK  status: ('A' for Active; 'I' for Inactive)
REMARK    1  A    between atoms: O_2  and  C_6
REMARK    2  A    between atoms: O_2  and  C_12
REMARK    3  A    between atoms: N_5  and  C_13
REMARK    4  A    between atoms: C_13  and  C_16
REMARK                            x       y       z     vdW  Elec       q    Type
REMARK                         _______ _______ _______ _____ _____    ______ ____
ROOT
ATOM      1  O   UNL     1      11.154   9.018   4.622  0.00  0.00    -0.375 OA
ATOM      3  O   UNL     1       9.781   4.091   5.650  0.00  0.00    -0.253 OA
ATOM      4  N   UNL     1       9.769   6.416   5.473  0.00  0.00    -0.280 N 
ATOM      5  N   UNL     1       9.762   5.341   7.582  0.00  0.00    -0.300 N 
ATOM      6  C   UNL     1      11.142   6.854   3.445  0.00  0.00    +0.216 C 
ATOM      7  C   UNL     1       9.811   6.358   4.008  0.00  0.00    +0.156 C 
ATOM      8  C   UNL     1       9.758   7.732   6.130  0.00  0.00    +0.137 C 
ATOM      9  C   UNL     1      11.224   8.376   3.356  0.00  0.00    +0.206 C 
ATOM     10  C   UNL     1       9.866   8.952   5.225  0.00  0.00    +0.179 C 
ATOM     11  C   UNL     1       9.772   5.198   6.196  0.00  0.00    +0.302 C 
ATOM     20  H   UNL     1       9.741   6.262   8.002  0.00  0.00    +0.150 HD
ENDROOT
BRANCH   5  13
ATOM     13  C   UNL     1       9.762   4.218   8.495  0.00  0.00    +0.102 C 
ATOM     16  C   UNL     1       9.267   4.619   9.868  0.00  0.00    +0.024 C 
ENDBRANCH   5  13
BRANCH   6   2
ATOM      2  O   UNL     1      11.290   6.316   2.132  0.00  0.00    -0.485 OA
BRANCH   2  12
ATOM     12  C   UNL     1      12.288   5.398   1.955  0.00  0.00    +0.121 A 
ATOM     14  C   UNL     1      11.980   4.041   1.856  0.00  0.00    +0.045 A 
ATOM     15  C   UNL     1      13.616   5.818   1.875  0.00  0.00    +0.045 A 
ATOM     17  C   UNL     1      12.998   3.106   1.676  0.00  0.00    +0.004 A 
ATOM     18  C   UNL     1      14.634   4.883   1.694  0.00  0.00    +0.004 A 
ATOM     19  C   UNL     1      14.325   3.527   1.595  0.00  0.00    +0.000 A 
ENDBRANCH   2  12
ENDBRANCH   6   2
TORSDOF 3
ENDMDL
MODEL 5
REMARK VINA RESULT:      -5.6     14.085     17.172
REMARK  Name = 75367676
REMARK  4 active torsions:
REMARK  status: ('A' for Active; 'I' for Inactive)
REMARK    1  A    between atoms: O_2  and  C_6
REMARK    2  A    between atoms: O_2  and  C_12
REMARK    3  A    between atoms: N_5  and  C_13
REMARK    4  A    between atoms: C_13  and  C_16
REMARK                            x       y       z     vdW  Elec       q    Type
REMARK                         _______ _______ _______ _____ _____    ______ ____
ROOT
ATOM      1  O   UNL     1      13.862   7.404   4.975  0.00  0.00    -0.375 OA
ATOM      3  O   UNL     1       9.366   4.925   5.901  0.00  0.00    -0.253 OA
ATOM      4  N   UNL     1      11.112   6.469   5.964  0.00  0.00    -0.280 N 
ATOM      5  N   UNL     1      10.567   5.148   7.851  0.00  0.00    -0.300 N 
ATOM      6  C   UNL     1      12.044   6.392   3.659  0.00  0.00    +0.216 C 
ATOM      7  C   UNL     1      10.900   6.847   4.563  0.00  0.00    +0.156 C 
ATOM      8  C   UNL     1      12.199   7.116   6.716  0.00  0.00    +0.137 C 
ATOM      9  C   UNL     1      13.247   7.331   3.696  0.00  0.00    +0.206 C 
ATOM     10  C   UNL     1      13.080   8.091   5.946  0.00  0.00    +0.179 C 
ATOM     11  C   UNL     1      10.279   5.471   6.526  0.00  0.00    +0.302 C 
ATOM     20  H   UNL     1      11.313   5.622   8.344  0.00  0.00    +0.150 HD
ENDROOT
BRANCH   5  13
ATOM     13  C   UNL     1       9.830   4.154   8.603  0.00  0.00    +0.102 C 
ATOM     16  C   UNL     1       9.208   4.750   9.848  0.00  0.00    +0.024 C 
ENDBRANCH   5  13
BRANCH   6   2
ATOM      2  O   UNL     1      11.550   6.343   2.321  0.00  0.00    -0.485 OA
BRANCH   2  12
ATOM     12  C   UNL     1      12.089   5.387   1.503  0.00  0.00    +0.121 A 
ATOM     14  C   UNL     1      12.334   4.106   1.996  0.00  0.00    +0.045 A 
ATOM     15  C   UNL     1      12.394   5.694   0.178  0.00  0.00    +0.045 A 
ATOM     17  C   UNL     1      12.884   3.131   1.163  0.00  0.00    +0.004 A 
ATOM     18  C   UNL     1      12.942   4.720  -0.656  0.00  0.00    +0.004 A 
ATOM     19  C   UNL     1      13.188   3.439  -0.162  0.00  0.00    +0.000 A 
ENDBRANCH   2  12
ENDBRANCH   6   2
TORSDOF 3
ENDMDL
MODEL 6
REMARK VINA RESULT:      -5.4     25.970     28.787
REMARK  Name = 75367676
REMARK  4 active torsions:
REMARK  status: ('A' for Active; 'I' for Inactive)
REMARK    1  A    between atoms: O_2  and  C_6
REMARK    2  A    between atoms: O_2  and  C_12
REMARK    3  A    between atoms: N_5  and  C_13
REMARK    4  A    between atoms: C_13  and  C_16
REMARK                            x       y       z     vdW  Elec       q    Type
REMARK                         _______ _______ _______ _____ _____    ______ ____
ROOT
ATOM      1  O   UNL     1      -6.395 -10.493  19.963  0.00  0.00    -0.375 OA
ATOM      3  O   UNL     1      -4.796 -11.850  15.186  0.00  0.00    -0.253 OA
ATOM      4  N   UNL     1      -5.108 -11.785  17.496  0.00  0.00    -0.280 N 
ATOM      5  N   UNL     1      -2.986 -11.384  16.528  0.00  0.00    -0.300 N 
ATOM      6  C   UNL     1      -7.407 -10.870  17.749  0.00  0.00    +0.216 C 
ATOM      7  C   UNL     1      -6.541 -12.068  17.364  0.00  0.00    +0.156 C 
ATOM      8  C   UNL     1      -4.546 -11.588  18.841  0.00  0.00    +0.137 C 
ATOM      9  C   UNL     1      -7.605 -10.734  19.257  0.00  0.00    +0.206 C 
ATOM     10  C   UNL     1      -5.526 -11.619  20.006  0.00  0.00    +0.179 C 
ATOM     11  C   UNL     1      -4.330 -11.685  16.317  0.00  0.00    +0.302 C 
ATOM     20  H   UNL     1      -2.628 -11.267  17.468  0.00  0.00    +0.150 HD
ENDROOT
BRANCH   5  13
ATOM     13  C   UNL     1      -2.027 -11.239  15.453  0.00  0.00    +0.102 C 
ATOM     16  C   UNL     1      -1.097 -10.070  15.693  0.00  0.00    +0.024 C 
ENDBRANCH   5  13
BRANCH   6   2
ATOM      2  O   UNL     1      -8.685 -11.040  17.139  0.00  0.00    -0.485 OA
BRANCH   2  12
ATOM     12  C   UNL     1      -9.484  -9.931  17.070  0.00  0.00    +0.121 A 
ATOM     14  C   UNL     1      -9.005  -8.762  16.479  0.00  0.00    +0.045 A 
ATOM     15  C   UNL     1     -10.776  -9.969  17.592  0.00  0.00    +0.045 A 
ATOM     17  C   UNL     1      -9.819  -7.632  16.409  0.00  0.00    +0.004 A 
ATOM     18  C   UNL     1     -11.591  -8.839  17.522  0.00  0.00    +0.004 A 
ATOM     19  C   UNL     1     -11.112  -7.671  16.931  0.00  0.00    +0.000 A 
ENDBRANCH   2  12
ENDBRANCH   6   2
TORSDOF 3
ENDMDL
MODEL 7
REMARK VINA RESULT:      -5.2     13.113     15.516
REMARK  Name = 75367676
REMARK  4 active torsions:
REMARK  status: ('A' for Active; 'I' for Inactive)
REMARK    1  A    between atoms: O_2  and  C_6
REMARK    2  A    between atoms: O_2  and  C_12
REMARK    3  A    between atoms: N_5  and  C_13
REMARK    4  A    between atoms: C_13  and  C_16
REMARK                            x       y       z     vdW  Elec       q    Type
REMARK                         _______ _______ _______ _____ _____    ______ ____
ROOT
ATOM      1  O   UNL     1      14.184   7.293   5.285  0.00  0.00    -0.375 OA
ATOM      3  O   UNL     1       9.461   6.857   7.458  0.00  0.00    -0.253 OA
ATOM      4  N   UNL     1      11.765   7.048   7.156  0.00  0.00    -0.280 N 
ATOM      5  N   UNL     1      10.805   5.111   8.121  0.00  0.00    -0.300 N 
ATOM      6  C   UNL     1      11.972   8.351   5.048  0.00  0.00    +0.216 C 
ATOM      7  C   UNL     1      11.628   8.370   6.536  0.00  0.00    +0.156 C 
ATOM      8  C   UNL     1      13.109   6.466   7.295  0.00  0.00    +0.137 C 
ATOM      9  C   UNL     1      13.474   8.416   4.779  0.00  0.00    +0.206 C 
ATOM     10  C   UNL     1      14.266   7.262   6.706  0.00  0.00    +0.179 C 
ATOM     11  C   UNL     1      10.591   6.373   7.570  0.00  0.00    +0.302 C 
ATOM     20  H   UNL     1      11.745   4.745   8.214  0.00  0.00    +0.150 HD
ENDROOT
BRANCH   5  13
ATOM     13  C   UNL     1       9.735   4.264   8.604  0.00  0.00    +0.102 C 
ATOM     16  C   UNL     1       9.357   4.606  10.029  0.00  0.00    +0.024 C 
ENDBRANCH   5  13
BRANCH   6   2
ATOM      2  O   UNL     1      11.356   9.486   4.442  0.00  0.00    -0.485 OA
BRANCH   2  12
ATOM     12  C   UNL     1      10.023   9.378   4.155  0.00  0.00    +0.121 A 
ATOM     14  C   UNL     1       9.136  10.371   4.574  0.00  0.00    +0.045 A 
ATOM     15  C   UNL     1       9.548   8.276   3.444  0.00  0.00    +0.045 A 
ATOM     17  C   UNL     1       7.777  10.261   4.282  0.00  0.00    +0.004 A 
ATOM     18  C   UNL     1       8.189   8.167   3.150  0.00  0.00    +0.004 A 
ATOM     19  C   UNL     1       7.304   9.159   3.570  0.00  0.00    +0.000 A 
ENDBRANCH   2  12
ENDBRANCH   6   2
TORSDOF 3
ENDMDL
MODEL 8
REMARK VINA RESULT:      -5.1     27.017     27.791
REMARK  Name = 75367676
REMARK  4 active torsions:
REMARK  status: ('A' for Active; 'I' for Inactive)
REMARK    1  A    between atoms: O_2  and  C_6
REMARK    2  A    between atoms: O_2  and  C_12
REMARK    3  A    between atoms: N_5  and  C_13
REMARK    4  A    between atoms: C_13  and  C_16
REMARK                            x       y       z     vdW  Elec       q    Type
REMARK                         _______ _______ _______ _____ _____    ______ ____
ROOT
ATOM      1  O   UNL     1      -3.497 -13.936  12.282  0.00  0.00    -0.375 OA
ATOM      3  O   UNL     1      -3.470 -10.471  16.182  0.00  0.00    -0.253 OA
ATOM      4  N   UNL     1      -3.052 -12.355  14.874  0.00  0.00    -0.280 N 
ATOM      5  N   UNL     1      -4.187 -12.520  16.945  0.00  0.00    -0.300 N 
ATOM      6  C   UNL     1      -3.235 -11.502  12.545  0.00  0.00    +0.216 C 
ATOM      7  C   UNL     1      -2.409 -11.553  13.828  0.00  0.00    +0.156 C 
ATOM      8  C   UNL     1      -3.167 -13.809  14.681  0.00  0.00    +0.137 C 
ATOM      9  C   UNL     1      -3.052 -12.736  11.665  0.00  0.00    +0.206 C 
ATOM     10  C   UNL     1      -2.666 -14.368  13.355  0.00  0.00    +0.179 C 
ATOM     11  C   UNL     1      -3.564 -11.691  16.014  0.00  0.00    +0.302 C 
ATOM     20  H   UNL     1      -4.237 -13.519  16.787  0.00  0.00    +0.150 HD
ENDROOT
BRANCH   5  13
ATOM     13  C   UNL     1      -4.773 -12.034  18.176  0.00  0.00    +0.102 C 
ATOM     16  C   UNL     1      -3.814 -12.170  19.339  0.00  0.00    +0.024 C 
ENDBRANCH   5  13
BRANCH   6   2
ATOM      2  O   UNL     1      -2.823 -10.354  11.804  0.00  0.00    -0.485 OA
BRANCH   2  12
ATOM     12  C   UNL     1      -3.783  -9.727  11.059  0.00  0.00    +0.121 A 
ATOM     14  C   UNL     1      -5.038  -9.470  11.612  0.00  0.00    +0.045 A 
ATOM     15  C   UNL     1      -3.509  -9.347   9.745  0.00  0.00    +0.045 A 
ATOM     17  C   UNL     1      -6.017  -8.832  10.851  0.00  0.00    +0.004 A 
ATOM     18  C   UNL     1      -4.488  -8.708   8.985  0.00  0.00    +0.004 A 
ATOM     19  C   UNL     1      -5.742  -8.451   9.538  0.00  0.00    +0.000 A 
ENDBRANCH   2  12
ENDBRANCH   6   2
TORSDOF 3
ENDMDL
MODEL 9
REMARK VINA RESULT:      -5.0     15.413     19.032
REMARK  Name = 75367676
REMARK  4 active torsions:
REMARK  status: ('A' for Active; 'I' for Inactive)
REMARK    1  A    between atoms: O_2  and  C_6
REMARK    2  A    between atoms: O_2  and  C_12
REMARK    3  A    between atoms: N_5  and  C_13
REMARK    4  A    between atoms: C_13  and  C_16
REMARK                            x       y       z     vdW  Elec       q    Type
REMARK                         _______ _______ _______ _____ _____    ______ ____
ROOT
ATOM      1  O   UNL     1      12.691   7.280   3.386  0.00  0.00    -0.375 OA
ATOM      3  O   UNL     1       9.750   3.925   0.681  0.00  0.00    -0.253 OA
ATOM      4  N   UNL     1      11.566   5.136   1.502  0.00  0.00    -0.280 N 
ATOM      5  N   UNL     1      10.869   5.336  -0.752  0.00  0.00    -0.300 N 
ATOM      6  C   UNL     1      10.926   5.627   3.854  0.00  0.00    +0.216 C 
ATOM      7  C   UNL     1      11.398   4.579   2.848  0.00  0.00    +0.156 C 
ATOM      8  C   UNL     1      12.648   6.105   1.266  0.00  0.00    +0.137 C 
ATOM      9  C   UNL     1      12.061   6.495   4.391  0.00  0.00    +0.206 C 
ATOM     10  C   UNL     1      13.476   6.517   2.476  0.00  0.00    +0.179 C 
ATOM     11  C   UNL     1      10.659   4.739   0.489  0.00  0.00    +0.302 C 
ATOM     20  H   UNL     1      11.631   5.990  -0.883  0.00  0.00    +0.150 HD
ENDROOT
BRANCH   5  13
ATOM     13  C   UNL     1      10.050   5.062  -1.913  0.00  0.00    +0.102 C 
ATOM     16  C   UNL     1       8.929   6.069  -2.052  0.00  0.00    +0.024 C 
ENDBRANCH   5  13
BRANCH   6   2
ATOM      2  O   UNL     1      10.326   4.940   4.951  0.00  0.00    -0.485 OA
BRANCH   2  12
ATOM     12  C   UNL     1       9.798   5.716   5.946  0.00  0.00    +0.121 A 
ATOM     14  C   UNL     1       8.834   6.678   5.643  0.00  0.00    +0.045 A 
ATOM     15  C   UNL     1      10.224   5.548   7.263  0.00  0.00    +0.045 A 
ATOM     17  C   UNL     1       8.296   7.470   6.656  0.00  0.00    +0.004 A 
ATOM     18  C   UNL     1       9.685   6.339   8.278  0.00  0.00    +0.004 A 
ATOM     19  C   UNL     1       8.722   7.301   7.973  0.00  0.00    +0.000 A 
ENDBRANCH   2  12
ENDBRANCH   6   2
TORSDOF 3
ENDMDL
MODEL 10
REMARK VINA RESULT:      -5.0     25.591     27.983
REMARK  Name = 75367676
REMARK  4 active torsions:
REMARK  status: ('A' for Active; 'I' for Inactive)
REMARK    1  A    between atoms: O_2  and  C_6
REMARK    2  A    between atoms: O_2  and  C_12
REMARK    3  A    between atoms: N_5  and  C_13
REMARK    4  A    between atoms: C_13  and  C_16
REMARK                            x       y       z     vdW  Elec       q    Type
REMARK                         _______ _______ _______ _____ _____    ______ ____
ROOT
ATOM      1  O   UNL     1      -1.895 -10.041  16.041  0.00  0.00    -0.375 OA
ATOM      3  O   UNL     1      -4.977 -11.417  12.063  0.00  0.00    -0.253 OA
ATOM      4  N   UNL     1      -3.108 -11.025  13.401  0.00  0.00    -0.280 N 
ATOM      5  N   UNL     1      -3.440  -9.850  11.373  0.00  0.00    -0.300 N 
ATOM      6  C   UNL     1      -3.971 -11.325  15.714  0.00  0.00    +0.216 C 
ATOM      7  C   UNL     1      -3.556 -11.995  14.405  0.00  0.00    +0.156 C 
ATOM      8  C   UNL     1      -1.851 -10.297  13.631  0.00  0.00    +0.137 C 
ATOM      9  C   UNL     1      -2.786 -10.988  16.616  0.00  0.00    +0.206 C 
ATOM     10  C   UNL     1      -1.138 -10.557  14.952  0.00  0.00    +0.179 C 
ATOM     11  C   UNL     1      -3.922 -10.808  12.262  0.00  0.00    +0.302 C 
ATOM     20  H   UNL     1      -2.564  -9.376  11.555  0.00  0.00    +0.150 HD
ENDROOT
BRANCH   5  13
ATOM     13  C   UNL     1      -4.126  -9.486  10.151  0.00  0.00    +0.102 C 
ATOM     16  C   UNL     1      -5.033  -8.292  10.359  0.00  0.00    +0.024 C 
ENDBRANCH   5  13
BRANCH   6   2
ATOM      2  O   UNL     1      -4.829 -12.225  16.413  0.00  0.00    -0.485 OA
BRANCH   2  12
ATOM     12  C   UNL     1      -5.612 -11.687  17.396  0.00  0.00    +0.121 A 
ATOM     14  C   UNL     1      -5.524 -12.170  18.702  0.00  0.00    +0.045 A 
ATOM     15  C   UNL     1      -6.500 -10.655  17.094  0.00  0.00    +0.045 A 
ATOM     17  C   UNL     1      -6.323 -11.621  19.705  0.00  0.00    +0.004 A 
ATOM     18  C   UNL     1      -7.299 -10.105  18.097  0.00  0.00    +0.004 A 
ATOM     19  C   UNL     1      -7.210 -10.589  19.401  0.00  0.00    +0.000 A 
ENDBRANCH   2  12
ENDBRANCH   6   2
TORSDOF 3
ENDMDL
