MODEL 1
REMARK VINA RESULT:      -7.4      0.000      0.000
REMARK  Name = 51137334
REMARK  7 active torsions:
REMARK  status: ('A' for Active; 'I' for Inactive)
REMARK    1  A    between atoms: O_2  and  C_15
REMARK    2  A    between atoms: O_3  and  C_20
REMARK    3  A    between atoms: O_3  and  C_25
REMARK    4  A    between atoms: N_4  and  C_12
REMARK    5  A    between atoms: C_8  and  C_13
REMARK    6  A    between atoms: C_12  and  C_14
REMARK    7  A    between atoms: C_17  and  C_21
REMARK                            x       y       z     vdW  Elec       q    Type
REMARK                         _______ _______ _______ _____ _____    ______ ____
ROOT
ATOM      4  N   UNL     1      16.952   7.530  20.223  0.00  0.00    -0.297 NA
ATOM      8  C   UNL     1      19.127   6.714  20.540  0.00  0.00    +0.092 C 
ATOM      9  C   UNL     1      18.326   5.722  19.680  0.00  0.00    +0.029 C 
ATOM     10  C   UNL     1      18.067   7.631  21.167  0.00  0.00    +0.097 C 
ATOM     11  C   UNL     1      16.867   6.110  19.889  0.00  0.00    +0.085 C 
ENDROOT
BRANCH   8  13
ATOM      1  O   UNL     1      20.805   5.036  21.143  0.00  0.00    -0.420 OA
ATOM      5  N   UNL     1      20.204   6.372  22.833  0.00  0.00    -0.112 NA
ATOM      6  N   UNL     1      21.149   5.482  23.309  0.00  0.00    -0.107 NA
ATOM     13  C   UNL     1      20.036   6.076  21.566  0.00  0.00    +0.222 A 
ATOM     17  C   UNL     1      21.470   4.721  22.288  0.00  0.00    +0.250 A 
BRANCH  17  21
ATOM      7  N   UNL     1      23.776   1.992  23.318  0.00  0.00    -0.263 NA
ATOM     21  C   UNL     1      22.397   3.630  22.196  0.00  0.00    +0.057 A 
ATOM     22  C   UNL     1      22.819   3.151  20.961  0.00  0.00    +0.016 A 
ATOM     23  C   UNL     1      22.901   3.022  23.334  0.00  0.00    +0.124 A 
ATOM     24  C   UNL     1      23.719   2.092  20.903  0.00  0.00    +0.020 A 
ATOM     26  C   UNL     1      24.163   1.553  22.100  0.00  0.00    +0.111 A 
ENDBRANCH  17  21
ENDBRANCH   8  13
BRANCH   4  12
ATOM     12  C   UNL     1      15.709   8.045  20.778  0.00  0.00    +0.123 C 
BRANCH  12  14
ATOM     14  C   UNL     1      14.574   7.950  19.793  0.00  0.00    +0.008 A 
ATOM     15  C   UNL     1      13.520   7.060  20.001  0.00  0.00    +0.125 A 
ATOM     16  C   UNL     1      14.584   8.768  18.662  0.00  0.00    +0.012 A 
ATOM     18  C   UNL     1      12.477   6.987  19.079  0.00  0.00    +0.091 A 
ATOM     19  C   UNL     1      13.540   8.694  17.739  0.00  0.00    +0.046 A 
ATOM     20  C   UNL     1      12.487   7.803  17.948  0.00  0.00    +0.124 A 
BRANCH  15   2
ATOM      2  O   UNL     1      13.497   6.255  21.100  0.00  0.00    -0.506 OA
ATOM     27  H   UNL     1      13.443   6.809  21.898  0.00  0.00    +0.292 HD
ENDBRANCH  15   2
BRANCH  20   3
ATOM      3  O   UNL     1      11.468   7.731  17.048  0.00  0.00    -0.495 OA
ATOM     25  C   UNL     1      11.168   8.917  16.311  0.00  0.00    +0.277 C 
ENDBRANCH  20   3
ENDBRANCH  12  14
ENDBRANCH   4  12
TORSDOF 6
ENDMDL
MODEL 2
REMARK VINA RESULT:      -7.4      4.420     10.042
REMARK  Name = 51137334
REMARK  7 active torsions:
REMARK  status: ('A' for Active; 'I' for Inactive)
REMARK    1  A    between atoms: O_2  and  C_15
REMARK    2  A    between atoms: O_3  and  C_20
REMARK    3  A    between atoms: O_3  and  C_25
REMARK    4  A    between atoms: N_4  and  C_12
REMARK    5  A    between atoms: C_8  and  C_13
REMARK    6  A    between atoms: C_12  and  C_14
REMARK    7  A    between atoms: C_17  and  C_21
REMARK                            x       y       z     vdW  Elec       q    Type
REMARK                         _______ _______ _______ _____ _____    ______ ____
ROOT
ATOM      4  N   UNL     1      14.770   7.166  20.100  0.00  0.00    -0.297 NA
ATOM      8  C   UNL     1      12.789   7.134  21.353  0.00  0.00    +0.092 C 
ATOM      9  C   UNL     1      12.493   6.685  19.912  0.00  0.00    +0.029 C 
ATOM     10  C   UNL     1      14.172   7.796  21.279  0.00  0.00    +0.097 C 
ATOM     11  C   UNL     1      13.702   7.139  19.103  0.00  0.00    +0.085 C 
ENDROOT
BRANCH   8  13
ATOM      1  O   UNL     1      12.151   9.254  22.400  0.00  0.00    -0.420 OA
ATOM      5  N   UNL     1      10.458   7.813  22.155  0.00  0.00    -0.112 NA
ATOM      6  N   UNL     1       9.962   8.957  22.752  0.00  0.00    -0.107 NA
ATOM     13  C   UNL     1      11.738   8.032  21.967  0.00  0.00    +0.222 A 
ATOM     17  C   UNL     1      10.985   9.770  22.876  0.00  0.00    +0.250 A 
BRANCH  17  21
ATOM      7  N   UNL     1      11.185  12.515  25.375  0.00  0.00    -0.263 NA
ATOM     21  C   UNL     1      11.061  11.093  23.424  0.00  0.00    +0.057 A 
ATOM     22  C   UNL     1      11.086  12.211  22.598  0.00  0.00    +0.016 A 
ATOM     23  C   UNL     1      11.113  11.297  24.793  0.00  0.00    +0.124 A 
ATOM     24  C   UNL     1      11.159  13.481  23.159  0.00  0.00    +0.020 A 
ATOM     26  C   UNL     1      11.207  13.578  24.540  0.00  0.00    +0.111 A 
ENDBRANCH  17  21
ENDBRANCH   8  13
BRANCH   4  12
ATOM     12  C   UNL     1      15.950   7.877  19.630  0.00  0.00    +0.123 C 
BRANCH  12  14
ATOM     14  C   UNL     1      17.222   7.242  20.125  0.00  0.00    +0.008 A 
ATOM     15  C   UNL     1      17.695   6.057  19.559  0.00  0.00    +0.125 A 
ATOM     16  C   UNL     1      17.931   7.853  21.159  0.00  0.00    +0.012 A 
ATOM     18  C   UNL     1      18.876   5.483  20.029  0.00  0.00    +0.091 A 
ATOM     19  C   UNL     1      19.113   7.279  21.629  0.00  0.00    +0.046 A 
ATOM     20  C   UNL     1      19.585   6.093  21.064  0.00  0.00    +0.124 A 
BRANCH  15   2
ATOM      2  O   UNL     1      17.014   5.448  18.549  0.00  0.00    -0.506 OA
ATOM     27  H   UNL     1      16.075   5.697  18.604  0.00  0.00    +0.292 HD
ENDBRANCH  15   2
BRANCH  20   3
ATOM      3  O   UNL     1      20.737   5.533  21.522  0.00  0.00    -0.495 OA
ATOM     25  C   UNL     1      21.534   4.821  20.575  0.00  0.00    +0.277 C 
ENDBRANCH  20   3
ENDBRANCH  12  14
ENDBRANCH   4  12
TORSDOF 6
ENDMDL
MODEL 3
REMARK VINA RESULT:      -7.1      3.945     10.120
REMARK  Name = 51137334
REMARK  7 active torsions:
REMARK  status: ('A' for Active; 'I' for Inactive)
REMARK    1  A    between atoms: O_2  and  C_15
REMARK    2  A    between atoms: O_3  and  C_20
REMARK    3  A    between atoms: O_3  and  C_25
REMARK    4  A    between atoms: N_4  and  C_12
REMARK    5  A    between atoms: C_8  and  C_13
REMARK    6  A    between atoms: C_12  and  C_14
REMARK    7  A    between atoms: C_17  and  C_21
REMARK                            x       y       z     vdW  Elec       q    Type
REMARK                         _______ _______ _______ _____ _____    ______ ____
ROOT
ATOM      4  N   UNL     1      16.249   7.321  20.807  0.00  0.00    -0.297 NA
ATOM      8  C   UNL     1      13.949   6.968  21.094  0.00  0.00    +0.092 C 
ATOM      9  C   UNL     1      14.247   7.231  19.608  0.00  0.00    +0.029 C 
ATOM     10  C   UNL     1      15.211   7.435  21.833  0.00  0.00    +0.097 C 
ATOM     11  C   UNL     1      15.638   7.854  19.590  0.00  0.00    +0.085 C 
ENDROOT
BRANCH   8  13
ATOM      1  O   UNL     1      12.754   8.947  21.900  0.00  0.00    -0.420 OA
ATOM      5  N   UNL     1      11.506   7.091  21.839  0.00  0.00    -0.112 NA
ATOM      6  N   UNL     1      10.714   8.122  22.308  0.00  0.00    -0.107 NA
ATOM     13  C   UNL     1      12.687   7.618  21.614  0.00  0.00    +0.222 A 
ATOM     17  C   UNL     1      11.484   9.186  22.328  0.00  0.00    +0.250 A 
BRANCH  17  21
ATOM      7  N   UNL     1      10.549  12.084  24.460  0.00  0.00    -0.263 NA
ATOM     21  C   UNL     1      11.197  10.535  22.722  0.00  0.00    +0.057 A 
ATOM     22  C   UNL     1      11.276  11.580  21.809  0.00  0.00    +0.016 A 
ATOM     23  C   UNL     1      10.833  10.837  24.024  0.00  0.00    +0.124 A 
ATOM     24  C   UNL     1      10.992  12.878  22.220  0.00  0.00    +0.020 A 
ATOM     26  C   UNL     1      10.637  13.075  23.545  0.00  0.00    +0.111 A 
ENDBRANCH  17  21
ENDBRANCH   8  13
BRANCH   4  12
ATOM     12  C   UNL     1      17.468   8.028  21.171  0.00  0.00    +0.123 C 
BRANCH  12  14
ATOM     14  C   UNL     1      18.650   7.100  21.258  0.00  0.00    +0.008 A 
ATOM     15  C   UNL     1      19.564   7.206  22.307  0.00  0.00    +0.125 A 
ATOM     16  C   UNL     1      18.825   6.125  20.276  0.00  0.00    +0.012 A 
ATOM     18  C   UNL     1      20.653   6.337  22.373  0.00  0.00    +0.091 A 
ATOM     19  C   UNL     1      19.914   5.256  20.342  0.00  0.00    +0.046 A 
ATOM     20  C   UNL     1      20.829   5.363  21.391  0.00  0.00    +0.124 A 
BRANCH  15   2
ATOM      2  O   UNL     1      19.408   8.153  23.274  0.00  0.00    -0.506 OA
ATOM     27  H   UNL     1      19.803   7.830  24.102  0.00  0.00    +0.292 HD
ENDBRANCH  15   2
BRANCH  20   3
ATOM      3  O   UNL     1      21.892   4.515  21.455  0.00  0.00    -0.495 OA
ATOM     25  C   UNL     1      23.007   4.930  22.244  0.00  0.00    +0.277 C 
ENDBRANCH  20   3
ENDBRANCH  12  14
ENDBRANCH   4  12
TORSDOF 6
ENDMDL
MODEL 4
REMARK VINA RESULT:      -7.0      1.778      2.418
REMARK  Name = 51137334
REMARK  7 active torsions:
REMARK  status: ('A' for Active; 'I' for Inactive)
REMARK    1  A    between atoms: O_2  and  C_15
REMARK    2  A    between atoms: O_3  and  C_20
REMARK    3  A    between atoms: O_3  and  C_25
REMARK    4  A    between atoms: N_4  and  C_12
REMARK    5  A    between atoms: C_8  and  C_13
REMARK    6  A    between atoms: C_12  and  C_14
REMARK    7  A    between atoms: C_17  and  C_21
REMARK                            x       y       z     vdW  Elec       q    Type
REMARK                         _______ _______ _______ _____ _____    ______ ____
ROOT
ATOM      4  N   UNL     1      17.766   8.065  21.606  0.00  0.00    -0.297 NA
ATOM      8  C   UNL     1      19.494   6.571  22.133  0.00  0.00    +0.092 C 
ATOM      9  C   UNL     1      19.766   7.929  22.802  0.00  0.00    +0.029 C 
ATOM     10  C   UNL     1      18.418   6.865  21.078  0.00  0.00    +0.097 C 
ATOM     11  C   UNL     1      18.859   8.915  22.075  0.00  0.00    +0.085 C 
ENDROOT
BRANCH   8  13
ATOM      1  O   UNL     1      21.153   4.771  22.196  0.00  0.00    -0.420 OA
ATOM      5  N   UNL     1      21.438   6.216  20.511  0.00  0.00    -0.112 NA
ATOM      6  N   UNL     1      22.433   5.260  20.427  0.00  0.00    -0.107 NA
ATOM     13  C   UNL     1      20.714   5.890  21.557  0.00  0.00    +0.222 A 
ATOM     17  C   UNL     1      22.228   4.438  21.430  0.00  0.00    +0.250 A 
BRANCH  17  21
ATOM      7  N   UNL     1      23.773   1.866  23.625  0.00  0.00    -0.263 NA
ATOM     21  C   UNL     1      22.948   3.266  21.835  0.00  0.00    +0.057 A 
ATOM     22  C   UNL     1      23.508   2.408  20.896  0.00  0.00    +0.016 A 
ATOM     23  C   UNL     1      23.107   2.952  23.176  0.00  0.00    +0.124 A 
ATOM     24  C   UNL     1      24.201   1.279  21.319  0.00  0.00    +0.020 A 
ATOM     26  C   UNL     1      24.303   1.055  22.682  0.00  0.00    +0.111 A 
ENDBRANCH  17  21
ENDBRANCH   8  13
BRANCH   4  12
ATOM     12  C   UNL     1      16.937   8.729  20.610  0.00  0.00    +0.123 C 
BRANCH  12  14
ATOM     14  C   UNL     1      15.553   8.138  20.548  0.00  0.00    +0.008 A 
ATOM     15  C   UNL     1      14.737   8.114  21.680  0.00  0.00    +0.125 A 
ATOM     16  C   UNL     1      15.090   7.613  19.342  0.00  0.00    +0.012 A 
ATOM     18  C   UNL     1      13.457   7.564  21.604  0.00  0.00    +0.091 A 
ATOM     19  C   UNL     1      13.810   7.062  19.266  0.00  0.00    +0.046 A 
ATOM     20  C   UNL     1      12.994   7.038  20.398  0.00  0.00    +0.124 A 
BRANCH  15   2
ATOM      2  O   UNL     1      15.175   8.623  22.865  0.00  0.00    -0.506 OA
ATOM     27  H   UNL     1      14.406   8.855  23.414  0.00  0.00    +0.292 HD
ENDBRANCH  15   2
BRANCH  20   3
ATOM      3  O   UNL     1      11.745   6.501  20.325  0.00  0.00    -0.495 OA
ATOM     25  C   UNL     1      11.057   6.288  21.557  0.00  0.00    +0.277 C 
ENDBRANCH  20   3
ENDBRANCH  12  14
ENDBRANCH   4  12
TORSDOF 6
ENDMDL
MODEL 5
REMARK VINA RESULT:      -6.8      2.668      4.512
REMARK  Name = 51137334
REMARK  7 active torsions:
REMARK  status: ('A' for Active; 'I' for Inactive)
REMARK    1  A    between atoms: O_2  and  C_15
REMARK    2  A    between atoms: O_3  and  C_20
REMARK    3  A    between atoms: O_3  and  C_25
REMARK    4  A    between atoms: N_4  and  C_12
REMARK    5  A    between atoms: C_8  and  C_13
REMARK    6  A    between atoms: C_12  and  C_14
REMARK    7  A    between atoms: C_17  and  C_21
REMARK                            x       y       z     vdW  Elec       q    Type
REMARK                         _______ _______ _______ _____ _____    ______ ____
ROOT
ATOM      4  N   UNL     1      12.709   8.112  20.272  0.00  0.00    -0.297 NA
ATOM      8  C   UNL     1      14.495   6.616  20.532  0.00  0.00    +0.092 C 
ATOM      9  C   UNL     1      14.335   7.453  21.812  0.00  0.00    +0.029 C 
ATOM     10  C   UNL     1      13.683   7.370  19.469  0.00  0.00    +0.097 C 
ATOM     11  C   UNL     1      13.473   8.640  21.401  0.00  0.00    +0.085 C 
ENDROOT
BRANCH   8  13
ATOM      1  O   UNL     1      16.893   6.638  21.028  0.00  0.00    -0.420 OA
ATOM      5  N   UNL     1      16.394   5.912  18.972  0.00  0.00    -0.112 NA
ATOM      6  N   UNL     1      17.769   5.873  19.117  0.00  0.00    -0.107 NA
ATOM     13  C   UNL     1      15.925   6.364  20.111  0.00  0.00    +0.222 A 
ATOM     17  C   UNL     1      18.014   6.306  20.332  0.00  0.00    +0.250 A 
BRANCH  17  21
ATOM      7  N   UNL     1      20.469   7.440  22.883  0.00  0.00    -0.263 NA
ATOM     21  C   UNL     1      19.257   6.478  21.026  0.00  0.00    +0.057 A 
ATOM     22  C   UNL     1      20.426   5.888  20.559  0.00  0.00    +0.016 A 
ATOM     23  C   UNL     1      19.332   7.237  22.182  0.00  0.00    +0.124 A 
ATOM     24  C   UNL     1      21.617   6.073  21.253  0.00  0.00    +0.020 A 
ATOM     26  C   UNL     1      21.585   6.850  22.399  0.00  0.00    +0.111 A 
ENDBRANCH  17  21
ENDBRANCH   8  13
BRANCH   4  12
ATOM     12  C   UNL     1      12.048   9.161  19.511  0.00  0.00    +0.123 C 
BRANCH  12  14
ATOM     14  C   UNL     1      12.744   9.429  18.203  0.00  0.00    +0.008 A 
ATOM     15  C   UNL     1      12.279   8.859  17.017  0.00  0.00    +0.125 A 
ATOM     16  C   UNL     1      13.865  10.259  18.186  0.00  0.00    +0.012 A 
ATOM     18  C   UNL     1      12.936   9.118  15.815  0.00  0.00    +0.091 A 
ATOM     19  C   UNL     1      14.522  10.518  16.982  0.00  0.00    +0.046 A 
ATOM     20  C   UNL     1      14.057   9.947  15.797  0.00  0.00    +0.124 A 
BRANCH  15   2
ATOM      2  O   UNL     1      11.186   8.046  17.018  0.00  0.00    -0.506 OA
ATOM     27  H   UNL     1      10.383   8.594  17.018  0.00  0.00    +0.292 HD
ENDBRANCH  15   2
BRANCH  20   3
ATOM      3  O   UNL     1      14.698  10.200  14.623  0.00  0.00    -0.495 OA
ATOM     25  C   UNL     1      15.640  11.273  14.616  0.00  0.00    +0.277 C 
ENDBRANCH  20   3
ENDBRANCH  12  14
ENDBRANCH   4  12
TORSDOF 6
ENDMDL
MODEL 6
REMARK VINA RESULT:      -6.8     26.759     29.532
REMARK  Name = 51137334
REMARK  7 active torsions:
REMARK  status: ('A' for Active; 'I' for Inactive)
REMARK    1  A    between atoms: O_2  and  C_15
REMARK    2  A    between atoms: O_3  and  C_20
REMARK    3  A    between atoms: O_3  and  C_25
REMARK    4  A    between atoms: N_4  and  C_12
REMARK    5  A    between atoms: C_8  and  C_13
REMARK    6  A    between atoms: C_12  and  C_14
REMARK    7  A    between atoms: C_17  and  C_21
REMARK                            x       y       z     vdW  Elec       q    Type
REMARK                         _______ _______ _______ _____ _____    ______ ____
ROOT
ATOM      4  N   UNL     1      -2.158 -10.892  13.990  0.00  0.00    -0.297 NA
ATOM      8  C   UNL     1      -3.228 -10.227  15.968  0.00  0.00    +0.092 C 
ATOM      9  C   UNL     1      -1.787 -10.663  16.284  0.00  0.00    +0.029 C 
ATOM     10  C   UNL     1      -3.502 -10.778  14.562  0.00  0.00    +0.097 C 
ATOM     11  C   UNL     1      -1.338 -11.456  15.062  0.00  0.00    +0.085 C 
ENDROOT
BRANCH   8  13
ATOM      1  O   UNL     1      -5.503 -10.118  16.867  0.00  0.00    -0.420 OA
ATOM      5  N   UNL     1      -4.146 -11.502  17.985  0.00  0.00    -0.112 NA
ATOM      6  N   UNL     1      -5.387 -11.537  18.593  0.00  0.00    -0.107 NA
ATOM     13  C   UNL     1      -4.261 -10.662  16.983  0.00  0.00    +0.222 A 
ATOM     17  C   UNL     1      -6.147 -10.714  17.907  0.00  0.00    +0.250 A 
BRANCH  17  21
ATOM      7  N   UNL     1      -9.380  -8.933  17.467  0.00  0.00    -0.263 NA
ATOM     21  C   UNL     1      -7.524 -10.355  18.082  0.00  0.00    +0.057 A 
ATOM     22  C   UNL     1      -8.332 -11.030  18.989  0.00  0.00    +0.016 A 
ATOM     23  C   UNL     1      -8.092  -9.323  17.351  0.00  0.00    +0.124 A 
ATOM     24  C   UNL     1      -9.664 -10.658  19.137  0.00  0.00    +0.020 A 
ATOM     26  C   UNL     1     -10.135  -9.613  18.359  0.00  0.00    +0.111 A 
ENDBRANCH  17  21
ENDBRANCH   8  13
BRANCH   4  12
ATOM     12  C   UNL     1      -2.135 -11.711  12.787  0.00  0.00    +0.123 C 
BRANCH  12  14
ATOM     14  C   UNL     1      -2.838 -11.038  11.638  0.00  0.00    +0.008 A 
ATOM     15  C   UNL     1      -2.337  -9.857  11.088  0.00  0.00    +0.125 A 
ATOM     16  C   UNL     1      -4.001 -11.609  11.122  0.00  0.00    +0.012 A 
ATOM     18  C   UNL     1      -3.000  -9.248  10.023  0.00  0.00    +0.091 A 
ATOM     19  C   UNL     1      -4.665 -11.000  10.056  0.00  0.00    +0.046 A 
ATOM     20  C   UNL     1      -4.164  -9.818   9.508  0.00  0.00    +0.124 A 
BRANCH  15   2
ATOM      2  O   UNL     1      -1.203  -9.287  11.581  0.00  0.00    -0.506 OA
ATOM     27  H   UNL     1      -0.964  -8.524  11.026  0.00  0.00    +0.292 HD
ENDBRANCH  15   2
BRANCH  20   3
ATOM      3  O   UNL     1      -4.811  -9.224   8.468  0.00  0.00    -0.495 OA
ATOM     25  C   UNL     1      -5.309 -10.079   7.439  0.00  0.00    +0.277 C 
ENDBRANCH  20   3
ENDBRANCH  12  14
ENDBRANCH   4  12
TORSDOF 6
ENDMDL
MODEL 7
REMARK VINA RESULT:      -6.7     27.108     30.733
REMARK  Name = 51137334
REMARK  7 active torsions:
REMARK  status: ('A' for Active; 'I' for Inactive)
REMARK    1  A    between atoms: O_2  and  C_15
REMARK    2  A    between atoms: O_3  and  C_20
REMARK    3  A    between atoms: O_3  and  C_25
REMARK    4  A    between atoms: N_4  and  C_12
REMARK    5  A    between atoms: C_8  and  C_13
REMARK    6  A    between atoms: C_12  and  C_14
REMARK    7  A    between atoms: C_17  and  C_21
REMARK                            x       y       z     vdW  Elec       q    Type
REMARK                         _______ _______ _______ _____ _____    ______ ____
ROOT
ATOM      4  N   UNL     1      -4.805 -11.320  17.372  0.00  0.00    -0.297 NA
ATOM      8  C   UNL     1      -6.588  -9.954  18.045  0.00  0.00    +0.092 C 
ATOM      9  C   UNL     1      -6.093 -10.783  19.244  0.00  0.00    +0.029 C 
ATOM     10  C   UNL     1      -5.980 -10.646  16.817  0.00  0.00    +0.097 C 
ATOM     11  C   UNL     1      -5.264 -11.905  18.631  0.00  0.00    +0.085 C 
ENDROOT
BRANCH   8  13
ATOM      1  O   UNL     1      -8.558  -8.766  17.208  0.00  0.00    -0.420 OA
ATOM      5  N   UNL     1      -9.037 -10.531  18.495  0.00  0.00    -0.112 NA
ATOM      6  N   UNL     1     -10.230  -9.959  18.094  0.00  0.00    -0.107 NA
ATOM     13  C   UNL     1      -8.089  -9.803  17.954  0.00  0.00    +0.222 A 
ATOM     17  C   UNL     1      -9.902  -8.932  17.345  0.00  0.00    +0.250 A 
BRANCH  17  21
ATOM      7  N   UNL     1     -10.881  -5.985  15.301  0.00  0.00    -0.263 NA
ATOM     21  C   UNL     1     -10.725  -7.977  16.662  0.00  0.00    +0.057 A 
ATOM     22  C   UNL     1     -12.111  -8.083  16.678  0.00  0.00    +0.016 A 
ATOM     23  C   UNL     1     -10.164  -6.919  15.965  0.00  0.00    +0.124 A 
ATOM     24  C   UNL     1     -12.883  -7.141  16.007  0.00  0.00    +0.020 A 
ATOM     26  C   UNL     1     -12.225  -6.121  15.339  0.00  0.00    +0.111 A 
ENDBRANCH  17  21
ENDBRANCH   8  13
BRANCH   4  12
ATOM     12  C   UNL     1      -4.258 -12.318  16.464  0.00  0.00    +0.123 C 
BRANCH  12  14
ATOM     14  C   UNL     1      -3.502 -11.685  15.325  0.00  0.00    +0.008 A 
ATOM     15  C   UNL     1      -2.263 -11.080  15.539  0.00  0.00    +0.125 A 
ATOM     16  C   UNL     1      -4.054 -11.711  14.044  0.00  0.00    +0.012 A 
ATOM     18  C   UNL     1      -1.577 -10.501  14.473  0.00  0.00    +0.091 A 
ATOM     19  C   UNL     1      -3.367 -11.131  12.977  0.00  0.00    +0.046 A 
ATOM     20  C   UNL     1      -2.129 -10.525  13.192  0.00  0.00    +0.124 A 
BRANCH  15   2
ATOM      2  O   UNL     1      -1.712 -11.046  16.785  0.00  0.00    -0.506 OA
ATOM     27  H   UNL     1      -1.422 -10.139  16.979  0.00  0.00    +0.292 HD
ENDBRANCH  15   2
BRANCH  20   3
ATOM      3  O   UNL     1      -1.458  -9.960  12.151  0.00  0.00    -0.495 OA
ATOM     25  C   UNL     1      -2.235  -9.548  11.026  0.00  0.00    +0.277 C 
ENDBRANCH  20   3
ENDBRANCH  12  14
ENDBRANCH   4  12
TORSDOF 6
ENDMDL
MODEL 8
REMARK VINA RESULT:      -6.6     27.062     30.833
REMARK  Name = 51137334
REMARK  7 active torsions:
REMARK  status: ('A' for Active; 'I' for Inactive)
REMARK    1  A    between atoms: O_2  and  C_15
REMARK    2  A    between atoms: O_3  and  C_20
REMARK    3  A    between atoms: O_3  and  C_25
REMARK    4  A    between atoms: N_4  and  C_12
REMARK    5  A    between atoms: C_8  and  C_13
REMARK    6  A    between atoms: C_12  and  C_14
REMARK    7  A    between atoms: C_17  and  C_21
REMARK                            x       y       z     vdW  Elec       q    Type
REMARK                         _______ _______ _______ _____ _____    ______ ____
ROOT
ATOM      4  N   UNL     1      -4.549 -11.751  17.395  0.00  0.00    -0.297 NA
ATOM      8  C   UNL     1      -6.185 -10.589  18.607  0.00  0.00    +0.092 C 
ATOM      9  C   UNL     1      -5.434 -11.549  19.546  0.00  0.00    +0.029 C 
ATOM     10  C   UNL     1      -5.829 -11.069  17.193  0.00  0.00    +0.097 C 
ATOM     11  C   UNL     1      -4.724 -12.529  18.620  0.00  0.00    +0.085 C 
ENDROOT
BRANCH   8  13
ATOM      1  O   UNL     1      -8.397  -9.764  17.958  0.00  0.00    -0.420 OA
ATOM      5  N   UNL     1      -8.404 -11.047  19.791  0.00  0.00    -0.112 NA
ATOM      6  N   UNL     1      -9.705 -10.655  19.540  0.00  0.00    -0.107 NA
ATOM     13  C   UNL     1      -7.675 -10.505  18.843  0.00  0.00    +0.222 A 
ATOM     17  C   UNL     1      -9.653  -9.907  18.462  0.00  0.00    +0.250 A 
BRANCH  17  21
ATOM      7  N   UNL     1     -12.995  -9.192  16.998  0.00  0.00    -0.263 NA
ATOM     21  C   UNL     1     -10.697  -9.232  17.747  0.00  0.00    +0.057 A 
ATOM     22  C   UNL     1     -10.465  -8.012  17.122  0.00  0.00    +0.016 A 
ATOM     23  C   UNL     1     -11.969  -9.775  17.656  0.00  0.00    +0.124 A 
ATOM     24  C   UNL     1     -11.496  -7.381  16.435  0.00  0.00    +0.020 A 
ATOM     26  C   UNL     1     -12.732  -8.007  16.403  0.00  0.00    +0.111 A 
ENDBRANCH  17  21
ENDBRANCH   8  13
BRANCH   4  12
ATOM     12  C   UNL     1      -4.179 -12.583  16.259  0.00  0.00    +0.123 C 
BRANCH  12  14
ATOM     14  C   UNL     1      -3.442 -11.798  15.206  0.00  0.00    +0.008 A 
ATOM     15  C   UNL     1      -2.272 -11.106  15.520  0.00  0.00    +0.125 A 
ATOM     16  C   UNL     1      -3.942 -11.769  13.904  0.00  0.00    +0.012 A 
ATOM     18  C   UNL     1      -1.602 -10.385  14.532  0.00  0.00    +0.091 A 
ATOM     19  C   UNL     1      -3.271 -11.048  12.915  0.00  0.00    +0.046 A 
ATOM     20  C   UNL     1      -2.101 -10.355  13.230  0.00  0.00    +0.124 A 
BRANCH  15   2
ATOM      2  O   UNL     1      -1.772 -11.123  16.787  0.00  0.00    -0.506 OA
ATOM     27  H   UNL     1      -1.511 -12.033  17.013  0.00  0.00    +0.292 HD
ENDBRANCH  15   2
BRANCH  20   3
ATOM      3  O   UNL     1      -1.447  -9.652  12.266  0.00  0.00    -0.495 OA
ATOM     25  C   UNL     1      -2.035  -9.632  10.965  0.00  0.00    +0.277 C 
ENDBRANCH  20   3
ENDBRANCH  12  14
ENDBRANCH   4  12
TORSDOF 6
ENDMDL
MODEL 9
REMARK VINA RESULT:      -6.5     29.727     33.470
REMARK  Name = 51137334
REMARK  7 active torsions:
REMARK  status: ('A' for Active; 'I' for Inactive)
REMARK    1  A    between atoms: O_2  and  C_15
REMARK    2  A    between atoms: O_3  and  C_20
REMARK    3  A    between atoms: O_3  and  C_25
REMARK    4  A    between atoms: N_4  and  C_12
REMARK    5  A    between atoms: C_8  and  C_13
REMARK    6  A    between atoms: C_12  and  C_14
REMARK    7  A    between atoms: C_17  and  C_21
REMARK                            x       y       z     vdW  Elec       q    Type
REMARK                         _______ _______ _______ _____ _____    ______ ____
ROOT
ATOM      4  N   UNL     1     -15.095   5.990  22.055  0.00  0.00    -0.297 NA
ATOM      8  C   UNL     1     -15.886   4.010  23.031  0.00  0.00    +0.092 C 
ATOM      9  C   UNL     1     -17.076   4.858  22.552  0.00  0.00    +0.029 C 
ATOM     10  C   UNL     1     -14.694   4.978  23.034  0.00  0.00    +0.097 C 
ATOM     11  C   UNL     1     -16.505   6.255  22.340  0.00  0.00    +0.085 C 
ENDROOT
BRANCH   8  13
ATOM      1  O   UNL     1     -15.949   4.089  25.477  0.00  0.00    -0.420 OA
ATOM      5  N   UNL     1     -16.389   2.070  24.618  0.00  0.00    -0.112 NA
ATOM      6  N   UNL     1     -16.458   1.972  25.995  0.00  0.00    -0.107 NA
ATOM     13  C   UNL     1     -16.090   3.322  24.361  0.00  0.00    +0.222 A 
ATOM     17  C   UNL     1     -16.194   3.173  26.455  0.00  0.00    +0.250 A 
BRANCH  17  21
ATOM      7  N   UNL     1     -16.826   5.291  29.445  0.00  0.00    -0.263 NA
ATOM     21  C   UNL     1     -16.127   3.661  27.802  0.00  0.00    +0.057 A 
ATOM     22  C   UNL     1     -15.338   3.027  28.755  0.00  0.00    +0.016 A 
ATOM     23  C   UNL     1     -16.845   4.779  28.194  0.00  0.00    +0.124 A 
ATOM     24  C   UNL     1     -15.292   3.523  30.053  0.00  0.00    +0.020 A 
ATOM     26  C   UNL     1     -16.049   4.647  30.344  0.00  0.00    +0.111 A 
ENDBRANCH  17  21
ENDBRANCH   8  13
BRANCH   4  12
ATOM     12  C   UNL     1     -14.279   7.192  22.133  0.00  0.00    +0.123 C 
BRANCH  12  14
ATOM     14  C   UNL     1     -13.414   7.363  20.913  0.00  0.00    +0.008 A 
ATOM     15  C   UNL     1     -13.972   7.736  19.689  0.00  0.00    +0.125 A 
ATOM     16  C   UNL     1     -12.040   7.147  21.016  0.00  0.00    +0.012 A 
ATOM     18  C   UNL     1     -13.156   7.891  18.569  0.00  0.00    +0.091 A 
ATOM     19  C   UNL     1     -11.223   7.302  19.895  0.00  0.00    +0.046 A 
ATOM     20  C   UNL     1     -11.782   7.673  18.671  0.00  0.00    +0.124 A 
BRANCH  15   2
ATOM      2  O   UNL     1     -15.312   7.950  19.572  0.00  0.00    -0.506 OA
ATOM     27  H   UNL     1     -15.751   7.667  20.393  0.00  0.00    +0.292 HD
ENDBRANCH  15   2
BRANCH  20   3
ATOM      3  O   UNL     1     -10.985   7.825  17.578  0.00  0.00    -0.495 OA
ATOM     25  C   UNL     1     -10.217   9.026  17.496  0.00  0.00    +0.277 C 
ENDBRANCH  20   3
ENDBRANCH  12  14
ENDBRANCH   4  12
TORSDOF 6
ENDMDL
MODEL 10
REMARK VINA RESULT:      -6.5     27.702     29.947
REMARK  Name = 51137334
REMARK  7 active torsions:
REMARK  status: ('A' for Active; 'I' for Inactive)
REMARK    1  A    between atoms: O_2  and  C_15
REMARK    2  A    between atoms: O_3  and  C_20
REMARK    3  A    between atoms: O_3  and  C_25
REMARK    4  A    between atoms: N_4  and  C_12
REMARK    5  A    between atoms: C_8  and  C_13
REMARK    6  A    between atoms: C_12  and  C_14
REMARK    7  A    between atoms: C_17  and  C_21
REMARK                            x       y       z     vdW  Elec       q    Type
REMARK                         _______ _______ _______ _____ _____    ______ ____
ROOT
ATOM      4  N   UNL     1      -3.177 -11.439  15.344  0.00  0.00    -0.297 NA
ATOM      8  C   UNL     1      -3.566 -11.499  13.032  0.00  0.00    +0.092 C 
ATOM      9  C   UNL     1      -2.260 -12.247  13.354  0.00  0.00    +0.029 C 
ATOM     10  C   UNL     1      -3.869 -10.684  14.298  0.00  0.00    +0.097 C 
ATOM     11  C   UNL     1      -1.884 -11.796  14.760  0.00  0.00    +0.085 C 
ENDROOT
BRANCH   8  13
ATOM      1  O   UNL     1      -4.680 -10.533  11.078  0.00  0.00    -0.420 OA
ATOM      5  N   UNL     1      -2.516  -9.994  11.253  0.00  0.00    -0.112 NA
ATOM      6  N   UNL     1      -3.016  -9.387  10.116  0.00  0.00    -0.107 NA
ATOM     13  C   UNL     1      -3.521 -10.651  11.782  0.00  0.00    +0.222 A 
ATOM     17  C   UNL     1      -4.282  -9.729  10.054  0.00  0.00    +0.250 A 
BRANCH  17  21
ATOM      7  N   UNL     1      -6.163  -9.621   6.848  0.00  0.00    -0.263 NA
ATOM     21  C   UNL     1      -5.291  -9.393   9.092  0.00  0.00    +0.057 A 
ATOM     22  C   UNL     1      -6.344  -8.549   9.423  0.00  0.00    +0.016 A 
ATOM     23  C   UNL     1      -5.246  -9.898   7.802  0.00  0.00    +0.124 A 
ATOM     24  C   UNL     1      -7.308  -8.240   8.469  0.00  0.00    +0.020 A 
ATOM     26  C   UNL     1      -7.173  -8.798   7.208  0.00  0.00    +0.111 A 
ENDBRANCH  17  21
ENDBRANCH   8  13
BRANCH   4  12
ATOM     12  C   UNL     1      -3.037 -10.678  16.576  0.00  0.00    +0.123 C 
BRANCH  12  14
ATOM     14  C   UNL     1      -4.235 -10.838  17.474  0.00  0.00    +0.008 A 
ATOM     15  C   UNL     1      -4.153 -11.590  18.646  0.00  0.00    +0.125 A 
ATOM     16  C   UNL     1      -5.437 -10.222  17.122  0.00  0.00    +0.012 A 
ATOM     18  C   UNL     1      -5.273 -11.727  19.466  0.00  0.00    +0.091 A 
ATOM     19  C   UNL     1      -6.557 -10.359  17.942  0.00  0.00    +0.046 A 
ATOM     20  C   UNL     1      -6.475 -11.112  19.114  0.00  0.00    +0.124 A 
BRANCH  15   2
ATOM      2  O   UNL     1      -2.988 -12.198  19.003  0.00  0.00    -0.506 OA
ATOM     27  H   UNL     1      -2.306 -11.990  18.341  0.00  0.00    +0.292 HD
ENDBRANCH  15   2
BRANCH  20   3
ATOM      3  O   UNL     1      -7.568 -11.246  19.915  0.00  0.00    -0.495 OA
ATOM     25  C   UNL     1      -8.847 -11.134  19.291  0.00  0.00    +0.277 C 
ENDBRANCH  20   3
ENDBRANCH  12  14
ENDBRANCH   4  12
TORSDOF 6
ENDMDL
