MODEL 1
REMARK VINA RESULT:      -8.1      0.000      0.000
REMARK  Name = 7155500
REMARK  4 active torsions:
REMARK  status: ('A' for Active; 'I' for Inactive)
REMARK    1  A    between atoms: N_7  and  C_18
REMARK    2  A    between atoms: C_17  and  C_20
REMARK    3  A    between atoms: C_23  and  C_27
REMARK    4  A    between atoms: C_26  and  C_28
REMARK                            x       y       z     vdW  Elec       q    Type
REMARK                         _______ _______ _______ _____ _____    ______ ____
ROOT
ATOM      2  O   UNL     1      15.535   6.236  21.287  0.00  0.00    -0.266 OA
ATOM      3  O   UNL     1      11.780   7.164  17.852  0.00  0.00    -0.270 OA
ATOM      5  N   UNL     1      11.724   8.877  19.444  0.00  0.00    -0.297 N 
ATOM      6  N   UNL     1      14.205   8.156  21.285  0.00  0.00    -0.310 N 
ATOM      8  C   UNL     1      11.698   8.104  21.810  0.00  0.00    +0.027 C 
ATOM      9  C   UNL     1      12.784  10.237  21.231  0.00  0.00    +0.054 C 
ATOM     10  C   UNL     1      11.910   9.542  22.274  0.00  0.00    +0.018 C 
ATOM     11  C   UNL     1      11.003   8.081  20.436  0.00  0.00    +0.113 C 
ATOM     12  C   UNL     1      13.054   7.389  21.783  0.00  0.00    +0.130 C 
ATOM     13  C   UNL     1      12.059  10.246  19.870  0.00  0.00    +0.117 C 
ATOM     14  C   UNL     1      14.124   9.539  21.091  0.00  0.00    +0.027 A 
ATOM     15  C   UNL     1      15.219  10.239  20.747  0.00  0.00    +0.024 A 
ATOM     16  C   UNL     1      15.411   7.448  21.111  0.00  0.00    +0.273 A 
ATOM     17  C   UNL     1      12.056   8.306  18.213  0.00  0.00    +0.247 C 
ATOM     18  C   UNL     1      16.601   8.260  20.701  0.00  0.00    +0.099 A 
ATOM     19  C   UNL     1      16.481   9.583  20.547  0.00  0.00    +0.030 A 
ENDROOT
BRANCH  17  20
ATOM     20  C   UNL     1      12.819   9.120  17.262  0.00  0.00    +0.037 A 
ATOM     21  C   UNL     1      12.221   9.549  16.080  0.00  0.00    +0.013 A 
ATOM     22  C   UNL     1      14.138   9.464  17.547  0.00  0.00    +0.013 A 
ATOM     24  C   UNL     1      12.946  10.325  15.176  0.00  0.00    +0.009 A 
ATOM     25  C   UNL     1      14.864  10.240  16.643  0.00  0.00    +0.009 A 
ATOM     26  C   UNL     1      14.267  10.672  15.457  0.00  0.00    -0.018 A 
BRANCH  26  28
ATOM     28  C   UNL     1      15.020  11.476  14.520  0.00  0.00    -0.018 A 
ATOM     30  C   UNL     1      16.412  11.513  14.593  0.00  0.00    +0.008 A 
ATOM     31  C   UNL     1      14.353  12.212  13.541  0.00  0.00    +0.008 A 
ATOM     34  C   UNL     1      17.138  12.288  13.687  0.00  0.00    +0.001 A 
ATOM     35  C   UNL     1      15.079  12.986  12.635  0.00  0.00    +0.001 A 
ATOM     36  C   UNL     1      16.471  13.023  12.709  0.00  0.00    +0.000 A 
ENDBRANCH  26  28
ENDBRANCH  17  20
BRANCH  18   7
ATOM      4  O   UNL     1      18.919   8.438  22.356  0.00  0.00    -0.269 OA
ATOM      7  N   UNL     1      17.783   7.610  20.504  0.00  0.00    -0.277 N 
ATOM     23  C   UNL     1      18.877   7.738  21.348  0.00  0.00    +0.255 C 
ATOM     37  H   UNL     1      17.903   7.177  19.593  0.00  0.00    +0.155 HD
BRANCH  23  27
ATOM      1  S   UNL     1      21.543   7.739  20.858  0.00  0.00    -0.092 S 
ATOM     27  C   UNL     1      20.071   6.931  20.983  0.00  0.00    +0.074 A 
ATOM     29  C   UNL     1      20.107   5.612  20.739  0.00  0.00    +0.021 A 
ATOM     32  C   UNL     1      21.437   5.210  20.423  0.00  0.00    +0.008 A 
ATOM     33  C   UNL     1      22.318   6.268  20.451  0.00  0.00    +0.046 A 
ENDBRANCH  23  27
ENDBRANCH  18   7
TORSDOF 4
ENDMDL
MODEL 2
REMARK VINA RESULT:      -7.9      3.762      7.314
REMARK  Name = 7155500
REMARK  4 active torsions:
REMARK  status: ('A' for Active; 'I' for Inactive)
REMARK    1  A    between atoms: N_7  and  C_18
REMARK    2  A    between atoms: C_17  and  C_20
REMARK    3  A    between atoms: C_23  and  C_27
REMARK    4  A    between atoms: C_26  and  C_28
REMARK                            x       y       z     vdW  Elec       q    Type
REMARK                         _______ _______ _______ _____ _____    ______ ____
ROOT
ATOM      2  O   UNL     1      12.769  10.457  23.106  0.00  0.00    -0.266 OA
ATOM      3  O   UNL     1      13.513   6.294  20.126  0.00  0.00    -0.270 OA
ATOM      5  N   UNL     1      14.003   8.186  18.838  0.00  0.00    -0.297 N 
ATOM      6  N   UNL     1      13.640  10.534  20.940  0.00  0.00    -0.310 N 
ATOM      8  C   UNL     1      12.250   9.953  18.868  0.00  0.00    +0.027 C 
ATOM      9  C   UNL     1      14.617  10.581  18.618  0.00  0.00    +0.054 C 
ATOM     10  C   UNL     1      13.201  10.897  18.139  0.00  0.00    +0.018 C 
ATOM     11  C   UNL     1      12.601   8.488  18.550  0.00  0.00    +0.113 C 
ATOM     12  C   UNL     1      12.315  10.248  20.371  0.00  0.00    +0.130 C 
ATOM     13  C   UNL     1      14.973   9.126  18.255  0.00  0.00    +0.117 C 
ATOM     14  C   UNL     1      14.744  10.780  20.116  0.00  0.00    +0.027 A 
ATOM     15  C   UNL     1      15.918  11.153  20.653  0.00  0.00    +0.024 A 
ATOM     16  C   UNL     1      13.717  10.646  22.343  0.00  0.00    +0.273 A 
ATOM     17  C   UNL     1      14.318   7.083  19.635  0.00  0.00    +0.247 C 
ATOM     18  C   UNL     1      15.049  11.037  22.902  0.00  0.00    +0.099 A 
ATOM     19  C   UNL     1      16.071  11.282  22.075  0.00  0.00    +0.030 A 
ENDROOT
BRANCH  17  20
ATOM     20  C   UNL     1      15.732   6.839  19.940  0.00  0.00    +0.037 A 
ATOM     21  C   UNL     1      16.506   6.072  19.072  0.00  0.00    +0.013 A 
ATOM     22  C   UNL     1      16.295   7.377  21.095  0.00  0.00    +0.013 A 
ATOM     24  C   UNL     1      17.851   5.842  19.361  0.00  0.00    +0.009 A 
ATOM     25  C   UNL     1      17.640   7.147  21.384  0.00  0.00    +0.009 A 
ATOM     26  C   UNL     1      18.418   6.380  20.517  0.00  0.00    -0.018 A 
BRANCH  26  28
ATOM     28  C   UNL     1      19.813   6.140  20.817  0.00  0.00    -0.018 A 
ATOM     30  C   UNL     1      20.415   4.944  20.426  0.00  0.00    +0.008 A 
ATOM     31  C   UNL     1      20.556   7.104  21.497  0.00  0.00    +0.008 A 
ATOM     34  C   UNL     1      21.760   4.713  20.715  0.00  0.00    +0.001 A 
ATOM     35  C   UNL     1      21.901   6.874  21.785  0.00  0.00    +0.001 A 
ATOM     36  C   UNL     1      22.503   5.678  21.393  0.00  0.00    +0.000 A 
ENDBRANCH  26  28
ENDBRANCH  17  20
BRANCH  18   7
ATOM      4  O   UNL     1      14.478  13.347  24.479  0.00  0.00    -0.269 OA
ATOM      7  N   UNL     1      15.170  11.138  24.257  0.00  0.00    -0.277 N 
ATOM     23  C   UNL     1      14.876  12.293  24.968  0.00  0.00    +0.255 C 
ATOM     37  H   UNL     1      15.683  10.389  24.712  0.00  0.00    +0.155 HD
BRANCH  23  27
ATOM      1  S   UNL     1      14.272  13.366  27.382  0.00  0.00    -0.092 S 
ATOM     27  C   UNL     1      15.046  12.204  26.442  0.00  0.00    +0.074 A 
ATOM     29  C   UNL     1      15.758  11.288  27.116  0.00  0.00    +0.021 A 
ATOM     32  C   UNL     1      15.677  11.538  28.516  0.00  0.00    +0.008 A 
ATOM     33  C   UNL     1      14.900  12.640  28.800  0.00  0.00    +0.046 A 
ENDBRANCH  23  27
ENDBRANCH  18   7
TORSDOF 4
ENDMDL
MODEL 3
REMARK VINA RESULT:      -7.7     27.814     31.320
REMARK  Name = 7155500
REMARK  4 active torsions:
REMARK  status: ('A' for Active; 'I' for Inactive)
REMARK    1  A    between atoms: N_7  and  C_18
REMARK    2  A    between atoms: C_17  and  C_20
REMARK    3  A    between atoms: C_23  and  C_27
REMARK    4  A    between atoms: C_26  and  C_28
REMARK                            x       y       z     vdW  Elec       q    Type
REMARK                         _______ _______ _______ _____ _____    ______ ____
ROOT
ATOM      2  O   UNL     1     -10.732  -9.175  18.149  0.00  0.00    -0.266 OA
ATOM      3  O   UNL     1      -5.827 -10.282  19.363  0.00  0.00    -0.270 OA
ATOM      5  N   UNL     1      -6.866 -12.277  18.719  0.00  0.00    -0.297 N 
ATOM      6  N   UNL     1      -9.756 -11.279  17.874  0.00  0.00    -0.310 N 
ATOM      8  C   UNL     1      -9.034 -12.739  19.851  0.00  0.00    +0.027 C 
ATOM      9  C   UNL     1      -8.664 -13.526  17.548  0.00  0.00    +0.054 C 
ATOM     10  C   UNL     1      -9.275 -13.904  18.896  0.00  0.00    +0.018 C 
ATOM     11  C   UNL     1      -7.525 -12.479  20.009  0.00  0.00    +0.113 C 
ATOM     12  C   UNL     1      -9.780 -11.507  19.325  0.00  0.00    +0.130 C 
ATOM     13  C   UNL     1      -7.146 -13.312  17.710  0.00  0.00    +0.117 C 
ATOM     14  C   UNL     1      -9.302 -12.267  16.993  0.00  0.00    +0.027 A 
ATOM     15  C   UNL     1      -9.397 -12.084  15.665  0.00  0.00    +0.024 A 
ATOM     16  C   UNL     1     -10.304 -10.065  17.414  0.00  0.00    +0.273 A 
ATOM     17  C   UNL     1      -6.064 -11.150  18.525  0.00  0.00    +0.247 C 
ATOM     18  C   UNL     1     -10.366  -9.889  15.928  0.00  0.00    +0.099 A 
ATOM     19  C   UNL     1      -9.939 -10.869  15.125  0.00  0.00    +0.030 A 
ENDROOT
BRANCH  17  20
ATOM     20  C   UNL     1      -5.457 -10.958  17.204  0.00  0.00    +0.037 A 
ATOM     21  C   UNL     1      -4.153 -11.388  16.970  0.00  0.00    +0.013 A 
ATOM     22  C   UNL     1      -6.189 -10.349  16.187  0.00  0.00    +0.013 A 
ATOM     24  C   UNL     1      -3.577 -11.208  15.713  0.00  0.00    +0.009 A 
ATOM     25  C   UNL     1      -5.613 -10.168  14.930  0.00  0.00    +0.009 A 
ATOM     26  C   UNL     1      -4.307 -10.598  14.693  0.00  0.00    -0.018 A 
BRANCH  26  28
ATOM     28  C   UNL     1      -3.709 -10.409  13.389  0.00  0.00    -0.018 A 
ATOM     30  C   UNL     1      -4.520 -10.212  12.271  0.00  0.00    +0.008 A 
ATOM     31  C   UNL     1      -2.322 -10.424  13.250  0.00  0.00    +0.008 A 
ATOM     34  C   UNL     1      -3.943 -10.029  11.014  0.00  0.00    +0.001 A 
ATOM     35  C   UNL     1      -1.744 -10.240  11.993  0.00  0.00    +0.001 A 
ATOM     36  C   UNL     1      -2.556 -10.042  10.875  0.00  0.00    +0.000 A 
ENDBRANCH  26  28
ENDBRANCH  17  20
BRANCH  18   7
ATOM      4  O   UNL     1     -13.096  -9.376  15.274  0.00  0.00    -0.269 OA
ATOM      7  N   UNL     1     -10.872  -8.719  15.442  0.00  0.00    -0.277 N 
ATOM     23  C   UNL     1     -12.214  -8.532  15.143  0.00  0.00    +0.255 C 
ATOM     37  H   UNL     1     -10.188  -8.045  15.113  0.00  0.00    +0.155 HD
BRANCH  23  27
ATOM      1  S   UNL     1     -14.125  -6.983  14.006  0.00  0.00    -0.092 S 
ATOM     27  C   UNL     1     -12.580  -7.180  14.646  0.00  0.00    +0.074 A 
ATOM     29  C   UNL     1     -11.807  -6.083  14.650  0.00  0.00    +0.021 A 
ATOM     32  C   UNL     1     -12.516  -4.982  14.089  0.00  0.00    +0.008 A 
ATOM     33  C   UNL     1     -13.790  -5.333  13.697  0.00  0.00    +0.046 A 
ENDBRANCH  23  27
ENDBRANCH  18   7
TORSDOF 4
ENDMDL
MODEL 4
REMARK VINA RESULT:      -7.6     31.296     33.083
REMARK  Name = 7155500
REMARK  4 active torsions:
REMARK  status: ('A' for Active; 'I' for Inactive)
REMARK    1  A    between atoms: N_7  and  C_18
REMARK    2  A    between atoms: C_17  and  C_20
REMARK    3  A    between atoms: C_23  and  C_27
REMARK    4  A    between atoms: C_26  and  C_28
REMARK                            x       y       z     vdW  Elec       q    Type
REMARK                         _______ _______ _______ _____ _____    ______ ____
ROOT
ATOM      2  O   UNL     1     -12.327  -7.493   9.221  0.00  0.00    -0.266 OA
ATOM      3  O   UNL     1     -16.576  -4.970  10.752  0.00  0.00    -0.270 OA
ATOM      5  N   UNL     1     -14.793  -4.222  12.070  0.00  0.00    -0.297 N 
ATOM      6  N   UNL     1     -12.334  -5.779  10.808  0.00  0.00    -0.310 N 
ATOM      8  C   UNL     1     -13.432  -6.027  13.109  0.00  0.00    +0.027 C 
ATOM      9  C   UNL     1     -12.366  -3.897  12.484  0.00  0.00    +0.054 C 
ATOM     10  C   UNL     1     -12.407  -4.988  13.554  0.00  0.00    +0.018 C 
ATOM     11  C   UNL     1     -14.821  -5.381  12.961  0.00  0.00    +0.113 C 
ATOM     12  C   UNL     1     -12.951  -6.668  11.802  0.00  0.00    +0.130 C 
ATOM     13  C   UNL     1     -13.751  -3.228  12.375  0.00  0.00    +0.117 C 
ATOM     14  C   UNL     1     -11.968  -4.469  11.137  0.00  0.00    +0.027 A 
ATOM     15  C   UNL     1     -11.301  -3.711  10.250  0.00  0.00    +0.024 A 
ATOM     16  C   UNL     1     -12.041  -6.341   9.550  0.00  0.00    +0.273 A 
ATOM     17  C   UNL     1     -15.704  -4.144  11.014  0.00  0.00    +0.247 C 
ATOM     18  C   UNL     1     -11.321  -5.454   8.581  0.00  0.00    +0.099 A 
ATOM     19  C   UNL     1     -10.973  -4.216   8.947  0.00  0.00    +0.030 A 
ENDROOT
BRANCH  17  20
ATOM     20  C   UNL     1     -15.615  -2.989  10.114  0.00  0.00    +0.037 A 
ATOM     21  C   UNL     1     -14.796  -3.048   8.989  0.00  0.00    +0.013 A 
ATOM     22  C   UNL     1     -16.352  -1.839  10.387  0.00  0.00    +0.013 A 
ATOM     24  C   UNL     1     -14.713  -1.951   8.132  0.00  0.00    +0.009 A 
ATOM     25  C   UNL     1     -16.269  -0.742   9.530  0.00  0.00    +0.009 A 
ATOM     26  C   UNL     1     -15.450  -0.798   8.402  0.00  0.00    -0.018 A 
BRANCH  26  28
ATOM     28  C   UNL     1     -15.362   0.341   7.514  0.00  0.00    -0.018 A 
ATOM     30  C   UNL     1     -16.508   0.820   6.879  0.00  0.00    +0.008 A 
ATOM     31  C   UNL     1     -14.133   0.961   7.294  0.00  0.00    +0.008 A 
ATOM     34  C   UNL     1     -16.424   1.919   6.024  0.00  0.00    +0.001 A 
ATOM     35  C   UNL     1     -14.048   2.060   6.440  0.00  0.00    +0.001 A 
ATOM     36  C   UNL     1     -15.194   2.539   5.805  0.00  0.00    +0.000 A 
ENDBRANCH  26  28
ENDBRANCH  17  20
BRANCH  18   7
ATOM      4  O   UNL     1      -8.957  -6.872   7.840  0.00  0.00    -0.269 OA
ATOM      7  N   UNL     1     -11.036  -5.955   7.345  0.00  0.00    -0.277 N 
ATOM     23  C   UNL     1      -9.865  -6.637   7.047  0.00  0.00    +0.255 C 
ATOM     37  H   UNL     1     -11.631  -5.630   6.589  0.00  0.00    +0.155 HD
BRANCH  23  27
ATOM      1  S   UNL     1      -8.328  -7.943   5.236  0.00  0.00    -0.092 S 
ATOM     27  C   UNL     1      -9.743  -7.129   5.650  0.00  0.00    +0.074 A 
ATOM     29  C   UNL     1     -10.647  -6.995   4.667  0.00  0.00    +0.021 A 
ATOM     32  C   UNL     1     -10.163  -7.600   3.471  0.00  0.00    +0.008 A 
ATOM     33  C   UNL     1      -8.913  -8.153   3.641  0.00  0.00    +0.046 A 
ENDBRANCH  23  27
ENDBRANCH  18   7
TORSDOF 4
ENDMDL
MODEL 5
REMARK VINA RESULT:      -7.5      3.801      7.924
REMARK  Name = 7155500
REMARK  4 active torsions:
REMARK  status: ('A' for Active; 'I' for Inactive)
REMARK    1  A    between atoms: N_7  and  C_18
REMARK    2  A    between atoms: C_17  and  C_20
REMARK    3  A    between atoms: C_23  and  C_27
REMARK    4  A    between atoms: C_26  and  C_28
REMARK                            x       y       z     vdW  Elec       q    Type
REMARK                         _______ _______ _______ _____ _____    ______ ____
ROOT
ATOM      2  O   UNL     1      11.051  10.307  22.011  0.00  0.00    -0.266 OA
ATOM      3  O   UNL     1      14.124   6.286  20.940  0.00  0.00    -0.270 OA
ATOM      5  N   UNL     1      14.022   7.630  19.028  0.00  0.00    -0.297 N 
ATOM      6  N   UNL     1      12.248  10.065  20.020  0.00  0.00    -0.310 N 
ATOM      8  C   UNL     1      11.722   8.241  18.301  0.00  0.00    +0.027 C 
ATOM      9  C   UNL     1      13.585   9.799  17.901  0.00  0.00    +0.054 C 
ATOM     10  C   UNL     1      12.309   9.221  17.291  0.00  0.00    +0.018 C 
ATOM     11  C   UNL     1      12.724   7.111  18.598  0.00  0.00    +0.113 C 
ATOM     12  C   UNL     1      11.329   9.012  19.567  0.00  0.00    +0.130 C 
ATOM     13  C   UNL     1      14.598   8.665  18.153  0.00  0.00    +0.117 C 
ATOM     14  C   UNL     1      13.289  10.518  19.203  0.00  0.00    +0.027 A 
ATOM     15  C   UNL     1      14.045  11.561  19.588  0.00  0.00    +0.024 A 
ATOM     16  C   UNL     1      11.966  10.659  21.266  0.00  0.00    +0.273 A 
ATOM     17  C   UNL     1      14.600   7.148  20.205  0.00  0.00    +0.247 C 
ATOM     18  C   UNL     1      12.849  11.800  21.670  0.00  0.00    +0.099 A 
ATOM     19  C   UNL     1      13.819  12.212  20.847  0.00  0.00    +0.030 A 
ENDROOT
BRANCH  17  20
ATOM     20  C   UNL     1      15.880   7.726  20.628  0.00  0.00    +0.037 A 
ATOM     21  C   UNL     1      17.064   7.027  20.404  0.00  0.00    +0.013 A 
ATOM     22  C   UNL     1      15.906   8.973  21.249  0.00  0.00    +0.013 A 
ATOM     24  C   UNL     1      18.281   7.578  20.805  0.00  0.00    +0.009 A 
ATOM     25  C   UNL     1      17.124   9.523  21.649  0.00  0.00    +0.009 A 
ATOM     26  C   UNL     1      18.311   8.826  21.426  0.00  0.00    -0.018 A 
BRANCH  26  28
ATOM     28  C   UNL     1      19.574   9.396  21.843  0.00  0.00    -0.018 A 
ATOM     30  C   UNL     1      20.757   9.001  21.218  0.00  0.00    +0.008 A 
ATOM     31  C   UNL     1      19.608  10.341  22.867  0.00  0.00    +0.008 A 
ATOM     34  C   UNL     1      21.975   9.553  21.620  0.00  0.00    +0.001 A 
ATOM     35  C   UNL     1      20.825  10.893  23.268  0.00  0.00    +0.001 A 
ATOM     36  C   UNL     1      22.009  10.498  22.644  0.00  0.00    +0.000 A 
ENDBRANCH  26  28
ENDBRANCH  17  20
BRANCH  18   7
ATOM      4  O   UNL     1      11.155  14.044  22.158  0.00  0.00    -0.269 OA
ATOM      7  N   UNL     1      12.620  12.389  22.878  0.00  0.00    -0.277 N 
ATOM     23  C   UNL     1      11.783  13.482  23.051  0.00  0.00    +0.255 C 
ATOM     37  H   UNL     1      13.252  12.121  23.627  0.00  0.00    +0.155 HD
BRANCH  23  27
ATOM      1  S   UNL     1      13.033  14.515  25.223  0.00  0.00    -0.092 S 
ATOM     27  C   UNL     1      11.641  13.972  24.447  0.00  0.00    +0.074 A 
ATOM     29  C   UNL     1      10.511  14.030  25.169  0.00  0.00    +0.021 A 
ATOM     32  C   UNL     1      10.784  14.559  26.463  0.00  0.00    +0.008 A 
ATOM     33  C   UNL     1      12.118  14.865  26.626  0.00  0.00    +0.046 A 
ENDBRANCH  23  27
ENDBRANCH  18   7
TORSDOF 4
ENDMDL
MODEL 6
REMARK VINA RESULT:      -7.5     13.438     17.428
REMARK  Name = 7155500
REMARK  4 active torsions:
REMARK  status: ('A' for Active; 'I' for Inactive)
REMARK    1  A    between atoms: N_7  and  C_18
REMARK    2  A    between atoms: C_17  and  C_20
REMARK    3  A    between atoms: C_23  and  C_27
REMARK    4  A    between atoms: C_26  and  C_28
REMARK                            x       y       z     vdW  Elec       q    Type
REMARK                         _______ _______ _______ _____ _____    ______ ____
ROOT
ATOM      2  O   UNL     1      14.698   8.042   0.446  0.00  0.00    -0.266 OA
ATOM      3  O   UNL     1       9.675   8.876   1.358  0.00  0.00    -0.270 OA
ATOM      5  N   UNL     1       9.887   6.718   0.478  0.00  0.00    -0.297 N 
ATOM      6  N   UNL     1      13.033   6.424   0.191  0.00  0.00    -0.310 N 
ATOM      8  C   UNL     1      11.224   6.571  -1.616  0.00  0.00    +0.027 C 
ATOM      9  C   UNL     1      11.221   4.687  -0.032  0.00  0.00    +0.054 C 
ATOM     10  C   UNL     1      11.199   5.049  -1.516  0.00  0.00    +0.018 C 
ATOM     11  C   UNL     1       9.998   7.176  -0.907  0.00  0.00    +0.113 C 
ATOM     12  C   UNL     1      12.543   7.084  -1.027  0.00  0.00    +0.130 C 
ATOM     13  C   UNL     1       9.967   5.260   0.659  0.00  0.00    +0.117 C 
ATOM     14  C   UNL     1      12.467   5.226   0.643  0.00  0.00    +0.027 A 
ATOM     15  C   UNL     1      13.004   4.579   1.691  0.00  0.00    +0.024 A 
ATOM     16  C   UNL     1      14.156   7.001   0.817  0.00  0.00    +0.273 A 
ATOM     17  C   UNL     1       9.741   7.657   1.502  0.00  0.00    +0.247 C 
ATOM     18  C   UNL     1      14.707   6.262   1.998  0.00  0.00    +0.099 A 
ATOM     19  C   UNL     1      14.146   5.110   2.381  0.00  0.00    +0.030 A 
ENDROOT
BRANCH  17  20
ATOM     20  C   UNL     1       9.679   7.163   2.882  0.00  0.00    +0.037 A 
ATOM     21  C   UNL     1      10.798   6.562   3.454  0.00  0.00    +0.013 A 
ATOM     22  C   UNL     1       8.503   7.299   3.615  0.00  0.00    +0.013 A 
ATOM     24  C   UNL     1      10.740   6.094   4.767  0.00  0.00    +0.009 A 
ATOM     25  C   UNL     1       8.445   6.831   4.928  0.00  0.00    +0.009 A 
ATOM     26  C   UNL     1       9.564   6.229   5.504  0.00  0.00    -0.018 A 
BRANCH  26  28
ATOM     28  C   UNL     1       9.503   5.743   6.865  0.00  0.00    -0.018 A 
ATOM     30  C   UNL     1       9.850   4.422   7.150  0.00  0.00    +0.008 A 
ATOM     31  C   UNL     1       9.099   6.594   7.892  0.00  0.00    +0.008 A 
ATOM     34  C   UNL     1       9.793   3.953   8.463  0.00  0.00    +0.001 A 
ATOM     35  C   UNL     1       9.043   6.126   9.205  0.00  0.00    +0.001 A 
ATOM     36  C   UNL     1       9.389   4.805   9.490  0.00  0.00    +0.000 A 
ENDBRANCH  26  28
ENDBRANCH  17  20
BRANCH  18   7
ATOM      4  O   UNL     1      14.620   8.042   4.227  0.00  0.00    -0.269 OA
ATOM      7  N   UNL     1      15.782   6.797   2.643  0.00  0.00    -0.277 N 
ATOM     23  C   UNL     1      15.674   7.660   3.725  0.00  0.00    +0.255 C 
ATOM     37  H   UNL     1      16.675   6.699   2.170  0.00  0.00    +0.155 HD
BRANCH  23  27
ATOM      1  S   UNL     1      16.903   8.828   5.840  0.00  0.00    -0.092 S 
ATOM     27  C   UNL     1      16.959   8.122   4.312  0.00  0.00    +0.074 A 
ATOM     29  C   UNL     1      18.176   8.038   3.754  0.00  0.00    +0.021 A 
ATOM     32  C   UNL     1      19.155   8.589   4.629  0.00  0.00    +0.008 A 
ATOM     33  C   UNL     1      18.598   9.056   5.800  0.00  0.00    +0.046 A 
ENDBRANCH  23  27
ENDBRANCH  18   7
TORSDOF 4
ENDMDL
MODEL 7
REMARK VINA RESULT:      -7.4      9.979     13.487
REMARK  Name = 7155500
REMARK  4 active torsions:
REMARK  status: ('A' for Active; 'I' for Inactive)
REMARK    1  A    between atoms: N_7  and  C_18
REMARK    2  A    between atoms: C_17  and  C_20
REMARK    3  A    between atoms: C_23  and  C_27
REMARK    4  A    between atoms: C_26  and  C_28
REMARK                            x       y       z     vdW  Elec       q    Type
REMARK                         _______ _______ _______ _____ _____    ______ ____
ROOT
ATOM      2  O   UNL     1      12.801   7.404   3.582  0.00  0.00    -0.266 OA
ATOM      3  O   UNL     1       9.280  10.916   5.006  0.00  0.00    -0.270 OA
ATOM      5  N   UNL     1       8.684   8.876   5.985  0.00  0.00    -0.297 N 
ATOM      6  N   UNL     1      11.076   6.989   5.101  0.00  0.00    -0.310 N 
ATOM      8  C   UNL     1       8.608   6.946   4.415  0.00  0.00    +0.027 C 
ATOM      9  C   UNL     1       9.232   6.585   6.770  0.00  0.00    +0.054 C 
ATOM     10  C   UNL     1       8.442   5.999   5.600  0.00  0.00    +0.018 C 
ATOM     11  C   UNL     1       8.071   8.345   4.768  0.00  0.00    +0.113 C 
ATOM     12  C   UNL     1      10.088   6.980   4.014  0.00  0.00    +0.130 C 
ATOM     13  C   UNL     1       8.657   7.966   7.142  0.00  0.00    +0.117 C 
ATOM     14  C   UNL     1      10.702   6.720   6.422  0.00  0.00    +0.027 A 
ATOM     15  C   UNL     1      11.637   6.619   7.382  0.00  0.00    +0.024 A 
ATOM     16  C   UNL     1      12.423   7.182   4.732  0.00  0.00    +0.273 A 
ATOM     17  C   UNL     1       9.253  10.151   5.968  0.00  0.00    +0.247 C 
ATOM     18  C   UNL     1      13.430   7.088   5.836  0.00  0.00    +0.099 A 
ATOM     19  C   UNL     1      13.028   6.808   7.080  0.00  0.00    +0.030 A 
ENDROOT
BRANCH  17  20
ATOM     20  C   UNL     1       9.899  10.631   7.195  0.00  0.00    +0.037 A 
ATOM     21  C   UNL     1       9.145  11.288   8.164  0.00  0.00    +0.013 A 
ATOM     22  C   UNL     1      11.263  10.424   7.386  0.00  0.00    +0.013 A 
ATOM     24  C   UNL     1       9.758  11.742   9.331  0.00  0.00    +0.009 A 
ATOM     25  C   UNL     1      11.876  10.879   8.554  0.00  0.00    +0.009 A 
ATOM     26  C   UNL     1      11.124  11.537   9.527  0.00  0.00    -0.018 A 
BRANCH  26  28
ATOM     28  C   UNL     1      11.760  12.010  10.737  0.00  0.00    -0.018 A 
ATOM     30  C   UNL     1      11.037  12.067  11.928  0.00  0.00    +0.008 A 
ATOM     31  C   UNL     1      13.096  12.407  10.712  0.00  0.00    +0.008 A 
ATOM     34  C   UNL     1      11.652  12.521  13.096  0.00  0.00    +0.001 A 
ATOM     35  C   UNL     1      13.711  12.860  11.879  0.00  0.00    +0.001 A 
ATOM     36  C   UNL     1      12.989  12.918  13.071  0.00  0.00    +0.000 A 
ENDBRANCH  26  28
ENDBRANCH  17  20
BRANCH  18   7
ATOM      4  O   UNL     1      14.951   9.444   6.368  0.00  0.00    -0.269 OA
ATOM      7  N   UNL     1      14.743   7.287   5.524  0.00  0.00    -0.277 N 
ATOM     23  C   UNL     1      15.428   8.459   5.810  0.00  0.00    +0.255 C 
ATOM     37  H   UNL     1      15.152   6.613   4.884  0.00  0.00    +0.155 HD
BRANCH  23  27
ATOM      1  S   UNL     1      17.221   8.192   3.795  0.00  0.00    -0.092 S 
ATOM     27  C   UNL     1      16.861   8.481   5.414  0.00  0.00    +0.074 A 
ATOM     29  C   UNL     1      17.914   8.709   6.213  0.00  0.00    +0.021 A 
ATOM     32  C   UNL     1      19.122   8.647   5.461  0.00  0.00    +0.008 A 
ATOM     33  C   UNL     1      18.890   8.373   4.131  0.00  0.00    +0.046 A 
ENDBRANCH  23  27
ENDBRANCH  18   7
TORSDOF 4
ENDMDL
MODEL 8
REMARK VINA RESULT:      -7.1     20.775     24.348
REMARK  Name = 7155500
REMARK  4 active torsions:
REMARK  status: ('A' for Active; 'I' for Inactive)
REMARK    1  A    between atoms: N_7  and  C_18
REMARK    2  A    between atoms: C_17  and  C_20
REMARK    3  A    between atoms: C_23  and  C_27
REMARK    4  A    between atoms: C_26  and  C_28
REMARK                            x       y       z     vdW  Elec       q    Type
REMARK                         _______ _______ _______ _____ _____    ______ ____
ROOT
ATOM      2  O   UNL     1       5.970 -10.058  34.740  0.00  0.00    -0.266 OA
ATOM      3  O   UNL     1      10.166 -12.669  33.209  0.00  0.00    -0.270 OA
ATOM      5  N   UNL     1       8.806 -12.347  31.332  0.00  0.00    -0.297 N 
ATOM      6  N   UNL     1       6.441 -10.596  32.516  0.00  0.00    -0.310 N 
ATOM      8  C   UNL     1       6.425 -13.004  31.642  0.00  0.00    +0.027 C 
ATOM      9  C   UNL     1       6.996 -11.153  30.122  0.00  0.00    +0.054 C 
ATOM     10  C   UNL     1       6.083 -12.364  30.300  0.00  0.00    +0.018 C 
ATOM     11  C   UNL     1       7.900 -13.446  31.664  0.00  0.00    +0.113 C 
ATOM     12  C   UNL     1       6.105 -12.006  32.761  0.00  0.00    +0.130 C 
ATOM     13  C   UNL     1       8.468 -11.613  30.102  0.00  0.00    +0.117 C 
ATOM     14  C   UNL     1       6.791 -10.147  31.239  0.00  0.00    +0.027 A 
ATOM     15  C   UNL     1       6.981  -8.835  31.012  0.00  0.00    +0.024 A 
ATOM     16  C   UNL     1       6.293  -9.712  33.603  0.00  0.00    +0.273 A 
ATOM     17  C   UNL     1       9.878 -12.060  32.180  0.00  0.00    +0.247 C 
ATOM     18  C   UNL     1       6.540  -8.263  33.315  0.00  0.00    +0.099 A 
ATOM     19  C   UNL     1       6.853  -7.877  32.074  0.00  0.00    +0.030 A 
ENDROOT
BRANCH  17  20
ATOM     20  C   UNL     1      10.738 -10.922  31.839  0.00  0.00    +0.037 A 
ATOM     21  C   UNL     1      11.886 -11.124  31.077  0.00  0.00    +0.013 A 
ATOM     22  C   UNL     1      10.401  -9.643  32.276  0.00  0.00    +0.013 A 
ATOM     24  C   UNL     1      12.702 -10.042  30.750  0.00  0.00    +0.009 A 
ATOM     25  C   UNL     1      11.217  -8.561  31.949  0.00  0.00    +0.009 A 
ATOM     26  C   UNL     1      12.368  -8.760  31.186  0.00  0.00    -0.018 A 
BRANCH  26  28
ATOM     28  C   UNL     1      13.215  -7.637  30.849  0.00  0.00    -0.018 A 
ATOM     30  C   UNL     1      13.069  -6.425  31.524  0.00  0.00    +0.008 A 
ATOM     31  C   UNL     1      14.179  -7.766  29.849  0.00  0.00    +0.008 A 
ATOM     34  C   UNL     1      13.888  -5.343  31.199  0.00  0.00    +0.001 A 
ATOM     35  C   UNL     1      14.998  -6.685  29.525  0.00  0.00    +0.001 A 
ATOM     36  C   UNL     1      14.852  -5.473  30.200  0.00  0.00    +0.000 A 
ENDBRANCH  26  28
ENDBRANCH  17  20
BRANCH  18   7
ATOM      4  O   UNL     1       8.654  -7.375  35.015  0.00  0.00    -0.269 OA
ATOM      7  N   UNL     1       6.427  -7.377  34.345  0.00  0.00    -0.277 N 
ATOM     23  C   UNL     1       7.496  -6.983  35.137  0.00  0.00    +0.255 C 
ATOM     37  H   UNL     1       5.480  -7.165  34.644  0.00  0.00    +0.155 HD
BRANCH  23  27
ATOM      1  S   UNL     1       6.426  -6.558  37.591  0.00  0.00    -0.092 S 
ATOM     27  C   UNL     1       7.182  -5.990  36.198  0.00  0.00    +0.074 A 
ATOM     29  C   UNL     1       7.436  -4.673  36.168  0.00  0.00    +0.021 A 
ATOM     32  C   UNL     1       6.985  -4.060  37.373  0.00  0.00    +0.008 A 
ATOM     33  C   UNL     1       6.415  -4.972  38.235  0.00  0.00    +0.046 A 
ENDBRANCH  23  27
ENDBRANCH  18   7
TORSDOF 4
ENDMDL
MODEL 9
REMARK VINA RESULT:      -7.0     14.022     18.330
REMARK  Name = 7155500
REMARK  4 active torsions:
REMARK  status: ('A' for Active; 'I' for Inactive)
REMARK    1  A    between atoms: N_7  and  C_18
REMARK    2  A    between atoms: C_17  and  C_20
REMARK    3  A    between atoms: C_23  and  C_27
REMARK    4  A    between atoms: C_26  and  C_28
REMARK                            x       y       z     vdW  Elec       q    Type
REMARK                         _______ _______ _______ _____ _____    ______ ____
ROOT
ATOM      2  O   UNL     1      22.209  -4.425  24.984  0.00  0.00    -0.266 OA
ATOM      3  O   UNL     1      17.992  -4.636  27.972  0.00  0.00    -0.270 OA
ATOM      5  N   UNL     1      17.367  -3.681  25.930  0.00  0.00    -0.297 N 
ATOM      6  N   UNL     1      20.064  -3.842  24.267  0.00  0.00    -0.310 N 
ATOM      8  C   UNL     1      18.810  -1.799  25.171  0.00  0.00    +0.027 C 
ATOM      9  C   UNL     1      17.732  -3.262  23.509  0.00  0.00    +0.054 C 
ATOM     10  C   UNL     1      18.103  -1.812  23.819  0.00  0.00    +0.018 C 
ATOM     11  C   UNL     1      17.882  -2.354  26.267  0.00  0.00    +0.113 C 
ATOM     12  C   UNL     1      20.111  -2.603  25.056  0.00  0.00    +0.130 C 
ATOM     13  C   UNL     1      16.768  -3.792  24.590  0.00  0.00    +0.117 C 
ATOM     14  C   UNL     1      18.967  -4.140  23.452  0.00  0.00    +0.027 A 
ATOM     15  C   UNL     1      18.994  -5.219  22.650  0.00  0.00    +0.024 A 
ATOM     16  C   UNL     1      21.214  -4.656  24.297  0.00  0.00    +0.273 A 
ATOM     17  C   UNL     1      17.492  -4.722  26.852  0.00  0.00    +0.247 C 
ATOM     18  C   UNL     1      21.193  -5.862  23.410  0.00  0.00    +0.099 A 
ATOM     19  C   UNL     1      20.130  -6.096  22.632  0.00  0.00    +0.030 A 
ENDROOT
BRANCH  17  20
ATOM     20  C   UNL     1      17.006  -6.049  26.459  0.00  0.00    +0.037 A 
ATOM     21  C   UNL     1      15.775  -6.502  26.927  0.00  0.00    +0.013 A 
ATOM     22  C   UNL     1      17.776  -6.848  25.618  0.00  0.00    +0.013 A 
ATOM     24  C   UNL     1      15.311  -7.763  26.552  0.00  0.00    +0.009 A 
ATOM     25  C   UNL     1      17.312  -8.109  25.243  0.00  0.00    +0.009 A 
ATOM     26  C   UNL     1      16.080  -8.566  25.710  0.00  0.00    -0.018 A 
BRANCH  26  28
ATOM     28  C   UNL     1      15.600  -9.875  25.322  0.00  0.00    -0.018 A 
ATOM     30  C   UNL     1      14.247 -10.066  25.039  0.00  0.00    +0.008 A 
ATOM     31  C   UNL     1      16.489 -10.945  25.230  0.00  0.00    +0.008 A 
ATOM     34  C   UNL     1      13.785 -11.328  24.664  0.00  0.00    +0.001 A 
ATOM     35  C   UNL     1      16.027 -12.206  24.854  0.00  0.00    +0.001 A 
ATOM     36  C   UNL     1      14.675 -12.397  24.571  0.00  0.00    +0.000 A 
ENDBRANCH  26  28
ENDBRANCH  17  20
BRANCH  18   7
ATOM      4  O   UNL     1      21.518  -8.197  25.019  0.00  0.00    -0.269 OA
ATOM      7  N   UNL     1      22.279  -6.686  23.424  0.00  0.00    -0.277 N 
ATOM     23  C   UNL     1      22.377  -7.810  24.232  0.00  0.00    +0.255 C 
ATOM     37  H   UNL     1      23.110  -6.330  22.962  0.00  0.00    +0.155 HD
BRANCH  23  27
ATOM      1  S   UNL     1      23.639 -10.157  24.730  0.00  0.00    -0.092 S 
ATOM     27  C   UNL     1      23.629  -8.599  24.091  0.00  0.00    +0.074 A 
ATOM     29  C   UNL     1      24.768  -8.203  23.503  0.00  0.00    +0.021 A 
ATOM     32  C   UNL     1      25.741  -9.242  23.569  0.00  0.00    +0.008 A 
ATOM     33  C   UNL     1      25.258 -10.361  24.211  0.00  0.00    +0.046 A 
ENDBRANCH  23  27
ENDBRANCH  18   7
TORSDOF 4
ENDMDL
MODEL 10
REMARK VINA RESULT:      -6.9     23.486     27.617
REMARK  Name = 7155500
REMARK  4 active torsions:
REMARK  status: ('A' for Active; 'I' for Inactive)
REMARK    1  A    between atoms: N_7  and  C_18
REMARK    2  A    between atoms: C_17  and  C_20
REMARK    3  A    between atoms: C_23  and  C_27
REMARK    4  A    between atoms: C_26  and  C_28
REMARK                            x       y       z     vdW  Elec       q    Type
REMARK                         _______ _______ _______ _____ _____    ______ ____
ROOT
ATOM      2  O   UNL     1      -4.661  12.356  32.990  0.00  0.00    -0.266 OA
ATOM      3  O   UNL     1      -0.225  10.328  34.714  0.00  0.00    -0.270 OA
ATOM      5  N   UNL     1      -0.650  12.265  35.956  0.00  0.00    -0.297 N 
ATOM      6  N   UNL     1      -3.470  13.176  34.824  0.00  0.00    -0.310 N 
ATOM      8  C   UNL     1      -1.171  14.284  34.598  0.00  0.00    +0.027 C 
ATOM      9  C   UNL     1      -2.186  14.012  36.825  0.00  0.00    +0.054 C 
ATOM     10  C   UNL     1      -1.563  15.029  35.870  0.00  0.00    +0.018 C 
ATOM     11  C   UNL     1      -0.158  13.170  34.919  0.00  0.00    +0.113 C 
ATOM     12  C   UNL     1      -2.441  13.736  33.936  0.00  0.00    +0.130 C 
ATOM     13  C   UNL     1      -1.148  12.926  37.173  0.00  0.00    +0.117 C 
ATOM     14  C   UNL     1      -3.413  13.367  36.209  0.00  0.00    +0.027 A 
ATOM     15  C   UNL     1      -4.423  12.948  36.991  0.00  0.00    +0.024 A 
ATOM     16  C   UNL     1      -4.559  12.531  34.204  0.00  0.00    +0.273 A 
ATOM     17  C   UNL     1      -0.639  10.887  35.728  0.00  0.00    +0.247 C 
ATOM     18  C   UNL     1      -5.649  12.055  35.114  0.00  0.00    +0.099 A 
ATOM     19  C   UNL     1      -5.561  12.278  36.429  0.00  0.00    +0.030 A 
ENDROOT
BRANCH  17  20
ATOM     20  C   UNL     1      -1.183  10.013  36.773  0.00  0.00    +0.037 A 
ATOM     21  C   UNL     1      -0.333   9.462  37.728  0.00  0.00    +0.013 A 
ATOM     22  C   UNL     1      -2.549   9.741  36.807  0.00  0.00    +0.013 A 
ATOM     24  C   UNL     1      -0.851   8.633  38.723  0.00  0.00    +0.009 A 
ATOM     25  C   UNL     1      -3.067   8.912  37.801  0.00  0.00    +0.009 A 
ATOM     26  C   UNL     1      -2.218   8.358  38.760  0.00  0.00    -0.018 A 
BRANCH  26  28
ATOM     28  C   UNL     1      -2.755   7.497  39.791  0.00  0.00    -0.018 A 
ATOM     30  C   UNL     1      -2.132   6.283  40.080  0.00  0.00    +0.008 A 
ATOM     31  C   UNL     1      -3.894   7.882  40.497  0.00  0.00    +0.008 A 
ATOM     34  C   UNL     1      -2.650   5.453  41.075  0.00  0.00    +0.001 A 
ATOM     35  C   UNL     1      -4.411   7.053  41.493  0.00  0.00    +0.001 A 
ATOM     36  C   UNL     1      -3.788   5.839  41.782  0.00  0.00    +0.000 A 
ENDBRANCH  26  28
ENDBRANCH  17  20
BRANCH  18   7
ATOM      4  O   UNL     1      -8.063  13.265  34.189  0.00  0.00    -0.269 OA
ATOM      7  N   UNL     1      -6.712  11.409  34.555  0.00  0.00    -0.277 N 
ATOM     23  C   UNL     1      -7.861  12.056  34.123  0.00  0.00    +0.255 C 
ATOM     37  H   UNL     1      -6.715  10.398  34.651  0.00  0.00    +0.155 HD
BRANCH  23  27
ATOM      1  S   UNL     1      -9.744  11.791  32.191  0.00  0.00    -0.092 S 
ATOM     27  C   UNL     1      -8.903  11.185  33.519  0.00  0.00    +0.074 A 
ATOM     29  C   UNL     1      -9.254   9.953  33.917  0.00  0.00    +0.021 A 
ATOM     32  C   UNL     1     -10.292   9.446  33.084  0.00  0.00    +0.008 A 
ATOM     33  C   UNL     1     -10.654  10.344  32.104  0.00  0.00    +0.046 A 
ENDBRANCH  23  27
ENDBRANCH  18   7
TORSDOF 4
ENDMDL
