MODEL 1
REMARK VINA RESULT:      -7.5      0.000      0.000
REMARK  Name = 11913350
REMARK  4 active torsions:
REMARK  status: ('A' for Active; 'I' for Inactive)
REMARK    1  A    between atoms: N_6  and  C_12
REMARK    2  A    between atoms: N_7  and  C_13
REMARK    3  A    between atoms: C_17  and  C_18
REMARK    4  A    between atoms: C_19  and  C_23
REMARK                            x       y       z     vdW  Elec       q    Type
REMARK                         _______ _______ _______ _____ _____    ______ ____
ROOT
ATOM      2  O   UNL     1      -4.936  -8.718  10.492  0.00  0.00    -0.370 OA
ATOM      3  O   UNL     1      -6.277 -11.526  10.195  0.00  0.00    -0.370 OA
ATOM     10  C   UNL     1      -4.937 -11.098  10.492  0.00  0.00    +0.171 C 
ATOM     11  C   UNL     1      -4.664  -9.859   9.662  0.00  0.00    +0.171 C 
ATOM     12  C   UNL     1      -4.846 -10.614  11.920  0.00  0.00    +0.130 C 
ATOM     13  C   UNL     1      -5.670  -9.939   8.539  0.00  0.00    +0.130 C 
ATOM     14  C   UNL     1      -5.290  -9.167  11.810  0.00  0.00    +0.185 C 
ATOM     15  C   UNL     1      -6.829 -10.676   9.179  0.00  0.00    +0.185 C 
ENDROOT
BRANCH  12   6
ATOM      6  N   UNL     1      -3.477 -10.684  12.381  0.00  0.00    -0.306 N 
ATOM      8  N   UNL     1      -4.115 -10.596  14.637  0.00  0.00    -0.214 NA
ATOM      9  N   UNL     1      -1.792 -10.749  14.014  0.00  0.00    -0.223 NA
ATOM     16  C   UNL     1      -3.118 -10.676  13.718  0.00  0.00    +0.216 A 
ATOM     19  C   UNL     1      -3.730 -10.590  15.930  0.00  0.00    +0.076 A 
ATOM     21  C   UNL     1      -1.478 -10.739  15.326  0.00  0.00    +0.116 A 
ATOM     22  C   UNL     1      -2.413 -10.661  16.337  0.00  0.00    +0.048 A 
ATOM     31  H   UNL     1      -2.729 -10.797  11.706  0.00  0.00    +0.149 HD
BRANCH  19  23
ATOM      1  F   UNL     1      -8.170  -9.142  17.160  0.00  0.00    -0.205 F 
ATOM     23  C   UNL     1      -4.804 -10.505  16.890  0.00  0.00    +0.003 A 
ATOM     26  C   UNL     1      -5.992  -9.851  16.556  0.00  0.00    +0.048 A 
ATOM     27  C   UNL     1      -4.659 -11.076  18.156  0.00  0.00    +0.010 A 
ATOM     28  C   UNL     1      -7.031  -9.769  17.483  0.00  0.00    +0.124 A 
ATOM     29  C   UNL     1      -5.698 -10.993  19.084  0.00  0.00    +0.003 A 
ATOM     30  C   UNL     1      -6.884 -10.340  18.747  0.00  0.00    +0.038 A 
ENDBRANCH  19  23
ENDBRANCH  12   6
BRANCH  13   7
ATOM      4  O   UNL     1      -6.404  -9.823   5.740  0.00  0.00    -0.267 OA
ATOM      7  N   UNL     1      -5.115 -10.753   7.430  0.00  0.00    -0.301 N 
ATOM     17  C   UNL     1      -5.544 -10.614   6.117  0.00  0.00    +0.280 C 
ATOM     32  H   UNL     1      -4.430 -11.469   7.654  0.00  0.00    +0.150 HD
BRANCH  17  18
ATOM      5  O   UNL     1      -5.602 -11.726   4.010  0.00  0.00    -0.458 OA
ATOM     18  C   UNL     1      -4.909 -11.521   5.127  0.00  0.00    +0.189 A 
ATOM     20  C   UNL     1      -3.742 -12.165   5.190  0.00  0.00    +0.054 A 
ATOM     24  C   UNL     1      -3.669 -12.872   3.966  0.00  0.00    +0.042 A 
ATOM     25  C   UNL     1      -4.825 -12.571   3.284  0.00  0.00    +0.196 A 
ENDBRANCH  17  18
ENDBRANCH  13   7
TORSDOF 4
ENDMDL
MODEL 2
REMARK VINA RESULT:      -7.4     28.186     31.806
REMARK  Name = 11913350
REMARK  4 active torsions:
REMARK  status: ('A' for Active; 'I' for Inactive)
REMARK    1  A    between atoms: N_6  and  C_12
REMARK    2  A    between atoms: N_7  and  C_13
REMARK    3  A    between atoms: C_17  and  C_18
REMARK    4  A    between atoms: C_19  and  C_23
REMARK                            x       y       z     vdW  Elec       q    Type
REMARK                         _______ _______ _______ _____ _____    ______ ____
ROOT
ATOM      2  O   UNL     1      10.866  13.061  24.206  0.00  0.00    -0.370 OA
ATOM      3  O   UNL     1      13.813  12.306  23.488  0.00  0.00    -0.370 OA
ATOM     10  C   UNL     1      12.631  11.531  23.749  0.00  0.00    +0.171 C 
ATOM     11  C   UNL     1      11.859  12.240  24.844  0.00  0.00    +0.171 C 
ATOM     12  C   UNL     1      11.704  11.572  22.557  0.00  0.00    +0.130 C 
ATOM     13  C   UNL     1      12.892  13.105  25.523  0.00  0.00    +0.130 C 
ATOM     14  C   UNL     1      10.922  12.852  22.786  0.00  0.00    +0.185 C 
ATOM     15  C   UNL     1      13.863  13.412  24.400  0.00  0.00    +0.185 C 
ENDROOT
BRANCH  12   6
ATOM      6  N   UNL     1      10.815  10.431  22.581  0.00  0.00    -0.306 N 
ATOM      8  N   UNL     1      12.479   8.977  21.794  0.00  0.00    -0.214 NA
ATOM      9  N   UNL     1      10.261   8.170  22.279  0.00  0.00    -0.223 NA
ATOM     16  C   UNL     1      11.197   9.154  22.207  0.00  0.00    +0.216 A 
ATOM     19  C   UNL     1      12.818   7.721  21.436  0.00  0.00    +0.076 A 
ATOM     21  C   UNL     1      10.668   6.939  21.907  0.00  0.00    +0.116 A 
ATOM     22  C   UNL     1      11.945   6.652  21.473  0.00  0.00    +0.048 A 
ATOM     31  H   UNL     1       9.872  10.541  22.937  0.00  0.00    +0.149 HD
BRANCH  19  23
ATOM      1  F   UNL     1      17.542   8.564  21.983  0.00  0.00    -0.205 F 
ATOM     23  C   UNL     1      14.185   7.553  21.001  0.00  0.00    +0.003 A 
ATOM     26  C   UNL     1      15.225   8.152  21.716  0.00  0.00    +0.048 A 
ATOM     27  C   UNL     1      14.470   6.793  19.865  0.00  0.00    +0.010 A 
ATOM     28  C   UNL     1      16.545   7.991  21.296  0.00  0.00    +0.124 A 
ATOM     29  C   UNL     1      15.791   6.632  19.446  0.00  0.00    +0.003 A 
ATOM     30  C   UNL     1      16.828   7.230  20.162  0.00  0.00    +0.038 A 
ENDBRANCH  19  23
ENDBRANCH  12   6
BRANCH  13   7
ATOM      4  O   UNL     1      14.656  14.113  27.587  0.00  0.00    -0.267 OA
ATOM      7  N   UNL     1      13.583  12.322  26.577  0.00  0.00    -0.301 N 
ATOM     17  C   UNL     1      14.411  12.911  27.521  0.00  0.00    +0.280 C 
ATOM     32  H   UNL     1      13.479  11.311  26.572  0.00  0.00    +0.150 HD
BRANCH  17  18
ATOM      5  O   UNL     1      14.507  11.967  29.708  0.00  0.00    -0.458 OA
ATOM     18  C   UNL     1      15.050  11.986  28.493  0.00  0.00    +0.189 A 
ATOM     20  C   UNL     1      16.092  11.169  28.330  0.00  0.00    +0.054 A 
ATOM     24  C   UNL     1      16.242  10.543  29.590  0.00  0.00    +0.042 A 
ATOM     25  C   UNL     1      15.254  11.062  30.393  0.00  0.00    +0.196 A 
ENDBRANCH  17  18
ENDBRANCH  13   7
TORSDOF 4
ENDMDL
MODEL 3
REMARK VINA RESULT:      -7.1     27.771     31.156
REMARK  Name = 11913350
REMARK  4 active torsions:
REMARK  status: ('A' for Active; 'I' for Inactive)
REMARK    1  A    between atoms: N_6  and  C_12
REMARK    2  A    between atoms: N_7  and  C_13
REMARK    3  A    between atoms: C_17  and  C_18
REMARK    4  A    between atoms: C_19  and  C_23
REMARK                            x       y       z     vdW  Elec       q    Type
REMARK                         _______ _______ _______ _____ _____    ______ ____
ROOT
ATOM      2  O   UNL     1      18.932   8.749  22.204  0.00  0.00    -0.370 OA
ATOM      3  O   UNL     1      19.343   6.438  20.139  0.00  0.00    -0.370 OA
ATOM     10  C   UNL     1      18.425   6.639  21.228  0.00  0.00    +0.171 C 
ATOM     11  C   UNL     1      19.185   7.340  22.336  0.00  0.00    +0.171 C 
ATOM     12  C   UNL     1      17.352   7.625  20.832  0.00  0.00    +0.130 C 
ATOM     13  C   UNL     1      20.634   7.040  22.037  0.00  0.00    +0.130 C 
ATOM     14  C   UNL     1      18.005   8.963  21.129  0.00  0.00    +0.185 C 
ATOM     15  C   UNL     1      20.644   6.903  20.527  0.00  0.00    +0.185 C 
ENDROOT
BRANCH  12   6
ATOM      6  N   UNL     1      16.182   7.444  21.663  0.00  0.00    -0.306 N 
ATOM      8  N   UNL     1      14.731   8.173  19.970  0.00  0.00    -0.214 NA
ATOM      9  N   UNL     1      13.880   7.496  22.121  0.00  0.00    -0.223 NA
ATOM     16  C   UNL     1      14.892   7.713  21.238  0.00  0.00    +0.216 A 
ATOM     19  C   UNL     1      13.461   8.425  19.588  0.00  0.00    +0.076 A 
ATOM     21  C   UNL     1      12.637   7.769  21.674  0.00  0.00    +0.116 A 
ATOM     22  C   UNL     1      12.364   8.238  20.406  0.00  0.00    +0.048 A 
ATOM     31  H   UNL     1      16.286   7.052  22.592  0.00  0.00    +0.149 HD
BRANCH  19  23
ATOM      1  F   UNL     1      10.769   9.116  15.639  0.00  0.00    -0.205 F 
ATOM     23  C   UNL     1      13.311   8.912  18.238  0.00  0.00    +0.003 A 
ATOM     26  C   UNL     1      12.088   8.776  17.576  0.00  0.00    +0.048 A 
ATOM     27  C   UNL     1      14.387   9.521  17.589  0.00  0.00    +0.010 A 
ATOM     28  C   UNL     1      11.942   9.247  16.272  0.00  0.00    +0.124 A 
ATOM     29  C   UNL     1      14.241   9.991  16.284  0.00  0.00    +0.003 A 
ATOM     30  C   UNL     1      13.019   9.855  15.626  0.00  0.00    +0.038 A 
ENDBRANCH  19  23
ENDBRANCH  12   6
BRANCH  13   7
ATOM      4  O   UNL     1      23.254   6.244  22.979  0.00  0.00    -0.267 OA
ATOM      7  N   UNL     1      21.012   5.745  22.655  0.00  0.00    -0.301 N 
ATOM     17  C   UNL     1      22.307   5.469  23.072  0.00  0.00    +0.280 C 
ATOM     32  H   UNL     1      20.303   5.021  22.730  0.00  0.00    +0.150 HD
BRANCH  17  18
ATOM      5  O   UNL     1      22.600   4.064  24.975  0.00  0.00    -0.458 OA
ATOM     18  C   UNL     1      22.529   4.117  23.647  0.00  0.00    +0.189 A 
ATOM     20  C   UNL     1      22.669   2.943  23.029  0.00  0.00    +0.054 A 
ATOM     24  C   UNL     1      22.852   2.016  24.083  0.00  0.00    +0.042 A 
ATOM     25  C   UNL     1      22.802   2.748  25.246  0.00  0.00    +0.196 A 
ENDBRANCH  17  18
ENDBRANCH  13   7
TORSDOF 4
ENDMDL
MODEL 4
REMARK VINA RESULT:      -7.1     24.036     28.335
REMARK  Name = 11913350
REMARK  4 active torsions:
REMARK  status: ('A' for Active; 'I' for Inactive)
REMARK    1  A    between atoms: N_6  and  C_12
REMARK    2  A    between atoms: N_7  and  C_13
REMARK    3  A    between atoms: C_17  and  C_18
REMARK    4  A    between atoms: C_19  and  C_23
REMARK                            x       y       z     vdW  Elec       q    Type
REMARK                         _______ _______ _______ _____ _____    ______ ____
ROOT
ATOM      2  O   UNL     1     -15.812   3.689  33.539  0.00  0.00    -0.370 OA
ATOM      3  O   UNL     1     -13.314   3.597  31.662  0.00  0.00    -0.370 OA
ATOM     10  C   UNL     1     -14.349   4.571  31.882  0.00  0.00    +0.171 C 
ATOM     11  C   UNL     1     -15.640   3.812  32.117  0.00  0.00    +0.171 C 
ATOM     12  C   UNL     1     -14.109   5.305  33.180  0.00  0.00    +0.130 C 
ATOM     13  C   UNL     1     -15.389   2.457  31.503  0.00  0.00    +0.130 C 
ATOM     14  C   UNL     1     -14.748   4.387  34.204  0.00  0.00    +0.185 C 
ATOM     15  C   UNL     1     -13.892   2.283  31.672  0.00  0.00    +0.185 C 
ENDROOT
BRANCH  12   6
ATOM      6  N   UNL     1     -14.789   6.582  33.159  0.00  0.00    -0.306 N 
ATOM      8  N   UNL     1     -13.183   7.584  34.546  0.00  0.00    -0.214 NA
ATOM      9  N   UNL     1     -15.067   8.843  33.726  0.00  0.00    -0.223 NA
ATOM     16  C   UNL     1     -14.332   7.703  33.831  0.00  0.00    +0.216 A 
ATOM     19  C   UNL     1     -12.768   8.695  35.188  0.00  0.00    +0.076 A 
ATOM     21  C   UNL     1     -14.594   9.915  34.393  0.00  0.00    +0.116 A 
ATOM     22  C   UNL     1     -13.439   9.900  35.147  0.00  0.00    +0.048 A 
ATOM     31  H   UNL     1     -15.617   6.697  32.586  0.00  0.00    +0.149 HD
BRANCH  19  23
ATOM      1  F   UNL     1     -10.201   6.535  38.663  0.00  0.00    -0.205 F 
ATOM     23  C   UNL     1     -11.545   8.547  35.942  0.00  0.00    +0.003 A 
ATOM     26  C   UNL     1     -11.461   7.594  36.960  0.00  0.00    +0.048 A 
ATOM     27  C   UNL     1     -10.444   9.357  35.657  0.00  0.00    +0.010 A 
ATOM     28  C   UNL     1     -10.280   7.451  37.688  0.00  0.00    +0.124 A 
ATOM     29  C   UNL     1      -9.263   9.214  36.387  0.00  0.00    +0.003 A 
ATOM     30  C   UNL     1      -9.181   8.261  37.401  0.00  0.00    +0.038 A 
ENDBRANCH  19  23
ENDBRANCH  12   6
BRANCH  13   7
ATOM      4  O   UNL     1     -16.140   0.225  29.817  0.00  0.00    -0.267 OA
ATOM      7  N   UNL     1     -15.723   2.494  30.058  0.00  0.00    -0.301 N 
ATOM     17  C   UNL     1     -16.072   1.356  29.344  0.00  0.00    +0.280 C 
ATOM     32  H   UNL     1     -15.648   3.381  29.569  0.00  0.00    +0.150 HD
BRANCH  17  18
ATOM      5  O   UNL     1     -16.719   0.465  27.230  0.00  0.00    -0.458 OA
ATOM     18  C   UNL     1     -16.354   1.556  27.899  0.00  0.00    +0.189 A 
ATOM     20  C   UNL     1     -16.294   2.671  27.169  0.00  0.00    +0.054 A 
ATOM     24  C   UNL     1     -16.667   2.253  25.869  0.00  0.00    +0.042 A 
ATOM     25  C   UNL     1     -16.916   0.904  25.959  0.00  0.00    +0.196 A 
ENDBRANCH  17  18
ENDBRANCH  13   7
TORSDOF 4
ENDMDL
MODEL 5
REMARK VINA RESULT:      -7.0      7.393      8.715
REMARK  Name = 11913350
REMARK  4 active torsions:
REMARK  status: ('A' for Active; 'I' for Inactive)
REMARK    1  A    between atoms: N_6  and  C_12
REMARK    2  A    between atoms: N_7  and  C_13
REMARK    3  A    between atoms: C_17  and  C_18
REMARK    4  A    between atoms: C_19  and  C_23
REMARK                            x       y       z     vdW  Elec       q    Type
REMARK                         _______ _______ _______ _____ _____    ______ ____
ROOT
ATOM      2  O   UNL     1     -11.046  -6.064  16.560  0.00  0.00    -0.370 OA
ATOM      3  O   UNL     1     -12.491  -7.994  14.570  0.00  0.00    -0.370 OA
ATOM     10  C   UNL     1     -11.115  -7.625  14.765  0.00  0.00    +0.171 C 
ATOM     11  C   UNL     1     -11.088  -6.153  15.126  0.00  0.00    +0.171 C 
ATOM     12  C   UNL     1     -10.556  -8.316  15.987  0.00  0.00    +0.130 C 
ATOM     13  C   UNL     1     -12.403  -5.623  14.609  0.00  0.00    +0.130 C 
ATOM     14  C   UNL     1     -10.970  -7.387  17.113  0.00  0.00    +0.185 C 
ATOM     15  C   UNL     1     -13.316  -6.829  14.714  0.00  0.00    +0.185 C 
ENDROOT
BRANCH  12   6
ATOM      6  N   UNL     1      -9.114  -8.385  15.901  0.00  0.00    -0.306 N 
ATOM      8  N   UNL     1      -8.990 -10.094  17.503  0.00  0.00    -0.214 NA
ATOM      9  N   UNL     1      -6.996  -9.225  16.466  0.00  0.00    -0.223 NA
ATOM     16  C   UNL     1      -8.344  -9.262  16.646  0.00  0.00    +0.216 A 
ATOM     19  C   UNL     1      -8.209 -10.934  18.215  0.00  0.00    +0.076 A 
ATOM     21  C   UNL     1      -6.276 -10.091  17.209  0.00  0.00    +0.116 A 
ATOM     22  C   UNL     1      -6.834 -10.978  18.107  0.00  0.00    +0.048 A 
ATOM     31  H   UNL     1      -8.626  -7.806  15.227  0.00  0.00    +0.149 HD
BRANCH  19  23
ATOM      1  F   UNL     1     -12.072 -11.958  20.926  0.00  0.00    -0.205 F 
ATOM     23  C   UNL     1      -8.915 -11.811  19.119  0.00  0.00    +0.003 A 
ATOM     26  C   UNL     1     -10.178 -11.454  19.597  0.00  0.00    +0.048 A 
ATOM     27  C   UNL     1      -8.336 -13.017  19.519  0.00  0.00    +0.010 A 
ATOM     28  C   UNL     1     -10.860 -12.301  20.470  0.00  0.00    +0.124 A 
ATOM     29  C   UNL     1      -9.019 -13.863  20.394  0.00  0.00    +0.003 A 
ATOM     30  C   UNL     1     -10.281 -13.506  20.868  0.00  0.00    +0.038 A 
ENDBRANCH  19  23
ENDBRANCH  12   6
BRANCH  13   7
ATOM      4  O   UNL     1     -13.712  -3.427  13.248  0.00  0.00    -0.267 OA
ATOM      7  N   UNL     1     -12.259  -5.233  13.185  0.00  0.00    -0.301 N 
ATOM     17  C   UNL     1     -12.938  -4.156  12.634  0.00  0.00    +0.280 C 
ATOM     32  H   UNL     1     -11.675  -5.809  12.585  0.00  0.00    +0.150 HD
BRANCH  17  18
ATOM      5  O   UNL     1     -11.458  -4.109  10.766  0.00  0.00    -0.458 OA
ATOM     18  C   UNL     1     -12.705  -3.912  11.187  0.00  0.00    +0.189 A 
ATOM     20  C   UNL     1     -13.563  -3.522  10.242  0.00  0.00    +0.054 A 
ATOM     24  C   UNL     1     -12.778  -3.460   9.066  0.00  0.00    +0.042 A 
ATOM     25  C   UNL     1     -11.506  -3.827   9.438  0.00  0.00    +0.196 A 
ENDBRANCH  17  18
ENDBRANCH  13   7
TORSDOF 4
ENDMDL
MODEL 6
REMARK VINA RESULT:      -6.9      6.300     10.188
REMARK  Name = 11913350
REMARK  4 active torsions:
REMARK  status: ('A' for Active; 'I' for Inactive)
REMARK    1  A    between atoms: N_6  and  C_12
REMARK    2  A    between atoms: N_7  and  C_13
REMARK    3  A    between atoms: C_17  and  C_18
REMARK    4  A    between atoms: C_19  and  C_23
REMARK                            x       y       z     vdW  Elec       q    Type
REMARK                         _______ _______ _______ _____ _____    ______ ____
ROOT
ATOM      2  O   UNL     1      -9.971 -10.237  15.783  0.00  0.00    -0.370 OA
ATOM      3  O   UNL     1     -10.136  -7.145  16.206  0.00  0.00    -0.370 OA
ATOM     10  C   UNL     1      -9.939  -8.254  17.098  0.00  0.00    +0.171 C 
ATOM     11  C   UNL     1     -10.803  -9.395  16.599  0.00  0.00    +0.171 C 
ATOM     12  C   UNL     1      -8.528  -8.778  16.978  0.00  0.00    +0.130 C 
ATOM     13  C   UNL     1     -11.852  -8.719  15.750  0.00  0.00    +0.130 C 
ATOM     14  C   UNL     1      -8.627  -9.734  15.804  0.00  0.00    +0.185 C 
ATOM     15  C   UNL     1     -11.123  -7.497  15.225  0.00  0.00    +0.185 C 
ENDROOT
BRANCH  12   6
ATOM      6  N   UNL     1      -8.162  -9.498  18.179  0.00  0.00    -0.306 N 
ATOM      8  N   UNL     1      -6.075 -10.117  17.306  0.00  0.00    -0.214 NA
ATOM      9  N   UNL     1      -6.737 -10.791  19.522  0.00  0.00    -0.223 NA
ATOM     16  C   UNL     1      -6.955 -10.155  18.340  0.00  0.00    +0.216 A 
ATOM     19  C   UNL     1      -4.909 -10.768  17.496  0.00  0.00    +0.076 A 
ATOM     21  C   UNL     1      -5.551 -11.422  19.645  0.00  0.00    +0.116 A 
ATOM     22  C   UNL     1      -4.589 -11.444  18.657  0.00  0.00    +0.048 A 
ATOM     31  H   UNL     1      -8.789  -9.488  18.976  0.00  0.00    +0.149 HD
BRANCH  19  23
ATOM      1  F   UNL     1      -0.399 -10.649  15.772  0.00  0.00    -0.205 F 
ATOM     23  C   UNL     1      -3.987 -10.716  16.386  0.00  0.00    +0.003 A 
ATOM     26  C   UNL     1      -2.610 -10.707  16.619  0.00  0.00    +0.048 A 
ATOM     27  C   UNL     1      -4.470 -10.673  15.076  0.00  0.00    +0.010 A 
ATOM     28  C   UNL     1      -1.720 -10.656  15.547  0.00  0.00    +0.124 A 
ATOM     29  C   UNL     1      -3.579 -10.622  14.004  0.00  0.00    +0.003 A 
ATOM     30  C   UNL     1      -2.204 -10.614  14.239  0.00  0.00    +0.038 A 
ENDBRANCH  19  23
ENDBRANCH  12   6
BRANCH  13   7
ATOM      4  O   UNL     1     -14.676  -8.871  15.126  0.00  0.00    -0.267 OA
ATOM      7  N   UNL     1     -12.986  -8.290  16.605  0.00  0.00    -0.301 N 
ATOM     17  C   UNL     1     -14.309  -8.410  16.203  0.00  0.00    +0.280 C 
ATOM     32  H   UNL     1     -12.777  -7.851  17.497  0.00  0.00    +0.150 HD
BRANCH  17  18
ATOM      5  O   UNL     1     -15.779  -6.681  16.932  0.00  0.00    -0.458 OA
ATOM     18  C   UNL     1     -15.327  -7.911  17.163  0.00  0.00    +0.189 A 
ATOM     20  C   UNL     1     -15.858  -8.515  18.228  0.00  0.00    +0.054 A 
ATOM     24  C   UNL     1     -16.765  -7.561  18.750  0.00  0.00    +0.042 A 
ATOM     25  C   UNL     1     -16.679  -6.464  17.926  0.00  0.00    +0.196 A 
ENDBRANCH  17  18
ENDBRANCH  13   7
TORSDOF 4
ENDMDL
MODEL 7
REMARK VINA RESULT:      -6.7     25.631     27.053
REMARK  Name = 11913350
REMARK  4 active torsions:
REMARK  status: ('A' for Active; 'I' for Inactive)
REMARK    1  A    between atoms: N_6  and  C_12
REMARK    2  A    between atoms: N_7  and  C_13
REMARK    3  A    between atoms: C_17  and  C_18
REMARK    4  A    between atoms: C_19  and  C_23
REMARK                            x       y       z     vdW  Elec       q    Type
REMARK                         _______ _______ _______ _____ _____    ______ ____
ROOT
ATOM      2  O   UNL     1      11.032  13.790  10.050  0.00  0.00    -0.370 OA
ATOM      3  O   UNL     1       9.739  11.741  12.026  0.00  0.00    -0.370 OA
ATOM     10  C   UNL     1      11.084  11.954  11.564  0.00  0.00    +0.171 C 
ATOM     11  C   UNL     1      11.002  12.354  10.104  0.00  0.00    +0.171 C 
ATOM     12  C   UNL     1      11.687  13.160  12.244  0.00  0.00    +0.130 C 
ATOM     13  C   UNL     1       9.654  11.843   9.657  0.00  0.00    +0.130 C 
ATOM     14  C   UNL     1      11.201  14.308  11.379  0.00  0.00    +0.185 C 
ATOM     15  C   UNL     1       8.831  11.911  10.928  0.00  0.00    +0.185 C 
ENDROOT
BRANCH  12   6
ATOM      6  N   UNL     1      13.131  13.080  12.207  0.00  0.00    -0.306 N 
ATOM      8  N   UNL     1      13.209  11.637  14.054  0.00  0.00    -0.214 NA
ATOM      9  N   UNL     1      15.231  12.341  12.948  0.00  0.00    -0.223 NA
ATOM     16  C   UNL     1      13.879  12.330  13.097  0.00  0.00    +0.216 A 
ATOM     19  C   UNL     1      13.970  10.917  14.905  0.00  0.00    +0.076 A 
ATOM     21  C   UNL     1      15.930  11.599  13.833  0.00  0.00    +0.116 A 
ATOM     22  C   UNL     1      15.347  10.860  14.841  0.00  0.00    +0.048 A 
ATOM     31  H   UNL     1      13.637  13.551  11.465  0.00  0.00    +0.149 HD
BRANCH  19  23
ATOM      1  F   UNL     1      10.190   8.225  16.244  0.00  0.00    -0.205 F 
ATOM     23  C   UNL     1      13.239  10.188  15.915  0.00  0.00    +0.003 A 
ATOM     26  C   UNL     1      12.043   9.546  15.586  0.00  0.00    +0.048 A 
ATOM     27  C   UNL     1      13.726  10.122  17.222  0.00  0.00    +0.010 A 
ATOM     28  C   UNL     1      11.337   8.841  16.561  0.00  0.00    +0.124 A 
ATOM     29  C   UNL     1      13.019   9.417  18.197  0.00  0.00    +0.003 A 
ATOM     30  C   UNL     1      11.825   8.776  17.866  0.00  0.00    +0.038 A 
ENDBRANCH  19  23
ENDBRANCH  12   6
BRANCH  13   7
ATOM      4  O   UNL     1       9.147  10.775   7.013  0.00  0.00    -0.267 OA
ATOM      7  N   UNL     1       9.775  10.431   9.219  0.00  0.00    -0.301 N 
ATOM     17  C   UNL     1       9.505  10.027   7.919  0.00  0.00    +0.280 C 
ATOM     32  H   UNL     1      10.021   9.731   9.914  0.00  0.00    +0.150 HD
BRANCH  17  18
ATOM      5  O   UNL     1      10.897   8.142   7.482  0.00  0.00    -0.458 OA
ATOM     18  C   UNL     1       9.649   8.574   7.647  0.00  0.00    +0.189 A 
ATOM     20  C   UNL     1       8.710   7.632   7.542  0.00  0.00    +0.054 A 
ATOM     24  C   UNL     1       9.436   6.447   7.278  0.00  0.00    +0.042 A 
ATOM     25  C   UNL     1      10.762   6.810   7.252  0.00  0.00    +0.196 A 
ENDBRANCH  17  18
ENDBRANCH  13   7
TORSDOF 4
ENDMDL
MODEL 8
REMARK VINA RESULT:      -6.7     24.012     26.693
REMARK  Name = 11913350
REMARK  4 active torsions:
REMARK  status: ('A' for Active; 'I' for Inactive)
REMARK    1  A    between atoms: N_6  and  C_12
REMARK    2  A    between atoms: N_7  and  C_13
REMARK    3  A    between atoms: C_17  and  C_18
REMARK    4  A    between atoms: C_19  and  C_23
REMARK                            x       y       z     vdW  Elec       q    Type
REMARK                         _______ _______ _______ _____ _____    ______ ____
ROOT
ATOM      2  O   UNL     1      10.529   4.669   4.803  0.00  0.00    -0.370 OA
ATOM      3  O   UNL     1       9.589   7.187   3.209  0.00  0.00    -0.370 OA
ATOM     10  C   UNL     1      10.881   6.684   3.587  0.00  0.00    +0.171 C 
ATOM     11  C   UNL     1      10.744   6.080   4.970  0.00  0.00    +0.171 C 
ATOM     12  C   UNL     1      11.264   5.515   2.709  0.00  0.00    +0.130 C 
ATOM     13  C   UNL     1       9.506   6.732   5.536  0.00  0.00    +0.130 C 
ATOM     14  C   UNL     1      10.598   4.344   3.406  0.00  0.00    +0.185 C 
ATOM     15  C   UNL     1       8.673   7.002   4.298  0.00  0.00    +0.185 C 
ENDROOT
BRANCH  12   6
ATOM      6  N   UNL     1      12.701   5.346   2.709  0.00  0.00    -0.306 N 
ATOM      8  N   UNL     1      12.717   4.544   0.505  0.00  0.00    -0.214 NA
ATOM      9  N   UNL     1      14.764   4.761   1.756  0.00  0.00    -0.223 NA
ATOM     16  C   UNL     1      13.415   4.869   1.623  0.00  0.00    +0.216 A 
ATOM     19  C   UNL     1      13.444   4.081  -0.534  0.00  0.00    +0.076 A 
ATOM     21  C   UNL     1      15.429   4.292   0.680  0.00  0.00    +0.116 A 
ATOM     22  C   UNL     1      14.816   3.934  -0.503  0.00  0.00    +0.048 A 
ATOM     31  H   UNL     1      13.237   5.635   3.519  0.00  0.00    +0.149 HD
BRANCH  19  23
ATOM      1  F   UNL     1      10.123   1.376  -2.765  0.00  0.00    -0.205 F 
ATOM     23  C   UNL     1      12.683   3.742  -1.713  0.00  0.00    +0.003 A 
ATOM     26  C   UNL     1      11.752   2.702  -1.670  0.00  0.00    +0.048 A 
ATOM     27  C   UNL     1      12.877   4.451  -2.900  0.00  0.00    +0.010 A 
ATOM     28  C   UNL     1      11.017   2.373  -2.809  0.00  0.00    +0.124 A 
ATOM     29  C   UNL     1      12.142   4.122  -4.039  0.00  0.00    +0.003 A 
ATOM     30  C   UNL     1      11.212   3.084  -3.993  0.00  0.00    +0.038 A 
ENDBRANCH  19  23
ENDBRANCH  12   6
BRANCH  13   7
ATOM      4  O   UNL     1       8.617   7.720   8.109  0.00  0.00    -0.267 OA
ATOM      7  N   UNL     1       9.869   8.018   6.180  0.00  0.00    -0.301 N 
ATOM     17  C   UNL     1       9.382   8.393   7.424  0.00  0.00    +0.280 C 
ATOM     32  H   UNL     1      10.461   8.664   5.665  0.00  0.00    +0.150 HD
BRANCH  17  18
ATOM      5  O   UNL     1      10.804  10.296   7.230  0.00  0.00    -0.458 OA
ATOM     18  C   UNL     1       9.820   9.724   7.920  0.00  0.00    +0.189 A 
ATOM     20  C   UNL     1       9.373  10.433   8.957  0.00  0.00    +0.054 A 
ATOM     24  C   UNL     1      10.161  11.608   8.938  0.00  0.00    +0.042 A 
ATOM     25  C   UNL     1      11.016  11.476   7.869  0.00  0.00    +0.196 A 
ENDBRANCH  17  18
ENDBRANCH  13   7
TORSDOF 4
ENDMDL
MODEL 9
REMARK VINA RESULT:      -6.6      3.822      9.898
REMARK  Name = 11913350
REMARK  4 active torsions:
REMARK  status: ('A' for Active; 'I' for Inactive)
REMARK    1  A    between atoms: N_6  and  C_12
REMARK    2  A    between atoms: N_7  and  C_13
REMARK    3  A    between atoms: C_17  and  C_18
REMARK    4  A    between atoms: C_19  and  C_23
REMARK                            x       y       z     vdW  Elec       q    Type
REMARK                         _______ _______ _______ _____ _____    ______ ____
ROOT
ATOM      2  O   UNL     1      -1.822  -9.963  13.233  0.00  0.00    -0.370 OA
ATOM      3  O   UNL     1      -2.747 -12.932  12.921  0.00  0.00    -0.370 OA
ATOM     10  C   UNL     1      -3.415 -11.668  12.768  0.00  0.00    +0.171 C 
ATOM     11  C   UNL     1      -2.872 -10.738  13.835  0.00  0.00    +0.171 C 
ATOM     12  C   UNL     1      -3.009 -11.017  11.467  0.00  0.00    +0.130 C 
ATOM     13  C   UNL     1      -2.302 -11.667  14.879  0.00  0.00    +0.130 C 
ATOM     14  C   UNL     1      -1.726 -10.299  11.840  0.00  0.00    +0.185 C 
ATOM     15  C   UNL     1      -1.877 -12.871  14.061  0.00  0.00    +0.185 C 
ENDROOT
BRANCH  12   6
ATOM      6  N   UNL     1      -4.016 -10.062  11.057  0.00  0.00    -0.306 N 
ATOM      8  N   UNL     1      -4.216 -11.022   8.926  0.00  0.00    -0.214 NA
ATOM      9  N   UNL     1      -5.544  -9.111   9.551  0.00  0.00    -0.223 NA
ATOM     16  C   UNL     1      -4.610 -10.066   9.807  0.00  0.00    +0.216 A 
ATOM     19  C   UNL     1      -4.815 -10.997   7.717  0.00  0.00    +0.076 A 
ATOM     21  C   UNL     1      -6.103  -9.144   8.323  0.00  0.00    +0.116 A 
ATOM     22  C   UNL     1      -5.775 -10.072   7.357  0.00  0.00    +0.048 A 
ATOM     31  H   UNL     1      -4.354  -9.377  11.723  0.00  0.00    +0.149 HD
BRANCH  19  23
ATOM      1  F   UNL     1      -3.162 -15.451   6.850  0.00  0.00    -0.205 F 
ATOM     23  C   UNL     1      -4.384 -12.021   6.796  0.00  0.00    +0.003 A 
ATOM     26  C   UNL     1      -3.972 -13.266   7.277  0.00  0.00    +0.048 A 
ATOM     27  C   UNL     1      -4.376 -11.770   5.422  0.00  0.00    +0.010 A 
ATOM     28  C   UNL     1      -3.555 -14.257   6.387  0.00  0.00    +0.124 A 
ATOM     29  C   UNL     1      -3.958 -12.761   4.533  0.00  0.00    +0.003 A 
ATOM     30  C   UNL     1      -3.549 -14.004   5.016  0.00  0.00    +0.038 A 
ENDBRANCH  19  23
ENDBRANCH  12   6
BRANCH  13   7
ATOM      4  O   UNL     1      -3.753  -9.952  16.706  0.00  0.00    -0.267 OA
ATOM      7  N   UNL     1      -3.369 -12.064  15.829  0.00  0.00    -0.301 N 
ATOM     17  C   UNL     1      -4.001 -11.153  16.664  0.00  0.00    +0.280 C 
ATOM     32  H   UNL     1      -3.610 -13.049  15.899  0.00  0.00    +0.150 HD
BRANCH  17  18
ATOM      5  O   UNL     1      -5.809 -12.658  17.052  0.00  0.00    -0.458 OA
ATOM     18  C   UNL     1      -5.031 -11.714  17.577  0.00  0.00    +0.189 A 
ATOM     20  C   UNL     1      -5.295 -11.411  18.849  0.00  0.00    +0.054 A 
ATOM     24  C   UNL     1      -6.373 -12.262  19.191  0.00  0.00    +0.042 A 
ATOM     25  C   UNL     1      -6.648 -13.001  18.064  0.00  0.00    +0.196 A 
ENDBRANCH  17  18
ENDBRANCH  13   7
TORSDOF 4
ENDMDL
MODEL 10
REMARK VINA RESULT:      -6.6      3.592     10.260
REMARK  Name = 11913350
REMARK  4 active torsions:
REMARK  status: ('A' for Active; 'I' for Inactive)
REMARK    1  A    between atoms: N_6  and  C_12
REMARK    2  A    between atoms: N_7  and  C_13
REMARK    3  A    between atoms: C_17  and  C_18
REMARK    4  A    between atoms: C_19  and  C_23
REMARK                            x       y       z     vdW  Elec       q    Type
REMARK                         _______ _______ _______ _____ _____    ______ ____
ROOT
ATOM      2  O   UNL     1      -2.851  -9.857  11.731  0.00  0.00    -0.370 OA
ATOM      3  O   UNL     1      -4.202 -12.634  12.214  0.00  0.00    -0.370 OA
ATOM     10  C   UNL     1      -4.716 -11.303  12.032  0.00  0.00    +0.171 C 
ATOM     11  C   UNL     1      -3.762 -10.352  12.726  0.00  0.00    +0.171 C 
ATOM     12  C   UNL     1      -4.641 -10.908  10.576  0.00  0.00    +0.130 C 
ATOM     13  C   UNL     1      -3.029 -11.222  13.718  0.00  0.00    +0.130 C 
ATOM     14  C   UNL     1      -3.223 -10.383  10.448  0.00  0.00    +0.185 C 
ATOM     15  C   UNL     1      -3.029 -12.578  13.039  0.00  0.00    +0.185 C 
ENDROOT
BRANCH  12   6
ATOM      6  N   UNL     1      -5.592  -9.853  10.300  0.00  0.00    -0.306 N 
ATOM      8  N   UNL     1      -5.658 -10.362   8.011  0.00  0.00    -0.214 NA
ATOM      9  N   UNL     1      -6.984  -8.565   8.917  0.00  0.00    -0.223 NA
ATOM     16  C   UNL     1      -6.093  -9.586   9.037  0.00  0.00    +0.216 A 
ATOM     19  C   UNL     1      -6.166 -10.074   6.794  0.00  0.00    +0.076 A 
ATOM     21  C   UNL     1      -7.451  -8.332   7.673  0.00  0.00    +0.116 A 
ATOM     22  C   UNL     1      -7.075  -9.061   6.564  0.00  0.00    +0.048 A 
ATOM     31  H   UNL     1      -5.962  -9.303  11.066  0.00  0.00    +0.149 HD
BRANCH  19  23
ATOM      1  F   UNL     1      -2.782 -12.921   4.854  0.00  0.00    -0.205 F 
ATOM     23  C   UNL     1      -5.692 -10.910   5.717  0.00  0.00    +0.003 A 
ATOM     26  C   UNL     1      -4.440 -11.524   5.806  0.00  0.00    +0.048 A 
ATOM     27  C   UNL     1      -6.482 -11.107   4.583  0.00  0.00    +0.010 A 
ATOM     28  C   UNL     1      -3.982 -12.332   4.766  0.00  0.00    +0.124 A 
ATOM     29  C   UNL     1      -6.023 -11.915   3.542  0.00  0.00    +0.003 A 
ATOM     30  C   UNL     1      -4.773 -12.528   3.634  0.00  0.00    +0.038 A 
ENDBRANCH  19  23
ENDBRANCH  12   6
BRANCH  13   7
ATOM      4  O   UNL     1      -2.077 -10.671  16.397  0.00  0.00    -0.267 OA
ATOM      7  N   UNL     1      -3.803 -11.300  14.981  0.00  0.00    -0.301 N 
ATOM     17  C   UNL     1      -3.243 -11.012  16.218  0.00  0.00    +0.280 C 
ATOM     32  H   UNL     1      -4.766 -11.621  14.937  0.00  0.00    +0.150 HD
BRANCH  17  18
ATOM      5  O   UNL     1      -3.605 -11.754  18.454  0.00  0.00    -0.458 OA
ATOM     18  C   UNL     1      -4.143 -11.162  17.390  0.00  0.00    +0.189 A 
ATOM     20  C   UNL     1      -5.416 -10.792  17.536  0.00  0.00    +0.054 A 
ATOM     24  C   UNL     1      -5.743 -11.190  18.854  0.00  0.00    +0.042 A 
ATOM     25  C   UNL     1      -4.608 -11.770  19.370  0.00  0.00    +0.196 A 
ENDBRANCH  17  18
ENDBRANCH  13   7
TORSDOF 4
ENDMDL
