MODEL 1
REMARK VINA RESULT:      -7.2      0.000      0.000
REMARK  Name = 7156584
REMARK  4 active torsions:
REMARK  status: ('A' for Active; 'I' for Inactive)
REMARK    1  A    between atoms: S_2  and  N_7
REMARK    2  A    between atoms: S_2  and  C_16
REMARK    3  A    between atoms: N_9  and  C_17
REMARK    4  A    between atoms: C_26  and  C_28
REMARK                            x       y       z     vdW  Elec       q    Type
REMARK                         _______ _______ _______ _____ _____    ______ ____
ROOT
ATOM      3  O   UNL     1       9.402   5.095   4.468  0.00  0.00    -0.273 OA
ATOM      6  O   UNL     1      12.969   6.836   6.993  0.00  0.00    -0.252 OA
ATOM      7  N   UNL     1      10.479   6.083   2.240  0.00  0.00    -0.163 NA
ATOM      8  N   UNL     1      12.912   7.112   4.752  0.00  0.00    -0.294 N 
ATOM      9  N   UNL     1      11.121   5.972   5.815  0.00  0.00    -0.193 N 
ATOM     10  C   UNL     1      12.315   6.968   3.458  0.00  0.00    +0.103 C 
ATOM     11  C   UNL     1      11.412   5.758   3.366  0.00  0.00    +0.186 C 
ATOM     12  C   UNL     1      11.408   8.121   3.055  0.00  0.00    +0.041 C 
ATOM     13  C   UNL     1      10.649   7.523   1.880  0.00  0.00    +0.112 C 
ATOM     14  C   UNL     1      10.534   5.567   4.590  0.00  0.00    +0.248 C 
ATOM     15  C   UNL     1      12.356   6.664   5.935  0.00  0.00    +0.313 C 
ATOM     29  H   UNL     1      13.796   7.609   4.812  0.00  0.00    +0.151 HD
ENDROOT
BRANCH   9  17
ATOM     17  C   UNL     1      10.414   5.650   7.040  0.00  0.00    +0.045 A 
ATOM     20  C   UNL     1       9.722   6.648   7.713  0.00  0.00    +0.024 A 
ATOM     21  C   UNL     1      10.440   4.350   7.523  0.00  0.00    +0.024 A 
ATOM     24  C   UNL     1       9.043   6.339   8.891  0.00  0.00    +0.005 A 
ATOM     25  C   UNL     1       9.760   4.039   8.701  0.00  0.00    +0.005 A 
ATOM     26  C   UNL     1       9.061   5.035   9.385  0.00  0.00    -0.050 A 
ATOM     28  C   UNL     1       8.335   4.703  10.645  0.00  0.00    +0.044 C 
ENDBRANCH   9  17
BRANCH   7   2
ATOM      2  S   UNL     1      10.361   4.967   0.962  0.00  0.00    +0.062 S 
ATOM      4  O   UNL     1       9.793   5.622  -0.201  0.00  0.00    -0.153 OA
ATOM      5  O   UNL     1       9.797   3.726   1.457  0.00  0.00    -0.153 OA
BRANCH   2  16
ATOM      1 CL   UNL     1      16.421   3.953  -0.225  0.00  0.00    -0.084 Cl
ATOM     16  C   UNL     1      12.073   4.681   0.627  0.00  0.00    +0.106 A 
ATOM     18  C   UNL     1      12.738   5.515  -0.257  0.00  0.00    +0.030 A 
ATOM     19  C   UNL     1      12.718   3.629   1.254  0.00  0.00    +0.030 A 
ATOM     22  C   UNL     1      14.089   5.288  -0.521  0.00  0.00    +0.022 A 
ATOM     23  C   UNL     1      14.069   3.402   0.989  0.00  0.00    +0.022 A 
ATOM     27  C   UNL     1      14.754   4.232   0.102  0.00  0.00    +0.041 A 
ENDBRANCH   2  16
ENDBRANCH   7   2
TORSDOF 3
ENDMDL
MODEL 2
REMARK VINA RESULT:      -7.2     16.198     19.168
REMARK  Name = 7156584
REMARK  4 active torsions:
REMARK  status: ('A' for Active; 'I' for Inactive)
REMARK    1  A    between atoms: S_2  and  N_7
REMARK    2  A    between atoms: S_2  and  C_16
REMARK    3  A    between atoms: N_9  and  C_17
REMARK    4  A    between atoms: C_26  and  C_28
REMARK                            x       y       z     vdW  Elec       q    Type
REMARK                         _______ _______ _______ _____ _____    ______ ____
ROOT
ATOM      3  O   UNL     1      14.397  10.648  22.195  0.00  0.00    -0.273 OA
ATOM      6  O   UNL     1      10.288  11.977  24.061  0.00  0.00    -0.252 OA
ATOM      7  N   UNL     1      13.171   8.701  20.849  0.00  0.00    -0.163 NA
ATOM      8  N   UNL     1      10.378  10.253  22.604  0.00  0.00    -0.294 N 
ATOM      9  N   UNL     1      12.394  11.350  23.213  0.00  0.00    -0.193 N 
ATOM     10  C   UNL     1      11.065   9.338  21.743  0.00  0.00    +0.103 C 
ATOM     11  C   UNL     1      12.357   9.908  21.200  0.00  0.00    +0.186 C 
ATOM     12  C   UNL     1      11.503   8.049  22.422  0.00  0.00    +0.041 C 
ATOM     13  C   UNL     1      12.502   7.492  21.417  0.00  0.00    +0.112 C 
ATOM     14  C   UNL     1      13.165  10.665  22.239  0.00  0.00    +0.248 C 
ATOM     15  C   UNL     1      10.986  11.237  23.360  0.00  0.00    +0.313 C 
ATOM     29  H   UNL     1       9.371  10.154  22.691  0.00  0.00    +0.151 HD
ENDROOT
BRANCH   9  17
ATOM     17  C   UNL     1      13.092  12.238  24.122  0.00  0.00    +0.045 A 
ATOM     20  C   UNL     1      13.341  13.550  23.740  0.00  0.00    +0.024 A 
ATOM     21  C   UNL     1      13.503  11.766  25.360  0.00  0.00    +0.024 A 
ATOM     24  C   UNL     1      14.013  14.405  24.614  0.00  0.00    +0.005 A 
ATOM     25  C   UNL     1      14.175  12.620  26.235  0.00  0.00    +0.005 A 
ATOM     26  C   UNL     1      14.430  13.940  25.862  0.00  0.00    -0.050 A 
ATOM     28  C   UNL     1      15.148  14.853  26.796  0.00  0.00    +0.044 C 
ENDBRANCH   9  17
BRANCH   7   2
ATOM      2  S   UNL     1      13.774   8.586  19.263  0.00  0.00    +0.062 S 
ATOM      4  O   UNL     1      14.062   9.915  18.757  0.00  0.00    -0.153 OA
ATOM      5  O   UNL     1      12.947   7.670  18.499  0.00  0.00    -0.153 OA
BRANCH   2  16
ATOM      1 CL   UNL     1      19.250   5.754  20.334  0.00  0.00    -0.084 Cl
ATOM     16  C   UNL     1      15.321   7.785  19.566  0.00  0.00    +0.106 A 
ATOM     18  C   UNL     1      16.197   8.333  20.488  0.00  0.00    +0.030 A 
ATOM     19  C   UNL     1      15.629   6.626  18.876  0.00  0.00    +0.030 A 
ATOM     22  C   UNL     1      17.417   7.702  20.726  0.00  0.00    +0.022 A 
ATOM     23  C   UNL     1      16.850   5.994  19.114  0.00  0.00    +0.022 A 
ATOM     27  C   UNL     1      17.744   6.533  20.040  0.00  0.00    +0.041 A 
ENDBRANCH   2  16
ENDBRANCH   7   2
TORSDOF 3
ENDMDL
MODEL 3
REMARK VINA RESULT:      -6.9     13.492     16.398
REMARK  Name = 7156584
REMARK  4 active torsions:
REMARK  status: ('A' for Active; 'I' for Inactive)
REMARK    1  A    between atoms: S_2  and  N_7
REMARK    2  A    between atoms: S_2  and  C_16
REMARK    3  A    between atoms: N_9  and  C_17
REMARK    4  A    between atoms: C_26  and  C_28
REMARK                            x       y       z     vdW  Elec       q    Type
REMARK                         _______ _______ _______ _____ _____    ______ ____
ROOT
ATOM      3  O   UNL     1      13.154  10.866  19.245  0.00  0.00    -0.273 OA
ATOM      6  O   UNL     1      11.125   7.988  22.366  0.00  0.00    -0.252 OA
ATOM      7  N   UNL     1      13.524   8.819  17.579  0.00  0.00    -0.163 NA
ATOM      8  N   UNL     1      11.858   7.192  20.383  0.00  0.00    -0.294 N 
ATOM      9  N   UNL     1      12.171   9.492  20.883  0.00  0.00    -0.193 N 
ATOM     10  C   UNL     1      12.492   7.322  19.105  0.00  0.00    +0.103 C 
ATOM     11  C   UNL     1      12.380   8.720  18.540  0.00  0.00    +0.186 C 
ATOM     12  C   UNL     1      13.991   7.063  19.121  0.00  0.00    +0.041 C 
ATOM     13  C   UNL     1      14.420   7.641  17.780  0.00  0.00    +0.112 C 
ATOM     14  C   UNL     1      12.612   9.808  19.574  0.00  0.00    +0.248 C 
ATOM     15  C   UNL     1      11.699   8.216  21.295  0.00  0.00    +0.313 C 
ATOM     29  H   UNL     1      11.527   6.271  20.654  0.00  0.00    +0.151 HD
ENDROOT
BRANCH   9  17
ATOM     17  C   UNL     1      12.194  10.548  21.876  0.00  0.00    +0.045 A 
ATOM     20  C   UNL     1      13.290  10.670  22.721  0.00  0.00    +0.024 A 
ATOM     21  C   UNL     1      11.121  11.423  21.970  0.00  0.00    +0.024 A 
ATOM     24  C   UNL     1      13.312  11.686  23.676  0.00  0.00    +0.005 A 
ATOM     25  C   UNL     1      11.142  12.439  22.924  0.00  0.00    +0.005 A 
ATOM     26  C   UNL     1      12.238  12.571  23.778  0.00  0.00    -0.050 A 
ATOM     28  C   UNL     1      12.261  13.658  24.799  0.00  0.00    +0.044 C 
ENDBRANCH   9  17
BRANCH   7   2
ATOM      2  S   UNL     1      13.176   9.270  15.976  0.00  0.00    +0.062 S 
ATOM      4  O   UNL     1      11.772   9.616  15.865  0.00  0.00    -0.153 OA
ATOM      5  O   UNL     1      13.772   8.308  15.066  0.00  0.00    -0.153 OA
BRANCH   2  16
ATOM      1 CL   UNL     1      16.466  14.575  15.550  0.00  0.00    -0.084 Cl
ATOM     16  C   UNL     1      14.106  10.768  15.855  0.00  0.00    +0.106 A 
ATOM     18  C   UNL     1      15.093  11.029  16.790  0.00  0.00    +0.030 A 
ATOM     19  C   UNL     1      13.830  11.654  14.828  0.00  0.00    +0.030 A 
ATOM     22  C   UNL     1      15.826  12.211  16.695  0.00  0.00    +0.022 A 
ATOM     23  C   UNL     1      14.563  12.837  14.733  0.00  0.00    +0.022 A 
ATOM     27  C   UNL     1      15.561  13.115  15.667  0.00  0.00    +0.041 A 
ENDBRANCH   2  16
ENDBRANCH   7   2
TORSDOF 3
ENDMDL
MODEL 4
REMARK VINA RESULT:      -6.7     24.653     27.703
REMARK  Name = 7156584
REMARK  4 active torsions:
REMARK  status: ('A' for Active; 'I' for Inactive)
REMARK    1  A    between atoms: S_2  and  N_7
REMARK    2  A    between atoms: S_2  and  C_16
REMARK    3  A    between atoms: N_9  and  C_17
REMARK    4  A    between atoms: C_26  and  C_28
REMARK                            x       y       z     vdW  Elec       q    Type
REMARK                         _______ _______ _______ _____ _____    ______ ____
ROOT
ATOM      3  O   UNL     1      -7.654 -10.727  15.673  0.00  0.00    -0.273 OA
ATOM      6  O   UNL     1      -9.394 -10.770  20.045  0.00  0.00    -0.252 OA
ATOM      7  N   UNL     1      -5.477 -12.016  16.513  0.00  0.00    -0.163 NA
ATOM      8  N   UNL     1      -7.397 -11.728  19.598  0.00  0.00    -0.294 N 
ATOM      9  N   UNL     1      -8.578 -10.660  17.837  0.00  0.00    -0.193 N 
ATOM     10  C   UNL     1      -6.312 -12.086  18.735  0.00  0.00    +0.103 C 
ATOM     11  C   UNL     1      -6.740 -12.227  17.291  0.00  0.00    +0.186 C 
ATOM     12  C   UNL     1      -5.193 -11.057  18.677  0.00  0.00    +0.041 C 
ATOM     13  C   UNL     1      -4.425 -11.503  17.441  0.00  0.00    +0.112 C 
ATOM     14  C   UNL     1      -7.693 -11.136  16.836  0.00  0.00    +0.248 C 
ATOM     15  C   UNL     1      -8.514 -11.013  19.212  0.00  0.00    +0.313 C 
ATOM     29  H   UNL     1      -7.329 -11.993  20.577  0.00  0.00    +0.151 HD
ENDROOT
BRANCH   9  17
ATOM     17  C   UNL     1      -9.633  -9.753  17.428  0.00  0.00    +0.045 A 
ATOM     20  C   UNL     1     -10.867 -10.266  17.049  0.00  0.00    +0.024 A 
ATOM     21  C   UNL     1      -9.395  -8.386  17.420  0.00  0.00    +0.024 A 
ATOM     24  C   UNL     1     -11.882  -9.393  16.655  0.00  0.00    +0.005 A 
ATOM     25  C   UNL     1     -10.410  -7.513  17.026  0.00  0.00    +0.005 A 
ATOM     26  C   UNL     1     -11.653  -8.017  16.644  0.00  0.00    -0.050 A 
ATOM     28  C   UNL     1     -12.738  -7.084  16.223  0.00  0.00    +0.044 C 
ENDBRANCH   9  17
BRANCH   7   2
ATOM      2  S   UNL     1      -5.019 -13.222  15.404  0.00  0.00    +0.062 S 
ATOM      4  O   UNL     1      -6.183 -13.657  14.656  0.00  0.00    -0.153 OA
ATOM      5  O   UNL     1      -4.168 -14.190  16.071  0.00  0.00    -0.153 OA
BRANCH   2  16
ATOM      1 CL   UNL     1      -1.419  -9.883  11.525  0.00  0.00    -0.084 Cl
ATOM     16  C   UNL     1      -4.002 -12.279  14.308  0.00  0.00    +0.106 A 
ATOM     18  C   UNL     1      -2.698 -12.683  14.081  0.00  0.00    +0.030 A 
ATOM     19  C   UNL     1      -4.529 -11.154  13.697  0.00  0.00    +0.030 A 
ATOM     22  C   UNL     1      -1.895 -11.938  13.216  0.00  0.00    +0.022 A 
ATOM     23  C   UNL     1      -3.726 -10.409  12.833  0.00  0.00    +0.022 A 
ATOM     27  C   UNL     1      -2.409 -10.802  12.593  0.00  0.00    +0.041 A 
ENDBRANCH   2  16
ENDBRANCH   7   2
TORSDOF 3
ENDMDL
MODEL 5
REMARK VINA RESULT:      -6.6     23.804     26.857
REMARK  Name = 7156584
REMARK  4 active torsions:
REMARK  status: ('A' for Active; 'I' for Inactive)
REMARK    1  A    between atoms: S_2  and  N_7
REMARK    2  A    between atoms: S_2  and  C_16
REMARK    3  A    between atoms: N_9  and  C_17
REMARK    4  A    between atoms: C_26  and  C_28
REMARK                            x       y       z     vdW  Elec       q    Type
REMARK                         _______ _______ _______ _____ _____    ______ ____
ROOT
ATOM      3  O   UNL     1      -6.830 -10.757  15.131  0.00  0.00    -0.273 OA
ATOM      6  O   UNL     1      -7.796 -11.231  19.711  0.00  0.00    -0.252 OA
ATOM      7  N   UNL     1      -4.384 -11.736  15.532  0.00  0.00    -0.163 NA
ATOM      8  N   UNL     1      -5.786 -11.860  18.895  0.00  0.00    -0.294 N 
ATOM      9  N   UNL     1      -7.382 -10.914  17.414  0.00  0.00    -0.193 N 
ATOM     10  C   UNL     1      -4.819 -12.017  17.849  0.00  0.00    +0.103 C 
ATOM     11  C   UNL     1      -5.457 -12.164  16.485  0.00  0.00    +0.186 C 
ATOM     12  C   UNL     1      -3.884 -10.830  17.679  0.00  0.00    +0.041 C 
ATOM     13  C   UNL     1      -3.276 -11.107  16.312  0.00  0.00    +0.112 C 
ATOM     14  C   UNL     1      -6.618 -11.212  16.257  0.00  0.00    +0.248 C 
ATOM     15  C   UNL     1      -7.041 -11.306  18.736  0.00  0.00    +0.313 C 
ATOM     29  H   UNL     1      -5.519 -12.150  19.831  0.00  0.00    +0.151 HD
ENDROOT
BRANCH   9  17
ATOM     17  C   UNL     1      -8.608 -10.161  17.236  0.00  0.00    +0.045 A 
ATOM     20  C   UNL     1      -9.793 -10.835  16.973  0.00  0.00    +0.024 A 
ATOM     21  C   UNL     1      -8.581  -8.777  17.328  0.00  0.00    +0.024 A 
ATOM     24  C   UNL     1     -10.973 -10.111  16.801  0.00  0.00    +0.005 A 
ATOM     25  C   UNL     1      -9.760  -8.051  17.156  0.00  0.00    +0.005 A 
ATOM     26  C   UNL     1     -10.957  -8.719  16.893  0.00  0.00    -0.050 A 
ATOM     28  C   UNL     1     -12.217  -7.944  16.709  0.00  0.00    +0.044 C 
ENDBRANCH   9  17
BRANCH   7   2
ATOM      2  S   UNL     1      -3.951 -12.815  14.291  0.00  0.00    +0.062 S 
ATOM      4  O   UNL     1      -5.041 -13.743  14.053  0.00  0.00    -0.153 OA
ATOM      5  O   UNL     1      -2.605 -13.305  14.528  0.00  0.00    -0.153 OA
BRANCH   2  16
ATOM      1 CL   UNL     1      -3.711  -8.898   9.417  0.00  0.00    -0.084 Cl
ATOM     16  C   UNL     1      -3.883 -11.709  12.914  0.00  0.00    +0.106 A 
ATOM     18  C   UNL     1      -2.652 -11.259  12.468  0.00  0.00    +0.030 A 
ATOM     19  C   UNL     1      -5.062 -11.312  12.307  0.00  0.00    +0.030 A 
ATOM     22  C   UNL     1      -2.599 -10.386  11.381  0.00  0.00    +0.022 A 
ATOM     23  C   UNL     1      -5.009 -10.439  11.220  0.00  0.00    +0.022 A 
ATOM     27  C   UNL     1      -3.777  -9.976  10.758  0.00  0.00    +0.041 A 
ENDBRANCH   2  16
ENDBRANCH   7   2
TORSDOF 3
ENDMDL
MODEL 6
REMARK VINA RESULT:      -6.6     24.301     28.141
REMARK  Name = 7156584
REMARK  4 active torsions:
REMARK  status: ('A' for Active; 'I' for Inactive)
REMARK    1  A    between atoms: S_2  and  N_7
REMARK    2  A    between atoms: S_2  and  C_16
REMARK    3  A    between atoms: N_9  and  C_17
REMARK    4  A    between atoms: C_26  and  C_28
REMARK                            x       y       z     vdW  Elec       q    Type
REMARK                         _______ _______ _______ _____ _____    ______ ____
ROOT
ATOM      3  O   UNL     1      -5.830 -10.774  15.553  0.00  0.00    -0.273 OA
ATOM      6  O   UNL     1      -2.711 -14.078  14.331  0.00  0.00    -0.252 OA
ATOM      7  N   UNL     1      -6.668 -12.294  17.575  0.00  0.00    -0.163 NA
ATOM      8  N   UNL     1      -4.055 -14.379  16.122  0.00  0.00    -0.294 N 
ATOM      9  N   UNL     1      -4.275 -12.392  14.842  0.00  0.00    -0.193 N 
ATOM     10  C   UNL     1      -5.101 -13.989  17.019  0.00  0.00    +0.103 C 
ATOM     11  C   UNL     1      -5.257 -12.488  17.113  0.00  0.00    +0.186 C 
ATOM     12  C   UNL     1      -6.487 -14.466  16.609  0.00  0.00    +0.041 C 
ATOM     13  C   UNL     1      -7.383 -13.603  17.485  0.00  0.00    +0.112 C 
ATOM     14  C   UNL     1      -5.161 -11.787  15.769  0.00  0.00    +0.248 C 
ATOM     15  C   UNL     1      -3.633 -13.645  15.031  0.00  0.00    +0.313 C 
ATOM     29  H   UNL     1      -3.609 -15.279  16.279  0.00  0.00    +0.151 HD
ENDROOT
BRANCH   9  17
ATOM     17  C   UNL     1      -3.997 -11.677  13.611  0.00  0.00    +0.045 A 
ATOM     20  C   UNL     1      -2.881 -10.854  13.536  0.00  0.00    +0.024 A 
ATOM     21  C   UNL     1      -4.850 -11.824  12.526  0.00  0.00    +0.024 A 
ATOM     24  C   UNL     1      -2.613 -10.166  12.352  0.00  0.00    +0.005 A 
ATOM     25  C   UNL     1      -4.583 -11.136  11.343  0.00  0.00    +0.005 A 
ATOM     26  C   UNL     1      -3.464 -10.307  11.255  0.00  0.00    -0.050 A 
ATOM     28  C   UNL     1      -3.178  -9.571   9.990  0.00  0.00    +0.044 C 
ENDBRANCH   9  17
BRANCH   7   2
ATOM      2  S   UNL     1      -6.924 -11.360  18.973  0.00  0.00    +0.062 S 
ATOM      4  O   UNL     1      -5.791 -10.477  19.178  0.00  0.00    -0.153 OA
ATOM      5  O   UNL     1      -7.393 -12.217  20.045  0.00  0.00    -0.153 OA
BRANCH   2  16
ATOM      1 CL   UNL     1     -11.747  -7.832  17.115  0.00  0.00    -0.084 Cl
ATOM     16  C   UNL     1      -8.286 -10.364  18.447  0.00  0.00    +0.106 A 
ATOM     18  C   UNL     1      -8.068  -9.347  17.533  0.00  0.00    +0.030 A 
ATOM     19  C   UNL     1      -9.547 -10.617  18.960  0.00  0.00    +0.030 A 
ATOM     22  C   UNL     1      -9.143  -8.561  17.120  0.00  0.00    +0.022 A 
ATOM     23  C   UNL     1     -10.622  -9.831  18.547  0.00  0.00    +0.022 A 
ATOM     27  C   UNL     1     -10.420  -8.803  17.626  0.00  0.00    +0.041 A 
ENDBRANCH   2  16
ENDBRANCH   7   2
TORSDOF 3
ENDMDL
MODEL 7
REMARK VINA RESULT:      -6.5     25.701     27.584
REMARK  Name = 7156584
REMARK  4 active torsions:
REMARK  status: ('A' for Active; 'I' for Inactive)
REMARK    1  A    between atoms: S_2  and  N_7
REMARK    2  A    between atoms: S_2  and  C_16
REMARK    3  A    between atoms: N_9  and  C_17
REMARK    4  A    between atoms: C_26  and  C_28
REMARK                            x       y       z     vdW  Elec       q    Type
REMARK                         _______ _______ _______ _____ _____    ______ ____
ROOT
ATOM      3  O   UNL     1     -13.050   8.086  16.796  0.00  0.00    -0.273 OA
ATOM      6  O   UNL     1      -9.708   9.528  19.777  0.00  0.00    -0.252 OA
ATOM      7  N   UNL     1     -11.872   9.418  14.811  0.00  0.00    -0.163 NA
ATOM      8  N   UNL     1      -9.637  10.130  17.601  0.00  0.00    -0.294 N 
ATOM      9  N   UNL     1     -11.448   8.800  18.367  0.00  0.00    -0.193 N 
ATOM     10  C   UNL     1     -10.147  10.162  16.263  0.00  0.00    +0.103 C 
ATOM     11  C   UNL     1     -10.999   8.956  15.936  0.00  0.00    +0.186 C 
ATOM     12  C   UNL     1     -11.068  11.338  15.973  0.00  0.00    +0.041 C 
ATOM     13  C   UNL     1     -11.731  10.900  14.675  0.00  0.00    +0.112 C 
ATOM     14  C   UNL     1     -11.944   8.564  17.059  0.00  0.00    +0.248 C 
ATOM     15  C   UNL     1     -10.248   9.498  18.666  0.00  0.00    +0.313 C 
ATOM     29  H   UNL     1      -8.776  10.635  17.790  0.00  0.00    +0.151 HD
ENDROOT
BRANCH   9  17
ATOM     17  C   UNL     1     -12.217   8.283  19.482  0.00  0.00    +0.045 A 
ATOM     20  C   UNL     1     -13.266   9.034  19.996  0.00  0.00    +0.024 A 
ATOM     21  C   UNL     1     -11.894   7.046  20.022  0.00  0.00    +0.024 A 
ATOM     24  C   UNL     1     -14.006   8.537  21.070  0.00  0.00    +0.005 A 
ATOM     25  C   UNL     1     -12.633   6.549  21.095  0.00  0.00    +0.005 A 
ATOM     26  C   UNL     1     -13.690   7.294  21.619  0.00  0.00    -0.050 A 
ATOM     28  C   UNL     1     -14.480   6.763  22.766  0.00  0.00    +0.044 C 
ENDBRANCH   9  17
BRANCH   7   2
ATOM      2  S   UNL     1     -11.872   8.500  13.379  0.00  0.00    +0.062 S 
ATOM      4  O   UNL     1     -11.055   7.316  13.564  0.00  0.00    -0.153 OA
ATOM      5  O   UNL     1     -11.650   9.379  12.245  0.00  0.00    -0.153 OA
BRANCH   2  16
ATOM      1 CL   UNL     1     -17.850   6.661  13.208  0.00  0.00    -0.084 Cl
ATOM     16  C   UNL     1     -13.561   7.981  13.331  0.00  0.00    +0.106 A 
ATOM     18  C   UNL     1     -13.859   6.686  12.943  0.00  0.00    +0.030 A 
ATOM     19  C   UNL     1     -14.555   8.878  13.683  0.00  0.00    +0.030 A 
ATOM     22  C   UNL     1     -15.192   6.276  12.905  0.00  0.00    +0.022 A 
ATOM     23  C   UNL     1     -15.888   8.468  13.644  0.00  0.00    +0.022 A 
ATOM     27  C   UNL     1     -16.206   7.167  13.255  0.00  0.00    +0.041 A 
ENDBRANCH   2  16
ENDBRANCH   7   2
TORSDOF 3
ENDMDL
MODEL 8
REMARK VINA RESULT:      -6.5     22.717     24.672
REMARK  Name = 7156584
REMARK  4 active torsions:
REMARK  status: ('A' for Active; 'I' for Inactive)
REMARK    1  A    between atoms: S_2  and  N_7
REMARK    2  A    between atoms: S_2  and  C_16
REMARK    3  A    between atoms: N_9  and  C_17
REMARK    4  A    between atoms: C_26  and  C_28
REMARK                            x       y       z     vdW  Elec       q    Type
REMARK                         _______ _______ _______ _____ _____    ______ ____
ROOT
ATOM      3  O   UNL     1      -7.220  -8.988   8.804  0.00  0.00    -0.273 OA
ATOM      6  O   UNL     1      -4.230 -11.675   6.359  0.00  0.00    -0.252 OA
ATOM      7  N   UNL     1      -8.676  -8.589   6.608  0.00  0.00    -0.163 NA
ATOM      8  N   UNL     1      -6.032 -10.760   5.350  0.00  0.00    -0.294 N 
ATOM      9  N   UNL     1      -5.647 -10.305   7.649  0.00  0.00    -0.193 N 
ATOM     10  C   UNL     1      -7.214  -9.951   5.326  0.00  0.00    +0.103 C 
ATOM     11  C   UNL     1      -7.881  -9.856   6.680  0.00  0.00    +0.186 C 
ATOM     12  C   UNL     1      -6.970  -8.498   4.946  0.00  0.00    +0.041 C 
ATOM     13  C   UNL     1      -8.273  -7.841   5.379  0.00  0.00    +0.112 C 
ATOM     14  C   UNL     1      -6.900  -9.664   7.823  0.00  0.00    +0.248 C 
ATOM     15  C   UNL     1      -5.222 -10.944   6.453  0.00  0.00    +0.313 C 
ATOM     29  H   UNL     1      -5.749 -11.208   4.484  0.00  0.00    +0.151 HD
ENDROOT
BRANCH   9  17
ATOM     17  C   UNL     1      -4.734 -10.317   8.775  0.00  0.00    +0.045 A 
ATOM     20  C   UNL     1      -3.976  -9.188   9.054  0.00  0.00    +0.024 A 
ATOM     21  C   UNL     1      -4.628 -11.458   9.558  0.00  0.00    +0.024 A 
ATOM     24  C   UNL     1      -3.097  -9.200  10.137  0.00  0.00    +0.005 A 
ATOM     25  C   UNL     1      -3.750 -11.471  10.641  0.00  0.00    +0.005 A 
ATOM     26  C   UNL     1      -2.984 -10.341  10.931  0.00  0.00    -0.050 A 
ATOM     28  C   UNL     1      -2.044 -10.355  12.089  0.00  0.00    +0.044 C 
ENDBRANCH   9  17
BRANCH   7   2
ATOM      2  S   UNL     1     -10.339  -8.675   6.958  0.00  0.00    +0.062 S 
ATOM      4  O   UNL     1     -10.570  -9.701   7.957  0.00  0.00    -0.153 OA
ATOM      5  O   UNL     1     -11.092  -8.672   5.717  0.00  0.00    -0.153 OA
BRANCH   2  16
ATOM      1 CL   UNL     1     -11.208  -3.125   9.714  0.00  0.00    -0.084 Cl
ATOM     16  C   UNL     1     -10.584  -7.108   7.737  0.00  0.00    +0.106 A 
ATOM     18  C   UNL     1     -11.874  -6.668   7.980  0.00  0.00    +0.030 A 
ATOM     19  C   UNL     1      -9.482  -6.348   8.090  0.00  0.00    +0.030 A 
ATOM     22  C   UNL     1     -12.067  -5.430   8.594  0.00  0.00    +0.022 A 
ATOM     23  C   UNL     1      -9.675  -5.111   8.704  0.00  0.00    +0.022 A 
ATOM     27  C   UNL     1     -10.969  -4.652   8.956  0.00  0.00    +0.041 A 
ENDBRANCH   2  16
ENDBRANCH   7   2
TORSDOF 3
ENDMDL
MODEL 9
REMARK VINA RESULT:      -6.5      3.310      7.539
REMARK  Name = 7156584
REMARK  4 active torsions:
REMARK  status: ('A' for Active; 'I' for Inactive)
REMARK    1  A    between atoms: S_2  and  N_7
REMARK    2  A    between atoms: S_2  and  C_16
REMARK    3  A    between atoms: N_9  and  C_17
REMARK    4  A    between atoms: C_26  and  C_28
REMARK                            x       y       z     vdW  Elec       q    Type
REMARK                         _______ _______ _______ _____ _____    ______ ____
ROOT
ATOM      3  O   UNL     1      10.515   5.498   2.501  0.00  0.00    -0.273 OA
ATOM      6  O   UNL     1      13.594   7.628  -0.349  0.00  0.00    -0.252 OA
ATOM      7  N   UNL     1      10.867   7.406   4.328  0.00  0.00    -0.163 NA
ATOM      8  N   UNL     1      13.086   8.525   1.662  0.00  0.00    -0.294 N 
ATOM      9  N   UNL     1      12.078   6.469   1.033  0.00  0.00    -0.193 N 
ATOM     10  C   UNL     1      12.414   8.537   2.926  0.00  0.00    +0.103 C 
ATOM     11  C   UNL     1      11.106   7.777   2.897  0.00  0.00    +0.186 C 
ATOM     12  C   UNL     1      13.189   7.870   4.053  0.00  0.00    +0.041 C 
ATOM     13  C   UNL     1      12.108   7.692   5.109  0.00  0.00    +0.112 C 
ATOM     14  C   UNL     1      11.189   6.465   2.137  0.00  0.00    +0.248 C 
ATOM     15  C   UNL     1      12.972   7.526   0.714  0.00  0.00    +0.313 C 
ATOM     29  H   UNL     1      13.719   9.292   1.456  0.00  0.00    +0.151 HD
ENDROOT
BRANCH   9  17
ATOM     17  C   UNL     1      12.069   5.314   0.157  0.00  0.00    +0.045 A 
ATOM     20  C   UNL     1      11.111   5.221  -0.844  0.00  0.00    +0.024 A 
ATOM     21  C   UNL     1      13.017   4.315   0.332  0.00  0.00    +0.024 A 
ATOM     24  C   UNL     1      11.103   4.109  -1.687  0.00  0.00    +0.005 A 
ATOM     25  C   UNL     1      13.009   3.203  -0.511  0.00  0.00    +0.005 A 
ATOM     26  C   UNL     1      12.052   3.101  -1.520  0.00  0.00    -0.050 A 
ATOM     28  C   UNL     1      12.043   1.911  -2.420  0.00  0.00    +0.044 C 
ENDBRANCH   9  17
BRANCH   7   2
ATOM      2  S   UNL     1       9.384   7.860   5.027  0.00  0.00    +0.062 S 
ATOM      4  O   UNL     1       8.294   7.395   4.191  0.00  0.00    -0.153 OA
ATOM      5  O   UNL     1       9.453   9.248   5.443  0.00  0.00    -0.153 OA
BRANCH   2  16
ATOM      1 CL   UNL     1       9.439   4.328  10.192  0.00  0.00    -0.084 Cl
ATOM     16  C   UNL     1       9.399   6.862   6.486  0.00  0.00    +0.106 A 
ATOM     18  C   UNL     1       9.030   7.426   7.695  0.00  0.00    +0.030 A 
ATOM     19  C   UNL     1       9.780   5.534   6.394  0.00  0.00    +0.030 A 
ATOM     22  C   UNL     1       9.043   6.639   8.846  0.00  0.00    +0.022 A 
ATOM     23  C   UNL     1       9.793   4.747   7.545  0.00  0.00    +0.022 A 
ATOM     27  C   UNL     1       9.424   5.300   8.771  0.00  0.00    +0.041 A 
ENDBRANCH   2  16
ENDBRANCH   7   2
TORSDOF 3
ENDMDL
MODEL 10
REMARK VINA RESULT:      -6.4      3.152      7.706
REMARK  Name = 7156584
REMARK  4 active torsions:
REMARK  status: ('A' for Active; 'I' for Inactive)
REMARK    1  A    between atoms: S_2  and  N_7
REMARK    2  A    between atoms: S_2  and  C_16
REMARK    3  A    between atoms: N_9  and  C_17
REMARK    4  A    between atoms: C_26  and  C_28
REMARK                            x       y       z     vdW  Elec       q    Type
REMARK                         _______ _______ _______ _____ _____    ______ ____
ROOT
ATOM      3  O   UNL     1      13.488   7.303   3.093  0.00  0.00    -0.273 OA
ATOM      6  O   UNL     1      11.270   3.394   1.699  0.00  0.00    -0.252 OA
ATOM      7  N   UNL     1      11.295   8.104   4.379  0.00  0.00    -0.163 NA
ATOM      8  N   UNL     1      10.212   4.908   3.000  0.00  0.00    -0.294 N 
ATOM      9  N   UNL     1      12.441   5.345   2.310  0.00  0.00    -0.193 N 
ATOM     10  C   UNL     1      10.130   6.142   3.723  0.00  0.00    +0.103 C 
ATOM     11  C   UNL     1      11.481   6.629   4.197  0.00  0.00    +0.186 C 
ATOM     12  C   UNL     1       9.596   7.310   2.908  0.00  0.00    +0.041 C 
ATOM     13  C   UNL     1       9.986   8.498   3.775  0.00  0.00    +0.112 C 
ATOM     14  C   UNL     1      12.576   6.474   3.156  0.00  0.00    +0.248 C 
ATOM     15  C   UNL     1      11.310   4.486   2.276  0.00  0.00    +0.313 C 
ATOM     29  H   UNL     1       9.391   4.310   2.992  0.00  0.00    +0.151 HD
ENDROOT
BRANCH   9  17
ATOM     17  C   UNL     1      13.542   5.035   1.419  0.00  0.00    +0.045 A 
ATOM     20  C   UNL     1      14.497   4.105   1.807  0.00  0.00    +0.024 A 
ATOM     21  C   UNL     1      13.628   5.674   0.190  0.00  0.00    +0.024 A 
ATOM     24  C   UNL     1      15.557   3.808   0.950  0.00  0.00    +0.005 A 
ATOM     25  C   UNL     1      14.687   5.377  -0.668  0.00  0.00    +0.005 A 
ATOM     26  C   UNL     1      15.651   4.443  -0.288  0.00  0.00    -0.050 A 
ATOM     28  C   UNL     1      16.784   4.126  -1.205  0.00  0.00    +0.044 C 
ENDBRANCH   9  17
BRANCH   7   2
ATOM      2  S   UNL     1      11.689   8.771   5.893  0.00  0.00    +0.062 S 
ATOM      4  O   UNL     1      11.014  10.046   6.049  0.00  0.00    -0.153 OA
ATOM      5  O   UNL     1      13.120   8.664   6.108  0.00  0.00    -0.153 OA
BRANCH   2  16
ATOM      1 CL   UNL     1       8.885   4.674   9.700  0.00  0.00    -0.084 Cl
ATOM     16  C   UNL     1      10.897   7.614   6.969  0.00  0.00    +0.106 A 
ATOM     18  C   UNL     1      11.606   6.513   7.417  0.00  0.00    +0.030 A 
ATOM     19  C   UNL     1       9.582   7.829   7.343  0.00  0.00    +0.030 A 
ATOM     22  C   UNL     1      10.981   5.600   8.266  0.00  0.00    +0.022 A 
ATOM     23  C   UNL     1       8.956   6.916   8.192  0.00  0.00    +0.022 A 
ATOM     27  C   UNL     1       9.656   5.801   8.653  0.00  0.00    +0.041 A 
ENDBRANCH   2  16
ENDBRANCH   7   2
TORSDOF 3
ENDMDL
