REMARK  Name = 45783810
REMARK  7 active torsions:
REMARK  status: ('A' for Active; 'I' for Inactive)
REMARK    1  A    between atoms: N_2  and  C_8
REMARK    2  A    between atoms: N_3  and  C_18
REMARK    3  A    between atoms: N_7  and  C_24
REMARK    4  A    between atoms: N_7  and  C_25
REMARK    5  A    between atoms: N_7  and  C_26
REMARK    6  A    between atoms: C_9  and  C_17
REMARK    7  A    between atoms: C_19  and  C_20
REMARK                            x       y       z     vdW  Elec       q    Type
REMARK                         _______ _______ _______ _____ _____    ______ ____
ROOT
ATOM      1  O   UNL     1      -0.596   2.020  -1.833  0.00  0.00    -0.336 OA
ATOM      4  N   UNL     1      -0.093   1.039   0.117  0.00  0.00    -0.190 NA
ATOM      5  N   UNL     1       0.756   1.663  -1.914  0.00  0.00    -0.056 NA
ATOM     17  C   UNL     1      -1.019   1.617  -0.606  0.00  0.00    +0.245 A 
ATOM     19  C   UNL     1       0.978   1.091  -0.727  0.00  0.00    +0.204 A 
ENDROOT
BRANCH  19  20
ATOM      6  N   UNL     1       4.568   0.141  -0.929  0.00  0.00    -0.240 NA
ATOM     20  C   UNL     1       2.258   0.561  -0.353  0.00  0.00    +0.041 A 
ATOM     21  C   UNL     1       2.454  -0.027   0.892  0.00  0.00    +0.016 A 
ATOM     22  C   UNL     1       3.337   0.620  -1.219  0.00  0.00    +0.124 A 
ATOM     23  C   UNL     1       3.706  -0.531   1.227  0.00  0.00    +0.044 A 
ATOM     24  C   UNL     1       4.720  -0.424   0.289  0.00  0.00    +0.121 A 
BRANCH  24   7
ATOM      7  N   UNL     1       5.990  -0.942   0.646  0.00  0.00    -0.321 N 
ATOM     25  C   UNL     1       7.093  -0.870  -0.287  0.00  0.00    +0.130 C 
ATOM     26  C   UNL     1       6.189  -1.552   1.942  0.00  0.00    +0.130 C 
ENDBRANCH  24   7
ENDBRANCH  19  20
BRANCH  17   9
ATOM      2  N   UNL     1      -3.017   0.928   0.706  0.00  0.00    -0.288 NA
ATOM      9  C   UNL     1      -2.469   1.891  -0.269  0.00  0.00    +0.146 C 
ATOM     10  C   UNL     1      -4.055   1.639   1.452  0.00  0.00    +0.085 C 
ATOM     13  C   UNL     1      -2.677   3.270   0.384  0.00  0.00    +0.030 C 
ATOM     14  C   UNL     1      -3.402   2.986   1.692  0.00  0.00    +0.017 C 
BRANCH   2   8
ATOM      3  N   UNL     1      -3.415  -3.203  -0.213  0.00  0.00    -0.305 NA
ATOM      8  C   UNL     1      -3.525  -0.294   0.086  0.00  0.00    +0.060 C 
ATOM     11  C   UNL     1      -2.432  -0.991  -0.729  0.00  0.00    +0.034 C 
ATOM     12  C   UNL     1      -4.066  -1.246   1.156  0.00  0.00    +0.034 C 
ATOM     15  C   UNL     1      -2.931  -2.325  -1.288  0.00  0.00    +0.085 C 
ATOM     16  C   UNL     1      -4.512  -2.572   0.535  0.00  0.00    +0.085 C 
ATOM     18  C   UNL     1      -3.841  -4.492  -0.757  0.00  0.00    +0.104 C 
ENDBRANCH   2   8
ENDBRANCH  17   9
TORSDOF 4
