MODEL 1
REMARK VINA RESULT:      -5.6      0.000      0.000
REMARK  Name = 28962421
REMARK  16 active torsions:
REMARK  status: ('A' for Active; 'I' for Inactive)
REMARK    1  A    between atoms: O_1  and  C_11
REMARK    2  A    between atoms: O_4  and  C_27
REMARK    3  A    between atoms: O_4  and  C_29
REMARK    4  A    between atoms: O_5  and  C_28
REMARK    5  A    between atoms: O_5  and  C_30
REMARK    6  A    between atoms: N_6  and  C_15
REMARK    7  A    between atoms: N_7  and  C_25
REMARK    8  A    between atoms: N_7  and  C_26
REMARK    9  A    between atoms: C_8  and  C_18
REMARK   10  A    between atoms: C_10  and  C_20
REMARK   11  A    between atoms: C_13  and  C_19
REMARK   12  A    between atoms: C_19  and  C_21
REMARK   13  A    between atoms: C_19  and  C_22
REMARK   14  A    between atoms: C_23  and  C_24
REMARK   15  A    between atoms: C_25  and  C_27
REMARK   16  A    between atoms: C_26  and  C_28
REMARK                            x       y       z     vdW  Elec       q    Type
REMARK                         _______ _______ _______ _____ _____    ______ ____
ROOT
ATOM      8  C   UNL     1       9.457   6.136   6.003  0.00  0.00    -0.027 C 
ATOM      9  C   UNL     1      10.478   7.220   5.521  0.00  0.00    +0.028 C 
ATOM     10  C   UNL     1      10.009   8.657   5.946  0.00  0.00    +0.012 C 
ATOM     11  C   UNL     1      10.813   7.046   4.011  0.00  0.00    +0.122 C 
ATOM     12  C   UNL     1      10.004   4.727   5.669  0.00  0.00    +0.007 C 
ATOM     13  C   UNL     1      11.259   5.606   3.663  0.00  0.00    +0.029 C 
ATOM     14  C   UNL     1       9.312   6.230   7.539  0.00  0.00    +0.009 C 
ATOM     15  C   UNL     1       9.793   8.719   7.485  0.00  0.00    +0.076 C 
ATOM     16  C   UNL     1      10.296   4.541   4.185  0.00  0.00    +0.007 C 
ATOM     17  C   UNL     1       8.884   7.612   8.015  0.00  0.00    +0.023 C 
ATOM     18  C   UNL     1       8.064   6.297   5.347  0.00  0.00    +0.011 C 
ATOM     20  C   UNL     1      10.983   9.772   5.527  0.00  0.00    +0.010 C 
ENDROOT
BRANCH  15   6
ATOM      3  O   UNL     1      11.024  10.674   9.242  0.00  0.00    -0.276 OA
ATOM      6  N   UNL     1       9.249   9.996   7.897  0.00  0.00    -0.312 N 
ATOM     23  C   UNL     1       9.918  10.862   8.744  0.00  0.00    +0.210 C 
ATOM     24  C   UNL     1       9.140  12.127   8.991  0.00  0.00    +0.109 C 
ATOM     31  H   UNL     1       8.308  10.234   7.595  0.00  0.00    +0.149 HD
ENDBRANCH  15   6
BRANCH  11   1
ATOM      1  O   UNL     1      11.898   7.906   3.661  0.00  0.00    -0.391 OA
ATOM     32  H   UNL     1      12.712   7.372   3.639  0.00  0.00    +0.210 HD
ENDBRANCH  11   1
BRANCH  13  19
ATOM     19  C   UNL     1      11.459   5.422   2.154  0.00  0.00    +0.078 C 
ATOM     21  C   UNL     1      10.159   4.914   1.526  0.00  0.00    +0.017 C 
BRANCH  19  22
ATOM      2  O   UNL     1      12.411   3.229   2.000  0.00  0.00    -0.275 OA
ATOM      7  N   UNL     1      13.861   4.983   1.576  0.00  0.00    -0.297 N 
ATOM     22  C   UNL     1      12.610   4.446   1.899  0.00  0.00    +0.219 C 
BRANCH   7  25
ATOM     25  C   UNL     1      14.985   4.081   1.349  0.00  0.00    +0.136 C 
BRANCH  25  27
ATOM     27  C   UNL     1      15.482   4.157  -0.083  0.00  0.00    +0.178 C 
BRANCH  27   4
ATOM      4  O   UNL     1      14.448   3.738  -0.965  0.00  0.00    -0.381 OA
ATOM     29  C   UNL     1      14.331   4.608  -2.083  0.00  0.00    +0.194 C 
ENDBRANCH  27   4
ENDBRANCH  25  27
ENDBRANCH   7  25
BRANCH   7  26
ATOM     26  C   UNL     1      14.171   6.400   1.402  0.00  0.00    +0.136 C 
BRANCH  26  28
ATOM     28  C   UNL     1      15.172   6.882   2.437  0.00  0.00    +0.178 C 
BRANCH  28   5
ATOM      5  O   UNL     1      14.536   6.963   3.707  0.00  0.00    -0.381 OA
ATOM     30  C   UNL     1      15.435   7.414   4.710  0.00  0.00    +0.194 C 
ENDBRANCH  28   5
ENDBRANCH  26  28
ENDBRANCH   7  26
ENDBRANCH  19  22
ENDBRANCH  13  19
TORSDOF 10
ENDMDL
MODEL 2
REMARK VINA RESULT:      -5.5     16.658     18.567
REMARK  Name = 28962421
REMARK  16 active torsions:
REMARK  status: ('A' for Active; 'I' for Inactive)
REMARK    1  A    between atoms: O_1  and  C_11
REMARK    2  A    between atoms: O_4  and  C_27
REMARK    3  A    between atoms: O_4  and  C_29
REMARK    4  A    between atoms: O_5  and  C_28
REMARK    5  A    between atoms: O_5  and  C_30
REMARK    6  A    between atoms: N_6  and  C_15
REMARK    7  A    between atoms: N_7  and  C_25
REMARK    8  A    between atoms: N_7  and  C_26
REMARK    9  A    between atoms: C_8  and  C_18
REMARK   10  A    between atoms: C_10  and  C_20
REMARK   11  A    between atoms: C_13  and  C_19
REMARK   12  A    between atoms: C_19  and  C_21
REMARK   13  A    between atoms: C_19  and  C_22
REMARK   14  A    between atoms: C_23  and  C_24
REMARK   15  A    between atoms: C_25  and  C_27
REMARK   16  A    between atoms: C_26  and  C_28
REMARK                            x       y       z     vdW  Elec       q    Type
REMARK                         _______ _______ _______ _____ _____    ______ ____
ROOT
ATOM      8  C   UNL     1      12.448   8.217  21.146  0.00  0.00    -0.027 C 
ATOM      9  C   UNL     1      13.456   9.033  22.022  0.00  0.00    +0.028 C 
ATOM     10  C   UNL     1      12.893  10.465  22.335  0.00  0.00    +0.012 C 
ATOM     11  C   UNL     1      14.889   8.995  21.415  0.00  0.00    +0.122 C 
ATOM     12  C   UNL     1      12.980   6.777  20.953  0.00  0.00    +0.007 C 
ATOM     13  C   UNL     1      15.375   7.556  21.126  0.00  0.00    +0.029 C 
ATOM     14  C   UNL     1      11.096   8.122  21.891  0.00  0.00    +0.009 C 
ATOM     15  C   UNL     1      11.499  10.359  23.016  0.00  0.00    +0.076 C 
ATOM     16  C   UNL     1      14.366   6.736  20.322  0.00  0.00    +0.007 C 
ATOM     17  C   UNL     1      10.512   9.483  22.245  0.00  0.00    +0.023 C 
ATOM     18  C   UNL     1      12.219   8.854  19.753  0.00  0.00    +0.011 C 
ATOM     20  C   UNL     1      13.824  11.313  23.219  0.00  0.00    +0.010 C 
ENDROOT
BRANCH  15   6
ATOM      3  O   UNL     1      10.852  11.637  25.541  0.00  0.00    -0.276 OA
ATOM      6  N   UNL     1      10.899  11.661  23.213  0.00  0.00    -0.312 N 
ATOM     23  C   UNL     1      10.628  12.185  24.464  0.00  0.00    +0.210 C 
ATOM     24  C   UNL     1      10.028  13.563  24.385  0.00  0.00    +0.109 C 
ATOM     31  H   UNL     1      10.613  12.184  22.390  0.00  0.00    +0.149 HD
ENDBRANCH  15   6
BRANCH  11   1
ATOM      1  O   UNL     1      15.815   9.561  22.343  0.00  0.00    -0.391 OA
ATOM     32  H   UNL     1      16.698   9.547  21.935  0.00  0.00    +0.210 HD
ENDBRANCH  11   1
BRANCH  13  19
ATOM     19  C   UNL     1      16.730   7.547  20.410  0.00  0.00    +0.078 C 
ATOM     21  C   UNL     1      16.666   6.600  19.209  0.00  0.00    +0.017 C 
BRANCH  19  22
ATOM      2  O   UNL     1      17.813   5.980  21.862  0.00  0.00    -0.275 OA
ATOM      7  N   UNL     1      18.809   8.063  21.717  0.00  0.00    -0.297 N 
ATOM     22  C   UNL     1      17.830   7.121  21.386  0.00  0.00    +0.219 C 
BRANCH   7  25
ATOM     25  C   UNL     1      19.858   7.697  22.662  0.00  0.00    +0.136 C 
BRANCH  25  27
ATOM     27  C   UNL     1      21.102   7.198  21.950  0.00  0.00    +0.178 C 
BRANCH  27   4
ATOM      4  O   UNL     1      21.137   5.778  21.998  0.00  0.00    -0.381 OA
ATOM     29  C   UNL     1      21.113   5.210  20.695  0.00  0.00    +0.194 C 
ENDBRANCH  27   4
ENDBRANCH  25  27
ENDBRANCH   7  25
BRANCH   7  26
ATOM     26  C   UNL     1      18.921   9.416  21.175  0.00  0.00    +0.136 C 
BRANCH  26  28
ATOM     28  C   UNL     1      19.154  10.438  22.272  0.00  0.00    +0.178 C 
BRANCH  28   5
ATOM      5  O   UNL     1      18.062  11.350  22.307  0.00  0.00    -0.381 OA
ATOM     30  C   UNL     1      18.092  12.152  23.480  0.00  0.00    +0.194 C 
ENDBRANCH  28   5
ENDBRANCH  26  28
ENDBRANCH   7  26
ENDBRANCH  19  22
ENDBRANCH  13  19
TORSDOF 10
ENDMDL
MODEL 3
REMARK VINA RESULT:      -5.5     15.408     19.333
REMARK  Name = 28962421
REMARK  16 active torsions:
REMARK  status: ('A' for Active; 'I' for Inactive)
REMARK    1  A    between atoms: O_1  and  C_11
REMARK    2  A    between atoms: O_4  and  C_27
REMARK    3  A    between atoms: O_4  and  C_29
REMARK    4  A    between atoms: O_5  and  C_28
REMARK    5  A    between atoms: O_5  and  C_30
REMARK    6  A    between atoms: N_6  and  C_15
REMARK    7  A    between atoms: N_7  and  C_25
REMARK    8  A    between atoms: N_7  and  C_26
REMARK    9  A    between atoms: C_8  and  C_18
REMARK   10  A    between atoms: C_10  and  C_20
REMARK   11  A    between atoms: C_13  and  C_19
REMARK   12  A    between atoms: C_19  and  C_21
REMARK   13  A    between atoms: C_19  and  C_22
REMARK   14  A    between atoms: C_23  and  C_24
REMARK   15  A    between atoms: C_25  and  C_27
REMARK   16  A    between atoms: C_26  and  C_28
REMARK                            x       y       z     vdW  Elec       q    Type
REMARK                         _______ _______ _______ _____ _____    ______ ____
ROOT
ATOM      8  C   UNL     1      20.625   7.775  22.031  0.00  0.00    -0.027 C 
ATOM      9  C   UNL     1      19.761   6.599  21.467  0.00  0.00    +0.028 C 
ATOM     10  C   UNL     1      20.664   5.541  20.738  0.00  0.00    +0.012 C 
ATOM     11  C   UNL     1      18.554   7.130  20.641  0.00  0.00    +0.122 C 
ATOM     12  C   UNL     1      19.722   8.737  22.840  0.00  0.00    +0.007 C 
ATOM     13  C   UNL     1      17.714   8.171  21.418  0.00  0.00    +0.029 C 
ATOM     14  C   UNL     1      21.686   7.203  22.999  0.00  0.00    +0.009 C 
ATOM     15  C   UNL     1      21.775   5.028  21.697  0.00  0.00    +0.076 C 
ATOM     16  C   UNL     1      18.562   9.290  22.022  0.00  0.00    +0.007 C 
ATOM     17  C   UNL     1      22.577   6.151  22.353  0.00  0.00    +0.023 C 
ATOM     18  C   UNL     1      21.334   8.580  20.914  0.00  0.00    +0.011 C 
ATOM     20  C   UNL     1      19.880   4.340  20.182  0.00  0.00    +0.010 C 
ENDROOT
BRANCH  15   6
ATOM      3  O   UNL     1      22.920   2.565  22.723  0.00  0.00    -0.276 OA
ATOM      6  N   UNL     1      22.697   4.139  21.022  0.00  0.00    -0.312 N 
ATOM     23  C   UNL     1      23.189   2.983  21.599  0.00  0.00    +0.210 C 
ATOM     24  C   UNL     1      24.108   2.232  20.673  0.00  0.00    +0.109 C 
ATOM     31  H   UNL     1      23.039   4.414  20.105  0.00  0.00    +0.149 HD
ENDBRANCH  15   6
BRANCH  11   1
ATOM      1  O   UNL     1      17.676   6.049  20.328  0.00  0.00    -0.391 OA
ATOM     32  H   UNL     1      17.949   5.677  19.471  0.00  0.00    +0.210 HD
ENDBRANCH  11   1
BRANCH  13  19
ATOM     19  C   UNL     1      16.610   8.779  20.544  0.00  0.00    +0.078 C 
ATOM     21  C   UNL     1      16.704  10.305  20.592  0.00  0.00    +0.017 C 
BRANCH  19  22
ATOM      2  O   UNL     1      14.897   8.515  22.197  0.00  0.00    -0.275 OA
ATOM      7  N   UNL     1      14.435   7.602  20.121  0.00  0.00    -0.297 N 
ATOM     22  C   UNL     1      15.241   8.296  21.029  0.00  0.00    +0.219 C 
BRANCH   7  25
ATOM     25  C   UNL     1      13.133   7.110  20.558  0.00  0.00    +0.136 C 
BRANCH  25  27
ATOM     27  C   UNL     1      12.053   8.163  20.392  0.00  0.00    +0.178 C 
BRANCH  27   4
ATOM      4  O   UNL     1      10.776   7.559  20.552  0.00  0.00    -0.381 OA
ATOM     29  C   UNL     1      10.531   7.207  21.907  0.00  0.00    +0.194 C 
ENDBRANCH  27   4
ENDBRANCH  25  27
ENDBRANCH   7  25
BRANCH   7  26
ATOM     26  C   UNL     1      14.749   7.333  18.720  0.00  0.00    +0.136 C 
BRANCH  26  28
ATOM     28  C   UNL     1      14.274   8.456  17.816  0.00  0.00    +0.178 C 
BRANCH  28   5
ATOM      5  O   UNL     1      13.198   7.990  17.010  0.00  0.00    -0.381 OA
ATOM     30  C   UNL     1      12.319   9.048  16.654  0.00  0.00    +0.194 C 
ENDBRANCH  28   5
ENDBRANCH  26  28
ENDBRANCH   7  26
ENDBRANCH  19  22
ENDBRANCH  13  19
TORSDOF 10
ENDMDL
MODEL 4
REMARK VINA RESULT:      -5.4     26.790     29.936
REMARK  Name = 28962421
REMARK  16 active torsions:
REMARK  status: ('A' for Active; 'I' for Inactive)
REMARK    1  A    between atoms: O_1  and  C_11
REMARK    2  A    between atoms: O_4  and  C_27
REMARK    3  A    between atoms: O_4  and  C_29
REMARK    4  A    between atoms: O_5  and  C_28
REMARK    5  A    between atoms: O_5  and  C_30
REMARK    6  A    between atoms: N_6  and  C_15
REMARK    7  A    between atoms: N_7  and  C_25
REMARK    8  A    between atoms: N_7  and  C_26
REMARK    9  A    between atoms: C_8  and  C_18
REMARK   10  A    between atoms: C_10  and  C_20
REMARK   11  A    between atoms: C_13  and  C_19
REMARK   12  A    between atoms: C_19  and  C_21
REMARK   13  A    between atoms: C_19  and  C_22
REMARK   14  A    between atoms: C_23  and  C_24
REMARK   15  A    between atoms: C_25  and  C_27
REMARK   16  A    between atoms: C_26  and  C_28
REMARK                            x       y       z     vdW  Elec       q    Type
REMARK                         _______ _______ _______ _____ _____    ______ ____
ROOT
ATOM      8  C   UNL     1      -6.344 -11.478  19.024  0.00  0.00    -0.027 C 
ATOM      9  C   UNL     1      -6.698 -10.896  17.616  0.00  0.00    +0.028 C 
ATOM     10  C   UNL     1      -5.463 -10.151  16.993  0.00  0.00    +0.012 C 
ATOM     11  C   UNL     1      -8.021 -10.077  17.659  0.00  0.00    +0.122 C 
ATOM     12  C   UNL     1      -7.541 -12.300  19.558  0.00  0.00    +0.007 C 
ATOM     13  C   UNL     1      -9.189 -10.868  18.291  0.00  0.00    +0.029 C 
ATOM     14  C   UNL     1      -5.140 -12.438  18.885  0.00  0.00    +0.009 C 
ATOM     15  C   UNL     1      -4.236 -11.103  16.927  0.00  0.00    +0.076 C 
ATOM     16  C   UNL     1      -8.829 -11.490  19.640  0.00  0.00    +0.007 C 
ATOM     17  C   UNL     1      -3.918 -11.776  18.262  0.00  0.00    +0.023 C 
ATOM     18  C   UNL     1      -6.000 -10.373  20.055  0.00  0.00    +0.011 C 
ATOM     20  C   UNL     1      -5.734  -9.576  15.591  0.00  0.00    +0.010 C 
ENDROOT
BRANCH  15   6
ATOM      3  O   UNL     1      -2.305 -12.038  14.972  0.00  0.00    -0.276 OA
ATOM      6  N   UNL     1      -3.049 -10.415  16.466  0.00  0.00    -0.312 N 
ATOM     23  C   UNL     1      -2.186 -10.948  15.526  0.00  0.00    +0.210 C 
ATOM     24  C   UNL     1      -1.047 -10.016  15.209  0.00  0.00    +0.109 C 
ATOM     31  H   UNL     1      -2.814  -9.527  16.901  0.00  0.00    +0.149 HD
ENDBRANCH  15   6
BRANCH  11   1
ATOM      1  O   UNL     1      -8.422  -9.747  16.329  0.00  0.00    -0.391 OA
ATOM     32  H   UNL     1      -9.189 -10.300  16.099  0.00  0.00    +0.210 HD
ENDBRANCH  11   1
BRANCH  13  19
ATOM     19  C   UNL     1     -10.446 -10.003  18.445  0.00  0.00    +0.078 C 
ATOM     21  C   UNL     1     -11.139 -10.340  19.766  0.00  0.00    +0.017 C 
BRANCH  19  22
ATOM      2  O   UNL     1     -11.717 -11.389  16.962  0.00  0.00    -0.275 OA
ATOM      7  N   UNL     1     -11.813  -9.116  16.536  0.00  0.00    -0.297 N 
ATOM     22  C   UNL     1     -11.384 -10.236  17.257  0.00  0.00    +0.219 C 
BRANCH   7  25
ATOM     25  C   UNL     1     -12.689  -9.305  15.386  0.00  0.00    +0.136 C 
BRANCH  25  27
ATOM     27  C   UNL     1     -14.149  -9.131  15.761  0.00  0.00    +0.178 C 
BRANCH  27   4
ATOM      4  O   UNL     1     -14.638  -7.916  15.207  0.00  0.00    -0.381 OA
ATOM     29  C   UNL     1     -15.174  -7.064  16.210  0.00  0.00    +0.194 C 
ENDBRANCH  27   4
ENDBRANCH  25  27
ENDBRANCH   7  25
BRANCH   7  26
ATOM     26  C   UNL     1     -11.495  -7.723  16.839  0.00  0.00    +0.136 C 
BRANCH  26  28
ATOM     28  C   UNL     1     -10.598  -7.112  15.777  0.00  0.00    +0.178 C 
BRANCH  28   5
ATOM      5  O   UNL     1     -10.996  -5.768  15.538  0.00  0.00    -0.381 OA
ATOM     30  C   UNL     1     -11.985  -5.692  14.520  0.00  0.00    +0.194 C 
ENDBRANCH  28   5
ENDBRANCH  26  28
ENDBRANCH   7  26
ENDBRANCH  19  22
ENDBRANCH  13  19
TORSDOF 10
ENDMDL
MODEL 5
REMARK VINA RESULT:      -5.4     23.811     26.926
REMARK  Name = 28962421
REMARK  16 active torsions:
REMARK  status: ('A' for Active; 'I' for Inactive)
REMARK    1  A    between atoms: O_1  and  C_11
REMARK    2  A    between atoms: O_4  and  C_27
REMARK    3  A    between atoms: O_4  and  C_29
REMARK    4  A    between atoms: O_5  and  C_28
REMARK    5  A    between atoms: O_5  and  C_30
REMARK    6  A    between atoms: N_6  and  C_15
REMARK    7  A    between atoms: N_7  and  C_25
REMARK    8  A    between atoms: N_7  and  C_26
REMARK    9  A    between atoms: C_8  and  C_18
REMARK   10  A    between atoms: C_10  and  C_20
REMARK   11  A    between atoms: C_13  and  C_19
REMARK   12  A    between atoms: C_19  and  C_21
REMARK   13  A    between atoms: C_19  and  C_22
REMARK   14  A    between atoms: C_23  and  C_24
REMARK   15  A    between atoms: C_25  and  C_27
REMARK   16  A    between atoms: C_26  and  C_28
REMARK                            x       y       z     vdW  Elec       q    Type
REMARK                         _______ _______ _______ _____ _____    ______ ____
ROOT
ATOM      8  C   UNL     1      -3.776 -10.453  10.354  0.00  0.00    -0.027 C 
ATOM      9  C   UNL     1      -5.139 -10.192  11.077  0.00  0.00    +0.028 C 
ATOM     10  C   UNL     1      -5.970  -9.092  10.324  0.00  0.00    +0.012 C 
ATOM     11  C   UNL     1      -4.932  -9.948  12.600  0.00  0.00    +0.122 C 
ATOM     12  C   UNL     1      -3.036 -11.618  11.053  0.00  0.00    +0.007 C 
ATOM     13  C   UNL     1      -4.101 -11.065  13.273  0.00  0.00    +0.029 C 
ATOM     14  C   UNL     1      -4.054 -10.882   8.894  0.00  0.00    +0.009 C 
ATOM     15  C   UNL     1      -6.179  -9.498   8.837  0.00  0.00    +0.076 C 
ATOM     16  C   UNL     1      -2.797 -11.365  12.535  0.00  0.00    +0.007 C 
ATOM     17  C   UNL     1      -4.880  -9.863   8.120  0.00  0.00    +0.023 C 
ATOM     18  C   UNL     1      -2.855  -9.207  10.354  0.00  0.00    +0.011 C 
ATOM     20  C   UNL     1      -7.338  -8.806  10.967  0.00  0.00    +0.010 C 
ENDROOT
BRANCH  15   6
ATOM      3  O   UNL     1      -8.166  -9.820   6.746  0.00  0.00    -0.276 OA
ATOM      6  N   UNL     1      -6.840  -8.453   8.085  0.00  0.00    -0.312 N 
ATOM     23  C   UNL     1      -7.778  -8.710   7.102  0.00  0.00    +0.210 C 
ATOM     24  C   UNL     1      -8.326  -7.445   6.496  0.00  0.00    +0.109 C 
ATOM     31  H   UNL     1      -6.554  -7.492   8.252  0.00  0.00    +0.149 HD
ENDBRANCH  15   6
BRANCH  11   1
ATOM      1  O   UNL     1      -6.200  -9.929  13.257  0.00  0.00    -0.391 OA
ATOM     32  H   UNL     1      -6.892  -9.856  12.576  0.00  0.00    +0.210 HD
ENDBRANCH  11   1
BRANCH  13  19
ATOM     19  C   UNL     1      -3.797 -10.741  14.741  0.00  0.00    +0.078 C 
ATOM     21  C   UNL     1      -2.284 -10.764  14.966  0.00  0.00    +0.017 C 
BRANCH  19  22
ATOM      2  O   UNL     1      -4.217 -12.951  15.566  0.00  0.00    -0.275 OA
ATOM      7  N   UNL     1      -5.469 -11.265  16.538  0.00  0.00    -0.297 N 
ATOM     22  C   UNL     1      -4.503 -11.751  15.651  0.00  0.00    +0.219 C 
BRANCH   7  25
ATOM     25  C   UNL     1      -6.176 -12.203  17.403  0.00  0.00    +0.136 C 
BRANCH  25  27
ATOM     27  C   UNL     1      -5.514 -12.314  18.765  0.00  0.00    +0.178 C 
BRANCH  27   4
ATOM      4  O   UNL     1      -6.373 -11.759  19.753  0.00  0.00    -0.381 OA
ATOM     29  C   UNL     1      -7.682 -12.307  19.674  0.00  0.00    +0.194 C 
ENDBRANCH  27   4
ENDBRANCH  25  27
ENDBRANCH   7  25
BRANCH   7  26
ATOM     26  C   UNL     1      -5.840  -9.864  16.725  0.00  0.00    +0.136 C 
BRANCH  26  28
ATOM     28  C   UNL     1      -7.345  -9.695  16.822  0.00  0.00    +0.178 C 
BRANCH  28   5
ATOM      5  O   UNL     1      -7.923  -9.857  15.533  0.00  0.00    -0.381 OA
ATOM     30  C   UNL     1      -9.178  -9.196  15.439  0.00  0.00    +0.194 C 
ENDBRANCH  28   5
ENDBRANCH  26  28
ENDBRANCH   7  26
ENDBRANCH  19  22
ENDBRANCH  13  19
TORSDOF 10
ENDMDL
MODEL 6
REMARK VINA RESULT:      -5.1     26.502     30.971
REMARK  Name = 28962421
REMARK  16 active torsions:
REMARK  status: ('A' for Active; 'I' for Inactive)
REMARK    1  A    between atoms: O_1  and  C_11
REMARK    2  A    between atoms: O_4  and  C_27
REMARK    3  A    between atoms: O_4  and  C_29
REMARK    4  A    between atoms: O_5  and  C_28
REMARK    5  A    between atoms: O_5  and  C_30
REMARK    6  A    between atoms: N_6  and  C_15
REMARK    7  A    between atoms: N_7  and  C_25
REMARK    8  A    between atoms: N_7  and  C_26
REMARK    9  A    between atoms: C_8  and  C_18
REMARK   10  A    between atoms: C_10  and  C_20
REMARK   11  A    between atoms: C_13  and  C_19
REMARK   12  A    between atoms: C_19  and  C_21
REMARK   13  A    between atoms: C_19  and  C_22
REMARK   14  A    between atoms: C_23  and  C_24
REMARK   15  A    between atoms: C_25  and  C_27
REMARK   16  A    between atoms: C_26  and  C_28
REMARK                            x       y       z     vdW  Elec       q    Type
REMARK                         _______ _______ _______ _____ _____    ______ ____
ROOT
ATOM      8  C   UNL     1     -11.669   8.341  19.011  0.00  0.00    -0.027 C 
ATOM      9  C   UNL     1     -12.993   7.983  18.259  0.00  0.00    +0.028 C 
ATOM     10  C   UNL     1     -13.212   8.936  17.030  0.00  0.00    +0.012 C 
ATOM     11  C   UNL     1     -14.192   7.878  19.246  0.00  0.00    +0.122 C 
ATOM     12  C   UNL     1     -11.426   7.315  20.144  0.00  0.00    +0.007 C 
ATOM     13  C   UNL     1     -13.904   6.931  20.434  0.00  0.00    +0.029 C 
ATOM     14  C   UNL     1     -10.484   8.238  18.023  0.00  0.00    +0.009 C 
ATOM     15  C   UNL     1     -11.982   8.882  16.081  0.00  0.00    +0.076 C 
ATOM     16  C   UNL     1     -12.581   7.239  21.134  0.00  0.00    +0.007 C 
ATOM     17  C   UNL     1     -10.653   9.122  16.795  0.00  0.00    +0.023 C 
ATOM     18  C   UNL     1     -11.699   9.762  19.626  0.00  0.00    +0.011 C 
ATOM     20  C   UNL     1     -14.486   8.621  16.226  0.00  0.00    +0.010 C 
ENDROOT
BRANCH  15   6
ATOM      3  O   UNL     1     -11.384   8.443  13.274  0.00  0.00    -0.276 OA
ATOM      6  N   UNL     1     -12.099   9.835  14.997  0.00  0.00    -0.312 N 
ATOM     23  C   UNL     1     -11.788   9.528  13.685  0.00  0.00    +0.210 C 
ATOM     24  C   UNL     1     -12.023  10.691  12.759  0.00  0.00    +0.109 C 
ATOM     31  H   UNL     1     -12.368  10.788  15.228  0.00  0.00    +0.149 HD
ENDBRANCH  15   6
BRANCH  11   1
ATOM      1  O   UNL     1     -15.327   7.345  18.563  0.00  0.00    -0.391 OA
ATOM     32  H   UNL     1     -15.050   7.099  17.663  0.00  0.00    +0.210 HD
ENDBRANCH  11   1
BRANCH  13  19
ATOM     19  C   UNL     1     -15.042   6.943  21.460  0.00  0.00    +0.078 C 
ATOM     21  C   UNL     1     -14.558   7.605  22.752  0.00  0.00    +0.017 C 
BRANCH  19  22
ATOM      2  O   UNL     1     -14.686   4.610  21.871  0.00  0.00    -0.275 OA
ATOM      7  N   UNL     1     -16.898   5.281  21.761  0.00  0.00    -0.297 N 
ATOM     22  C   UNL     1     -15.519   5.512  21.722  0.00  0.00    +0.219 C 
BRANCH   7  25
ATOM     25  C   UNL     1     -17.386   3.925  21.986  0.00  0.00    +0.136 C 
BRANCH  25  27
ATOM     27  C   UNL     1     -17.551   3.629  23.466  0.00  0.00    +0.178 C 
BRANCH  27   4
ATOM      4  O   UNL     1     -16.639   2.607  23.848  0.00  0.00    -0.381 OA
ATOM     29  C   UNL     1     -15.726   3.066  24.835  0.00  0.00    +0.194 C 
ENDBRANCH  27   4
ENDBRANCH  25  27
ENDBRANCH   7  25
BRANCH   7  26
ATOM     26  C   UNL     1     -17.945   6.291  21.630  0.00  0.00    +0.136 C 
BRANCH  26  28
ATOM     28  C   UNL     1     -18.729   6.119  20.342  0.00  0.00    +0.178 C 
BRANCH  28   5
ATOM      5  O   UNL     1     -17.832   6.125  19.239  0.00  0.00    -0.381 OA
ATOM     30  C   UNL     1     -18.245   5.216  18.227  0.00  0.00    +0.194 C 
ENDBRANCH  28   5
ENDBRANCH  26  28
ENDBRANCH   7  26
ENDBRANCH  19  22
ENDBRANCH  13  19
TORSDOF 10
ENDMDL
MODEL 7
REMARK VINA RESULT:      -4.9     25.437     27.887
REMARK  Name = 28962421
REMARK  16 active torsions:
REMARK  status: ('A' for Active; 'I' for Inactive)
REMARK    1  A    between atoms: O_1  and  C_11
REMARK    2  A    between atoms: O_4  and  C_27
REMARK    3  A    between atoms: O_4  and  C_29
REMARK    4  A    between atoms: O_5  and  C_28
REMARK    5  A    between atoms: O_5  and  C_30
REMARK    6  A    between atoms: N_6  and  C_15
REMARK    7  A    between atoms: N_7  and  C_25
REMARK    8  A    between atoms: N_7  and  C_26
REMARK    9  A    between atoms: C_8  and  C_18
REMARK   10  A    between atoms: C_10  and  C_20
REMARK   11  A    between atoms: C_13  and  C_19
REMARK   12  A    between atoms: C_19  and  C_21
REMARK   13  A    between atoms: C_19  and  C_22
REMARK   14  A    between atoms: C_23  and  C_24
REMARK   15  A    between atoms: C_25  and  C_27
REMARK   16  A    between atoms: C_26  and  C_28
REMARK                            x       y       z     vdW  Elec       q    Type
REMARK                         _______ _______ _______ _____ _____    ______ ____
ROOT
ATOM      8  C   UNL     1      -4.840 -11.110  17.944  0.00  0.00    -0.027 C 
ATOM      9  C   UNL     1      -5.588 -12.113  17.004  0.00  0.00    +0.028 C 
ATOM     10  C   UNL     1      -6.375 -13.183  17.843  0.00  0.00    +0.012 C 
ATOM     11  C   UNL     1      -4.632 -12.687  15.917  0.00  0.00    +0.122 C 
ATOM     12  C   UNL     1      -4.170 -10.006  17.091  0.00  0.00    +0.007 C 
ATOM     13  C   UNL     1      -3.886 -11.580  15.138  0.00  0.00    +0.029 C 
ATOM     14  C   UNL     1      -5.870 -10.425  18.871  0.00  0.00    +0.009 C 
ATOM     15  C   UNL     1      -7.354 -12.482  18.826  0.00  0.00    +0.076 C 
ATOM     16  C   UNL     1      -3.205 -10.562  16.052  0.00  0.00    +0.007 C 
ATOM     17  C   UNL     1      -6.685 -11.416  19.693  0.00  0.00    +0.023 C 
ATOM     18  C   UNL     1      -3.754 -11.799  18.807  0.00  0.00    +0.011 C 
ATOM     20  C   UNL     1      -7.158 -14.187  16.979  0.00  0.00    +0.010 C 
ENDROOT
BRANCH  15   6
ATOM      3  O   UNL     1     -10.056 -12.334  19.879  0.00  0.00    -0.276 OA
ATOM      6  N   UNL     1      -8.012 -13.434  19.696  0.00  0.00    -0.312 N 
ATOM     23  C   UNL     1      -9.310 -13.272  20.147  0.00  0.00    +0.210 C 
ATOM     24  C   UNL     1      -9.755 -14.418  21.015  0.00  0.00    +0.109 C 
ATOM     31  H   UNL     1      -7.470 -14.224  20.034  0.00  0.00    +0.149 HD
ENDBRANCH  15   6
BRANCH  11   1
ATOM      1  O   UNL     1      -5.390 -13.424  14.957  0.00  0.00    -0.391 OA
ATOM     32  H   UNL     1      -5.277 -12.995  14.090  0.00  0.00    +0.210 HD
ENDBRANCH  11   1
BRANCH  13  19
ATOM     19  C   UNL     1      -2.855 -12.165  14.165  0.00  0.00    +0.078 C 
ATOM     21  C   UNL     1      -1.452 -12.014  14.756  0.00  0.00    +0.017 C 
BRANCH  19  22
ATOM      2  O   UNL     1      -2.533 -10.303  12.693  0.00  0.00    -0.275 OA
ATOM      7  N   UNL     1      -3.561 -12.152  11.757  0.00  0.00    -0.297 N 
ATOM     22  C   UNL     1      -2.960 -11.457  12.811  0.00  0.00    +0.219 C 
BRANCH   7  25
ATOM     25  C   UNL     1      -3.697 -11.498  10.460  0.00  0.00    +0.136 C 
BRANCH  25  27
ATOM     27  C   UNL     1      -5.145 -11.160  10.154  0.00  0.00    +0.178 C 
BRANCH  27   4
ATOM      4  O   UNL     1      -5.272  -9.756   9.970  0.00  0.00    -0.381 OA
ATOM     29  C   UNL     1      -4.067  -9.182   9.482  0.00  0.00    +0.194 C 
ENDBRANCH  27   4
ENDBRANCH  25  27
ENDBRANCH   7  25
BRANCH   7  26
ATOM     26  C   UNL     1      -4.058 -13.526  11.802  0.00  0.00    +0.136 C 
BRANCH  26  28
ATOM     28  C   UNL     1      -2.964 -14.525  11.477  0.00  0.00    +0.178 C 
BRANCH  28   5
ATOM      5  O   UNL     1      -2.728 -15.353  12.610  0.00  0.00    -0.381 OA
ATOM     30  C   UNL     1      -1.349 -15.388  12.950  0.00  0.00    +0.194 C 
ENDBRANCH  28   5
ENDBRANCH  26  28
ENDBRANCH   7  26
ENDBRANCH  19  22
ENDBRANCH  13  19
TORSDOF 10
ENDMDL
MODEL 8
REMARK VINA RESULT:      -4.8     23.446     25.933
REMARK  Name = 28962421
REMARK  16 active torsions:
REMARK  status: ('A' for Active; 'I' for Inactive)
REMARK    1  A    between atoms: O_1  and  C_11
REMARK    2  A    between atoms: O_4  and  C_27
REMARK    3  A    between atoms: O_4  and  C_29
REMARK    4  A    between atoms: O_5  and  C_28
REMARK    5  A    between atoms: O_5  and  C_30
REMARK    6  A    between atoms: N_6  and  C_15
REMARK    7  A    between atoms: N_7  and  C_25
REMARK    8  A    between atoms: N_7  and  C_26
REMARK    9  A    between atoms: C_8  and  C_18
REMARK   10  A    between atoms: C_10  and  C_20
REMARK   11  A    between atoms: C_13  and  C_19
REMARK   12  A    between atoms: C_19  and  C_21
REMARK   13  A    between atoms: C_19  and  C_22
REMARK   14  A    between atoms: C_23  and  C_24
REMARK   15  A    between atoms: C_25  and  C_27
REMARK   16  A    between atoms: C_26  and  C_28
REMARK                            x       y       z     vdW  Elec       q    Type
REMARK                         _______ _______ _______ _____ _____    ______ ____
ROOT
ATOM      8  C   UNL     1      -2.735 -10.730  12.691  0.00  0.00    -0.027 C 
ATOM      9  C   UNL     1      -4.202 -10.436  13.148  0.00  0.00    +0.028 C 
ATOM     10  C   UNL     1      -4.585 -11.313  14.394  0.00  0.00    +0.012 C 
ATOM     11  C   UNL     1      -5.192 -10.510  11.950  0.00  0.00    +0.122 C 
ATOM     12  C   UNL     1      -2.353  -9.772  11.538  0.00  0.00    +0.007 C 
ATOM     13  C   UNL     1      -4.749  -9.630  10.758  0.00  0.00    +0.029 C 
ATOM     14  C   UNL     1      -1.774 -10.452  13.870  0.00  0.00    +0.009 C 
ATOM     15  C   UNL     1      -3.569 -11.082  15.548  0.00  0.00    +0.076 C 
ATOM     16  C   UNL     1      -3.297  -9.870  10.347  0.00  0.00    +0.007 C 
ATOM     17  C   UNL     1      -2.113 -11.256  15.118  0.00  0.00    +0.023 C 
ATOM     18  C   UNL     1      -2.543 -12.190  12.209  0.00  0.00    +0.011 C 
ATOM     20  C   UNL     1      -6.010 -11.054  14.915  0.00  0.00    +0.010 C 
ENDROOT
BRANCH  15   6
ATOM      3  O   UNL     1      -4.794 -10.389  18.087  0.00  0.00    -0.276 OA
ATOM      6  N   UNL     1      -3.824 -11.961  16.670  0.00  0.00    -0.312 N 
ATOM     23  C   UNL     1      -4.416 -11.532  17.844  0.00  0.00    +0.210 C 
ATOM     24  C   UNL     1      -4.587 -12.651  18.835  0.00  0.00    +0.109 C 
ATOM     31  H   UNL     1      -3.498 -12.921  16.607  0.00  0.00    +0.149 HD
ENDBRANCH  15   6
BRANCH  11   1
ATOM      1  O   UNL     1      -6.474 -10.030  12.358  0.00  0.00    -0.391 OA
ATOM     32  H   UNL     1      -7.006  -9.873  11.559  0.00  0.00    +0.210 HD
ENDBRANCH  11   1
BRANCH  13  19
ATOM     19  C   UNL     1      -5.664  -9.816   9.542  0.00  0.00    +0.078 C 
ATOM     21  C   UNL     1      -4.838 -10.312   8.353  0.00  0.00    +0.017 C 
BRANCH  19  22
ATOM      2  O   UNL     1      -5.750  -7.430   9.350  0.00  0.00    -0.275 OA
ATOM      7  N   UNL     1      -7.693  -8.551   8.781  0.00  0.00    -0.297 N 
ATOM     22  C   UNL     1      -6.364  -8.495   9.212  0.00  0.00    +0.219 C 
BRANCH   7  25
ATOM     25  C   UNL     1      -8.395  -7.308   8.480  0.00  0.00    +0.136 C 
BRANCH  25  27
ATOM     27  C   UNL     1      -9.834  -7.348   8.962  0.00  0.00    +0.178 C 
BRANCH  27   4
ATOM      4  O   UNL     1     -10.602  -6.397   8.237  0.00  0.00    -0.381 OA
ATOM     29  C   UNL     1     -10.582  -6.666   6.841  0.00  0.00    +0.194 C 
ENDBRANCH  27   4
ENDBRANCH  25  27
ENDBRANCH   7  25
BRANCH   7  26
ATOM     26  C   UNL     1      -8.477  -9.764   8.558  0.00  0.00    +0.136 C 
BRANCH  26  28
ATOM     28  C   UNL     1      -8.389 -10.228   7.116  0.00  0.00    +0.178 C 
BRANCH  28   5
ATOM      5  O   UNL     1      -9.637 -10.005   6.472  0.00  0.00    -0.381 OA
ATOM     30  C   UNL     1      -9.527 -10.147   5.062  0.00  0.00    +0.194 C 
ENDBRANCH  28   5
ENDBRANCH  26  28
ENDBRANCH   7  26
ENDBRANCH  19  22
ENDBRANCH  13  19
TORSDOF 10
ENDMDL
MODEL 9
REMARK VINA RESULT:      -4.7     16.600     19.028
REMARK  Name = 28962421
REMARK  16 active torsions:
REMARK  status: ('A' for Active; 'I' for Inactive)
REMARK    1  A    between atoms: O_1  and  C_11
REMARK    2  A    between atoms: O_4  and  C_27
REMARK    3  A    between atoms: O_4  and  C_29
REMARK    4  A    between atoms: O_5  and  C_28
REMARK    5  A    between atoms: O_5  and  C_30
REMARK    6  A    between atoms: N_6  and  C_15
REMARK    7  A    between atoms: N_7  and  C_25
REMARK    8  A    between atoms: N_7  and  C_26
REMARK    9  A    between atoms: C_8  and  C_18
REMARK   10  A    between atoms: C_10  and  C_20
REMARK   11  A    between atoms: C_13  and  C_19
REMARK   12  A    between atoms: C_19  and  C_21
REMARK   13  A    between atoms: C_19  and  C_22
REMARK   14  A    between atoms: C_23  and  C_24
REMARK   15  A    between atoms: C_25  and  C_27
REMARK   16  A    between atoms: C_26  and  C_28
REMARK                            x       y       z     vdW  Elec       q    Type
REMARK                         _______ _______ _______ _____ _____    ______ ____
ROOT
ATOM      8  C   UNL     1      14.725   7.669  20.366  0.00  0.00    -0.027 C 
ATOM      9  C   UNL     1      15.390   8.617  21.419  0.00  0.00    +0.028 C 
ATOM     10  C   UNL     1      14.715  10.034  21.400  0.00  0.00    +0.012 C 
ATOM     11  C   UNL     1      16.940   8.613  21.281  0.00  0.00    +0.122 C 
ATOM     12  C   UNL     1      15.335   6.252  20.490  0.00  0.00    +0.007 C 
ATOM     13  C   UNL     1      17.535   7.186  21.300  0.00  0.00    +0.029 C 
ATOM     14  C   UNL     1      13.214   7.558  20.672  0.00  0.00    +0.009 C 
ATOM     15  C   UNL     1      13.183   9.904  21.634  0.00  0.00    +0.076 C 
ATOM     16  C   UNL     1      16.848   6.240  20.316  0.00  0.00    +0.007 C 
ATOM     17  C   UNL     1      12.508   8.907  20.693  0.00  0.00    +0.023 C 
ATOM     18  C   UNL     1      14.916   8.168  18.912  0.00  0.00    +0.011 C 
ATOM     20  C   UNL     1      15.303  11.011  22.433  0.00  0.00    +0.010 C 
ENDROOT
BRANCH  15   6
ATOM      3  O   UNL     1      10.898  10.853  23.152  0.00  0.00    -0.276 OA
ATOM      6  N   UNL     1      12.512  11.181  21.507  0.00  0.00    -0.312 N 
ATOM     23  C   UNL     1      11.424  11.541  22.281  0.00  0.00    +0.210 C 
ATOM     24  C   UNL     1      10.936  12.929  21.963  0.00  0.00    +0.109 C 
ATOM     31  H   UNL     1      12.823  11.812  20.773  0.00  0.00    +0.149 HD
ENDBRANCH  15   6
BRANCH  11   1
ATOM      1  O   UNL     1      17.519   9.312  22.384  0.00  0.00    -0.391 OA
ATOM     32  H   UNL     1      18.487   9.272  22.291  0.00  0.00    +0.210 HD
ENDBRANCH  11   1
BRANCH  13  19
ATOM     19  C   UNL     1      19.045   7.195  21.033  0.00  0.00    +0.078 C 
ATOM     21  C   UNL     1      19.420   5.979  20.183  0.00  0.00    +0.017 C 
BRANCH  19  22
ATOM      2  O   UNL     1      19.565   6.319  23.200  0.00  0.00    -0.275 OA
ATOM      7  N   UNL     1      20.744   8.209  22.576  0.00  0.00    -0.297 N 
ATOM     22  C   UNL     1      19.807   7.194  22.361  0.00  0.00    +0.219 C 
BRANCH   7  25
ATOM     25  C   UNL     1      21.471   8.250  23.840  0.00  0.00    +0.136 C 
BRANCH  25  27
ATOM     27  C   UNL     1      22.886   7.724  23.687  0.00  0.00    +0.178 C 
BRANCH  27   4
ATOM      4  O   UNL     1      22.875   6.305  23.769  0.00  0.00    -0.381 OA
ATOM     29  C   UNL     1      23.390   5.710  22.586  0.00  0.00    +0.194 C 
ENDBRANCH  27   4
ENDBRANCH  25  27
ENDBRANCH   7  25
BRANCH   7  26
ATOM     26  C   UNL     1      21.114   9.256  21.626  0.00  0.00    +0.136 C 
BRANCH  26  28
ATOM     28  C   UNL     1      21.030  10.635  22.255  0.00  0.00    +0.178 C 
BRANCH  28   5
ATOM      5  O   UNL     1      19.702  11.129  22.134  0.00  0.00    -0.381 OA
ATOM     30  C   UNL     1      19.446  12.167  23.071  0.00  0.00    +0.194 C 
ENDBRANCH  28   5
ENDBRANCH  26  28
ENDBRANCH   7  26
ENDBRANCH  19  22
ENDBRANCH  13  19
TORSDOF 10
ENDMDL
MODEL 10
REMARK VINA RESULT:      -4.7     26.479     29.771
REMARK  Name = 28962421
REMARK  16 active torsions:
REMARK  status: ('A' for Active; 'I' for Inactive)
REMARK    1  A    between atoms: O_1  and  C_11
REMARK    2  A    between atoms: O_4  and  C_27
REMARK    3  A    between atoms: O_4  and  C_29
REMARK    4  A    between atoms: O_5  and  C_28
REMARK    5  A    between atoms: O_5  and  C_30
REMARK    6  A    between atoms: N_6  and  C_15
REMARK    7  A    between atoms: N_7  and  C_25
REMARK    8  A    between atoms: N_7  and  C_26
REMARK    9  A    between atoms: C_8  and  C_18
REMARK   10  A    between atoms: C_10  and  C_20
REMARK   11  A    between atoms: C_13  and  C_19
REMARK   12  A    between atoms: C_19  and  C_21
REMARK   13  A    between atoms: C_19  and  C_22
REMARK   14  A    between atoms: C_23  and  C_24
REMARK   15  A    between atoms: C_25  and  C_27
REMARK   16  A    between atoms: C_26  and  C_28
REMARK                            x       y       z     vdW  Elec       q    Type
REMARK                         _______ _______ _______ _____ _____    ______ ____
ROOT
ATOM      8  C   UNL     1      -3.031 -11.372  14.996  0.00  0.00    -0.027 C 
ATOM      9  C   UNL     1      -3.849 -12.692  15.189  0.00  0.00    +0.028 C 
ATOM     10  C   UNL     1      -3.634 -13.665  13.974  0.00  0.00    +0.012 C 
ATOM     11  C   UNL     1      -5.333 -12.389  15.548  0.00  0.00    +0.122 C 
ATOM     12  C   UNL     1      -3.173 -10.488  16.259  0.00  0.00    +0.007 C 
ATOM     13  C   UNL     1      -5.468 -11.420  16.746  0.00  0.00    +0.029 C 
ATOM     14  C   UNL     1      -1.534 -11.726  14.838  0.00  0.00    +0.009 C 
ATOM     15  C   UNL     1      -2.120 -13.954  13.777  0.00  0.00    +0.076 C 
ATOM     16  C   UNL     1      -4.623 -10.157  16.590  0.00  0.00    +0.007 C 
ATOM     17  C   UNL     1      -1.266 -12.689  13.690  0.00  0.00    +0.023 C 
ATOM     18  C   UNL     1      -3.496 -10.558  13.764  0.00  0.00    +0.011 C 
ATOM     20  C   UNL     1      -4.391 -14.998  14.112  0.00  0.00    +0.010 C 
ENDROOT
BRANCH  15   6
ATOM      3  O   UNL     1      -0.463 -16.328  13.565  0.00  0.00    -0.276 OA
ATOM      6  N   UNL     1      -1.877 -14.754  12.595  0.00  0.00    -0.312 N 
ATOM     23  C   UNL     1      -1.066 -15.874  12.596  0.00  0.00    +0.210 C 
ATOM     24  C   UNL     1      -1.005 -16.533  11.244  0.00  0.00    +0.109 C 
ATOM     31  H   UNL     1      -2.277 -14.439  11.716  0.00  0.00    +0.149 HD
ENDBRANCH  15   6
BRANCH  11   1
ATOM      1  O   UNL     1      -5.990 -13.599  15.924  0.00  0.00    -0.391 OA
ATOM     32  H   UNL     1      -6.427 -13.452  16.782  0.00  0.00    +0.210 HD
ENDBRANCH  11   1
BRANCH  13  19
ATOM     19  C   UNL     1      -6.929 -11.031  17.001  0.00  0.00    +0.078 C 
ATOM     21  C   UNL     1      -7.093  -9.520  16.826  0.00  0.00    +0.017 C 
BRANCH  19  22
ATOM      2  O   UNL     1      -6.766 -10.992  19.390  0.00  0.00    -0.275 OA
ATOM      7  N   UNL     1      -8.364 -12.422  18.520  0.00  0.00    -0.297 N 
ATOM     22  C   UNL     1      -7.345 -11.470  18.408  0.00  0.00    +0.219 C 
BRANCH   7  25
ATOM     25  C   UNL     1      -8.768 -12.877  19.845  0.00  0.00    +0.136 C 
BRANCH  25  27
ATOM     27  C   UNL     1     -10.077 -12.244  20.278  0.00  0.00    +0.178 C 
BRANCH  27   4
ATOM      4  O   UNL     1      -9.911 -10.836  20.376  0.00  0.00    -0.381 OA
ATOM     29  C   UNL     1     -11.068 -10.142  19.929  0.00  0.00    +0.194 C 
ENDBRANCH  27   4
ENDBRANCH  25  27
ENDBRANCH   7  25
BRANCH   7  26
ATOM     26  C   UNL     1      -9.120 -13.008  17.416  0.00  0.00    +0.136 C 
BRANCH  26  28
ATOM     28  C   UNL     1      -9.277 -14.508  17.583  0.00  0.00    +0.178 C 
BRANCH  28   5
ATOM      5  O   UNL     1      -8.229 -15.173  16.889  0.00  0.00    -0.381 OA
ATOM     30  C   UNL     1      -8.724 -15.903  15.775  0.00  0.00    +0.194 C 
ENDBRANCH  28   5
ENDBRANCH  26  28
ENDBRANCH   7  26
ENDBRANCH  19  22
ENDBRANCH  13  19
TORSDOF 10
ENDMDL
