MODEL 1
REMARK VINA RESULT:      -6.7      0.000      0.000
REMARK  Name = 38030268
REMARK  14 active torsions:
REMARK  status: ('A' for Active; 'I' for Inactive)
REMARK    1  A    between atoms: N_2  and  C_13
REMARK    2  A    between atoms: N_2  and  C_19
REMARK    3  A    between atoms: N_4  and  C_20
REMARK    4  A    between atoms: N_4  and  C_22
REMARK    5  A    between atoms: N_4  and  C_23
REMARK    6  A    between atoms: C_6  and  C_10
REMARK    7  A    between atoms: C_7  and  C_13
REMARK    8  A    between atoms: C_9  and  C_14
REMARK    9  A    between atoms: C_10  and  C_15
REMARK   10  A    between atoms: C_10  and  C_16
REMARK   11  A    between atoms: C_11  and  C_17
REMARK   12  A    between atoms: C_14  and  C_18
REMARK   13  A    between atoms: C_19  and  C_20
REMARK   14  A    between atoms: C_21  and  C_24
REMARK                            x       y       z     vdW  Elec       q    Type
REMARK                         _______ _______ _______ _____ _____    ______ ____
ROOT
ATOM      6  C   UNL     1      12.989   9.723  20.131  0.00  0.00    +0.000 C 
ATOM      7  C   UNL     1      11.536   9.690  20.667  0.00  0.00    +0.029 C 
ATOM      8  C   UNL     1      13.302   8.436  19.352  0.00  0.00    +0.012 C 
ATOM      9  C   UNL     1      13.132   7.175  20.217  0.00  0.00    +0.024 C 
ATOM     11  C   UNL     1      11.829   7.196  20.993  0.00  0.00    -0.073 C 
ATOM     12  C   UNL     1      11.124   8.327  21.172  0.00  0.00    -0.023 C 
ATOM     17  C   UNL     1      11.333   5.878  21.519  0.00  0.00    +0.039 C 
ENDROOT
BRANCH   6  10
ATOM     10  C   UNL     1      13.237  10.944  19.238  0.00  0.00    -0.013 C 
ATOM     15  C   UNL     1      14.484  11.694  19.697  0.00  0.00    +0.007 C 
ATOM     16  C   UNL     1      13.368  10.518  17.779  0.00  0.00    +0.007 C 
ENDBRANCH   6  10
BRANCH   7  13
ATOM     13  C   UNL     1      11.332  10.729  21.776  0.00  0.00    +0.088 C 
BRANCH  13   2
ATOM      2  N   UNL     1      11.876  10.248  23.034  0.00  0.00    -0.314 NA
ATOM     30  H   UNL     1      11.792   9.234  23.096  0.00  0.00    +0.122 HD
BRANCH   2  19
ATOM     19  C   UNL     1      11.191  10.857  24.168  0.00  0.00    +0.096 C 
BRANCH  19  20
ATOM     20  C   UNL     1      12.159  11.728  24.963  0.00  0.00    +0.099 C 
BRANCH  20   4
ATOM      4  N   UNL     1      11.729  13.120  24.928  0.00  0.00    -0.307 NA
ATOM     22  C   UNL     1      10.302  13.211  24.611  0.00  0.00    +0.104 C 
ATOM     23  C   UNL     1      12.515  13.880  23.955  0.00  0.00    +0.104 C 
ENDBRANCH  20   4
ENDBRANCH  19  20
ENDBRANCH   2  19
ENDBRANCH  13   2
ENDBRANCH   7  13
BRANCH   9  14
ATOM     14  C   UNL     1      14.327   6.984  21.157  0.00  0.00    +0.105 C 
BRANCH  14  18
ATOM      1  O   UNL     1      16.739   6.622  21.076  0.00  0.00    -0.420 OA
ATOM      3  N   UNL     1      15.677   6.150  19.165  0.00  0.00    -0.112 NA
ATOM      5  N   UNL     1      17.024   5.903  18.978  0.00  0.00    -0.107 NA
ATOM     18  C   UNL     1      15.557   6.569  20.403  0.00  0.00    +0.218 A 
ATOM     21  C   UNL     1      17.605   6.192  20.119  0.00  0.00    +0.248 A 
BRANCH  21  24
ATOM     24  C   UNL     1      18.985   6.126  20.505  0.00  0.00    +0.038 A 
ATOM     25  C   UNL     1      19.556   7.169  21.234  0.00  0.00    +0.013 A 
ATOM     26  C   UNL     1      19.755   5.018  20.152  0.00  0.00    +0.013 A 
ATOM     27  C   UNL     1      20.899   7.105  21.608  0.00  0.00    +0.001 A 
ATOM     28  C   UNL     1      21.097   4.954  20.526  0.00  0.00    +0.001 A 
ATOM     29  C   UNL     1      21.669   5.997  21.254  0.00  0.00    +0.000 A 
ENDBRANCH  21  24
ENDBRANCH  14  18
ENDBRANCH   9  14
TORSDOF 9
ENDMDL
MODEL 2
REMARK VINA RESULT:      -6.3      3.321      5.949
REMARK  Name = 38030268
REMARK  14 active torsions:
REMARK  status: ('A' for Active; 'I' for Inactive)
REMARK    1  A    between atoms: N_2  and  C_13
REMARK    2  A    between atoms: N_2  and  C_19
REMARK    3  A    between atoms: N_4  and  C_20
REMARK    4  A    between atoms: N_4  and  C_22
REMARK    5  A    between atoms: N_4  and  C_23
REMARK    6  A    between atoms: C_6  and  C_10
REMARK    7  A    between atoms: C_7  and  C_13
REMARK    8  A    between atoms: C_9  and  C_14
REMARK    9  A    between atoms: C_10  and  C_15
REMARK   10  A    between atoms: C_10  and  C_16
REMARK   11  A    between atoms: C_11  and  C_17
REMARK   12  A    between atoms: C_14  and  C_18
REMARK   13  A    between atoms: C_19  and  C_20
REMARK   14  A    between atoms: C_21  and  C_24
REMARK                            x       y       z     vdW  Elec       q    Type
REMARK                         _______ _______ _______ _____ _____    ______ ____
ROOT
ATOM      6  C   UNL     1      17.267   8.267  21.494  0.00  0.00    +0.000 C 
ATOM      7  C   UNL     1      16.612   7.358  20.423  0.00  0.00    +0.029 C 
ATOM      8  C   UNL     1      18.766   8.440  21.206  0.00  0.00    +0.012 C 
ATOM      9  C   UNL     1      19.515   7.095  21.185  0.00  0.00    +0.024 C 
ATOM     11  C   UNL     1      18.783   6.056  20.359  0.00  0.00    -0.073 C 
ATOM     12  C   UNL     1      17.490   6.198  20.017  0.00  0.00    -0.023 C 
ATOM     17  C   UNL     1      19.585   4.872  19.895  0.00  0.00    +0.039 C 
ENDROOT
BRANCH   6  10
ATOM     10  C   UNL     1      16.590   9.640  21.566  0.00  0.00    -0.013 C 
ATOM     15  C   UNL     1      17.547  10.676  22.146  0.00  0.00    +0.007 C 
ATOM     16  C   UNL     1      16.104  10.066  20.184  0.00  0.00    +0.007 C 
ENDBRANCH   6  10
BRANCH   7  13
ATOM     13  C   UNL     1      15.255   6.830  20.901  0.00  0.00    +0.088 C 
BRANCH  13   2
ATOM      2  N   UNL     1      14.270   6.910  19.837  0.00  0.00    -0.314 NA
ATOM     30  H   UNL     1      14.374   7.782  19.319  0.00  0.00    +0.122 HD
BRANCH   2  19
ATOM     19  C   UNL     1      12.915   6.826  20.369  0.00  0.00    +0.096 C 
BRANCH  19  20
ATOM     20  C   UNL     1      12.713   7.870  21.463  0.00  0.00    +0.099 C 
BRANCH  20   4
ATOM      4  N   UNL     1      11.355   8.398  21.410  0.00  0.00    -0.307 NA
ATOM     22  C   UNL     1      10.419   7.477  22.057  0.00  0.00    +0.104 C 
ATOM     23  C   UNL     1      10.951   8.644  20.025  0.00  0.00    +0.104 C 
ENDBRANCH  20   4
ENDBRANCH  19  20
ENDBRANCH   2  19
ENDBRANCH  13   2
ENDBRANCH   7  13
BRANCH   9  14
ATOM     14  C   UNL     1      19.772   6.584  22.606  0.00  0.00    +0.105 C 
BRANCH  14  18
ATOM      1  O   UNL     1      21.399   4.774  22.419  0.00  0.00    -0.420 OA
ATOM      3  N   UNL     1      22.251   6.696  23.183  0.00  0.00    -0.112 NA
ATOM      5  N   UNL     1      23.273   5.767  23.128  0.00  0.00    -0.107 NA
ATOM     18  C   UNL     1      21.176   6.073  22.760  0.00  0.00    +0.218 A 
ATOM     21  C   UNL     1      22.730   4.660  22.677  0.00  0.00    +0.248 A 
BRANCH  21  24
ATOM     24  C   UNL     1      23.312   3.375  22.419  0.00  0.00    +0.038 A 
ATOM     25  C   UNL     1      23.485   2.466  23.462  0.00  0.00    +0.013 A 
ATOM     26  C   UNL     1      23.705   3.035  21.125  0.00  0.00    +0.013 A 
ATOM     27  C   UNL     1      24.053   1.216  23.211  0.00  0.00    +0.001 A 
ATOM     28  C   UNL     1      24.272   1.786  20.874  0.00  0.00    +0.001 A 
ATOM     29  C   UNL     1      24.446   0.876  21.917  0.00  0.00    +0.000 A 
ENDBRANCH  21  24
ENDBRANCH  14  18
ENDBRANCH   9  14
TORSDOF 9
ENDMDL
MODEL 3
REMARK VINA RESULT:      -6.2     27.630     29.297
REMARK  Name = 38030268
REMARK  14 active torsions:
REMARK  status: ('A' for Active; 'I' for Inactive)
REMARK    1  A    between atoms: N_2  and  C_13
REMARK    2  A    between atoms: N_2  and  C_19
REMARK    3  A    between atoms: N_4  and  C_20
REMARK    4  A    between atoms: N_4  and  C_22
REMARK    5  A    between atoms: N_4  and  C_23
REMARK    6  A    between atoms: C_6  and  C_10
REMARK    7  A    between atoms: C_7  and  C_13
REMARK    8  A    between atoms: C_9  and  C_14
REMARK    9  A    between atoms: C_10  and  C_15
REMARK   10  A    between atoms: C_10  and  C_16
REMARK   11  A    between atoms: C_11  and  C_17
REMARK   12  A    between atoms: C_14  and  C_18
REMARK   13  A    between atoms: C_19  and  C_20
REMARK   14  A    between atoms: C_21  and  C_24
REMARK                            x       y       z     vdW  Elec       q    Type
REMARK                         _______ _______ _______ _____ _____    ______ ____
ROOT
ATOM      6  C   UNL     1      -6.861 -11.725  16.518  0.00  0.00    +0.000 C 
ATOM      7  C   UNL     1      -7.259 -11.906  18.004  0.00  0.00    +0.029 C 
ATOM      8  C   UNL     1      -5.627 -12.580  16.186  0.00  0.00    +0.012 C 
ATOM      9  C   UNL     1      -4.414 -12.218  17.062  0.00  0.00    +0.024 C 
ATOM     11  C   UNL     1      -4.790 -12.112  18.527  0.00  0.00    -0.073 C 
ATOM     12  C   UNL     1      -6.067 -11.987  18.929  0.00  0.00    -0.023 C 
ATOM     17  C   UNL     1      -3.667 -12.200  19.523  0.00  0.00    +0.039 C 
ENDROOT
BRANCH   6  10
ATOM     10  C   UNL     1      -8.012 -12.086  15.573  0.00  0.00    -0.013 C 
ATOM     15  C   UNL     1      -7.600 -11.860  14.122  0.00  0.00    +0.007 C 
ATOM     16  C   UNL     1      -8.447 -13.532  15.792  0.00  0.00    +0.007 C 
ENDBRANCH   6  10
BRANCH   7  13
ATOM     13  C   UNL     1      -8.191 -10.779  18.468  0.00  0.00    +0.088 C 
BRANCH  13   2
ATOM      2  N   UNL     1      -7.688  -9.488  18.033  0.00  0.00    -0.314 NA
ATOM     30  H   UNL     1      -7.420  -8.920  18.837  0.00  0.00    +0.122 HD
BRANCH   2  19
ATOM     19  C   UNL     1      -8.689  -8.772  17.252  0.00  0.00    +0.096 C 
BRANCH  19  20
ATOM     20  C   UNL     1     -10.082  -9.028  17.819  0.00  0.00    +0.099 C 
BRANCH  20   4
ATOM      4  N   UNL     1     -11.099  -8.513  16.909  0.00  0.00    -0.307 NA
ATOM     22  C   UNL     1     -11.094  -9.265  15.653  0.00  0.00    +0.104 C 
ATOM     23  C   UNL     1     -10.885  -7.089  16.650  0.00  0.00    +0.104 C 
ENDBRANCH  20   4
ENDBRANCH  19  20
ENDBRANCH   2  19
ENDBRANCH  13   2
ENDBRANCH   7  13
BRANCH   9  14
ATOM     14  C   UNL     1      -3.745 -10.930  16.574  0.00  0.00    +0.105 C 
BRANCH  14  18
ATOM      1  O   UNL     1      -4.038 -10.307  14.232  0.00  0.00    -0.420 OA
ATOM      3  N   UNL     1      -2.365 -11.747  14.594  0.00  0.00    -0.112 NA
ATOM      5  N   UNL     1      -2.417 -11.484  13.238  0.00  0.00    -0.107 NA
ATOM     18  C   UNL     1      -3.329 -11.039  15.135  0.00  0.00    +0.218 A 
ATOM     21  C   UNL     1      -3.408 -10.639  13.073  0.00  0.00    +0.248 A 
BRANCH  21  24
ATOM     24  C   UNL     1      -3.918 -10.024  11.882  0.00  0.00    +0.038 A 
ATOM     25  C   UNL     1      -3.074  -9.805  10.794  0.00  0.00    +0.013 A 
ATOM     26  C   UNL     1      -5.259  -9.646  11.812  0.00  0.00    +0.013 A 
ATOM     27  C   UNL     1      -3.571  -9.206   9.635  0.00  0.00    +0.001 A 
ATOM     28  C   UNL     1      -5.755  -9.047  10.654  0.00  0.00    +0.001 A 
ATOM     29  C   UNL     1      -4.911  -8.827   9.565  0.00  0.00    +0.000 A 
ENDBRANCH  21  24
ENDBRANCH  14  18
ENDBRANCH   9  14
TORSDOF 9
ENDMDL
MODEL 4
REMARK VINA RESULT:      -6.1     27.131     30.064
REMARK  Name = 38030268
REMARK  14 active torsions:
REMARK  status: ('A' for Active; 'I' for Inactive)
REMARK    1  A    between atoms: N_2  and  C_13
REMARK    2  A    between atoms: N_2  and  C_19
REMARK    3  A    between atoms: N_4  and  C_20
REMARK    4  A    between atoms: N_4  and  C_22
REMARK    5  A    between atoms: N_4  and  C_23
REMARK    6  A    between atoms: C_6  and  C_10
REMARK    7  A    between atoms: C_7  and  C_13
REMARK    8  A    between atoms: C_9  and  C_14
REMARK    9  A    between atoms: C_10  and  C_15
REMARK   10  A    between atoms: C_10  and  C_16
REMARK   11  A    between atoms: C_11  and  C_17
REMARK   12  A    between atoms: C_14  and  C_18
REMARK   13  A    between atoms: C_19  and  C_20
REMARK   14  A    between atoms: C_21  and  C_24
REMARK                            x       y       z     vdW  Elec       q    Type
REMARK                         _______ _______ _______ _____ _____    ______ ____
ROOT
ATOM      6  C   UNL     1      -6.508  -9.632   9.821  0.00  0.00    +0.000 C 
ATOM      7  C   UNL     1      -5.551  -9.220   8.674  0.00  0.00    +0.029 C 
ATOM      8  C   UNL     1      -6.069  -8.985  11.144  0.00  0.00    +0.012 C 
ATOM      9  C   UNL     1      -4.635  -9.382  11.540  0.00  0.00    +0.024 C 
ATOM     11  C   UNL     1      -3.674  -9.257  10.373  0.00  0.00    -0.073 C 
ATOM     12  C   UNL     1      -4.103  -9.172   9.102  0.00  0.00    -0.023 C 
ATOM     17  C   UNL     1      -2.210  -9.185  10.707  0.00  0.00    +0.039 C 
ENDROOT
BRANCH   6  10
ATOM     10  C   UNL     1      -7.960  -9.252   9.515  0.00  0.00    -0.013 C 
ATOM     15  C   UNL     1      -8.826  -9.408  10.761  0.00  0.00    +0.007 C 
ATOM     16  C   UNL     1      -8.035  -7.825   8.979  0.00  0.00    +0.007 C 
ENDBRANCH   6  10
BRANCH   7  13
ATOM     13  C   UNL     1      -5.698 -10.155   7.468  0.00  0.00    +0.088 C 
BRANCH  13   2
ATOM      2  N   UNL     1      -5.915  -9.392   6.252  0.00  0.00    -0.314 NA
ATOM     30  H   UNL     1      -5.916  -8.393   6.452  0.00  0.00    +0.122 HD
BRANCH   2  19
ATOM     19  C   UNL     1      -7.180  -9.757   5.624  0.00  0.00    +0.096 C 
BRANCH  19  20
ATOM     20  C   UNL     1      -7.813  -8.534   4.966  0.00  0.00    +0.099 C 
BRANCH  20   4
ATOM      4  N   UNL     1      -8.280  -8.869   3.626  0.00  0.00    -0.307 NA
ATOM     22  C   UNL     1      -7.809 -10.199   3.234  0.00  0.00    +0.104 C 
ATOM     23  C   UNL     1      -7.835  -7.866   2.658  0.00  0.00    +0.104 C 
ENDBRANCH  20   4
ENDBRANCH  19  20
ENDBRANCH   2  19
ENDBRANCH  13   2
ENDBRANCH   7  13
BRANCH   9  14
ATOM     14  C   UNL     1      -4.596 -10.794  12.132  0.00  0.00    +0.105 C 
BRANCH  14  18
ATOM      1  O   UNL     1      -4.929 -10.851  14.549  0.00  0.00    -0.420 OA
ATOM      3  N   UNL     1      -2.785 -10.735  13.923  0.00  0.00    -0.112 NA
ATOM      5  N   UNL     1      -2.826 -10.759  15.304  0.00  0.00    -0.107 NA
ATOM     18  C   UNL     1      -4.035 -10.790  13.525  0.00  0.00    +0.218 A 
ATOM     21  C   UNL     1      -4.097 -10.827  15.625  0.00  0.00    +0.248 A 
BRANCH  21  24
ATOM     24  C   UNL     1      -4.731 -10.879  16.911  0.00  0.00    +0.038 A 
ATOM     25  C   UNL     1      -5.961 -10.253  17.108  0.00  0.00    +0.013 A 
ATOM     26  C   UNL     1      -4.116 -11.556  17.964  0.00  0.00    +0.013 A 
ATOM     27  C   UNL     1      -6.577 -10.303  18.359  0.00  0.00    +0.001 A 
ATOM     28  C   UNL     1      -4.732 -11.606  19.214  0.00  0.00    +0.001 A 
ATOM     29  C   UNL     1      -5.963 -10.980  19.412  0.00  0.00    +0.000 A 
ENDBRANCH  21  24
ENDBRANCH  14  18
ENDBRANCH   9  14
TORSDOF 9
ENDMDL
MODEL 5
REMARK VINA RESULT:      -6.1     33.722     36.252
REMARK  Name = 38030268
REMARK  14 active torsions:
REMARK  status: ('A' for Active; 'I' for Inactive)
REMARK    1  A    between atoms: N_2  and  C_13
REMARK    2  A    between atoms: N_2  and  C_19
REMARK    3  A    between atoms: N_4  and  C_20
REMARK    4  A    between atoms: N_4  and  C_22
REMARK    5  A    between atoms: N_4  and  C_23
REMARK    6  A    between atoms: C_6  and  C_10
REMARK    7  A    between atoms: C_7  and  C_13
REMARK    8  A    between atoms: C_9  and  C_14
REMARK    9  A    between atoms: C_10  and  C_15
REMARK   10  A    between atoms: C_10  and  C_16
REMARK   11  A    between atoms: C_11  and  C_17
REMARK   12  A    between atoms: C_14  and  C_18
REMARK   13  A    between atoms: C_19  and  C_20
REMARK   14  A    between atoms: C_21  and  C_24
REMARK                            x       y       z     vdW  Elec       q    Type
REMARK                         _______ _______ _______ _____ _____    ______ ____
ROOT
ATOM      6  C   UNL     1       0.448 -12.462  -5.216  0.00  0.00    +0.000 C 
ATOM      7  C   UNL     1      -0.161 -13.377  -6.309  0.00  0.00    +0.029 C 
ATOM      8  C   UNL     1       1.252 -13.297  -4.206  0.00  0.00    +0.012 C 
ATOM      9  C   UNL     1       0.388 -14.369  -3.518  0.00  0.00    +0.024 C 
ATOM     11  C   UNL     1      -0.452 -15.141  -4.516  0.00  0.00    -0.073 C 
ATOM     12  C   UNL     1      -0.675 -14.688  -5.763  0.00  0.00    -0.023 C 
ATOM     17  C   UNL     1      -0.993 -16.469  -4.063  0.00  0.00    +0.039 C 
ENDROOT
BRANCH   6  10
ATOM     10  C   UNL     1       1.343 -11.374  -5.819  0.00  0.00    -0.013 C 
ATOM     15  C   UNL     1       1.777 -10.385  -4.742  0.00  0.00    +0.007 C 
ATOM     16  C   UNL     1       2.556 -12.000  -6.499  0.00  0.00    +0.007 C 
ENDBRANCH   6  10
BRANCH   7  13
ATOM     13  C   UNL     1      -1.286 -12.661  -7.065  0.00  0.00    +0.088 C 
BRANCH  13   2
ATOM      2  N   UNL     1      -2.227 -12.062  -6.135  0.00  0.00    -0.314 NA
ATOM     30  H   UNL     1      -2.175 -12.523  -5.227  0.00  0.00    +0.122 HD
BRANCH   2  19
ATOM     19  C   UNL     1      -3.592 -12.150  -6.641  0.00  0.00    +0.096 C 
BRANCH  19  20
ATOM     20  C   UNL     1      -4.524 -12.675  -5.553  0.00  0.00    +0.099 C 
BRANCH  20   4
ATOM      4  N   UNL     1      -3.891 -13.775  -4.836  0.00  0.00    -0.307 NA
ATOM     22  C   UNL     1      -4.369 -15.063  -5.341  0.00  0.00    +0.104 C 
ATOM     23  C   UNL     1      -4.144 -13.668  -3.398  0.00  0.00    +0.104 C 
ENDBRANCH  20   4
ENDBRANCH  19  20
ENDBRANCH   2  19
ENDBRANCH  13   2
ENDBRANCH   7  13
BRANCH   9  14
ATOM     14  C   UNL     1      -0.489 -13.753  -2.423  0.00  0.00    +0.105 C 
BRANCH  14  18
ATOM      1  O   UNL     1       1.416 -14.385  -1.035  0.00  0.00    -0.420 OA
ATOM      3  N   UNL     1      -0.306 -13.528   0.108  0.00  0.00    -0.112 NA
ATOM      5  N   UNL     1       0.694 -13.840   1.010  0.00  0.00    -0.107 NA
ATOM     18  C   UNL     1       0.159 -13.864  -1.073  0.00  0.00    +0.218 A 
ATOM     21  C   UNL     1       1.679 -14.337   0.299  0.00  0.00    +0.248 A 
BRANCH  21  24
ATOM     24  C   UNL     1       2.964 -14.826   0.704  0.00  0.00    +0.038 A 
ATOM     25  C   UNL     1       4.078 -14.618  -0.109  0.00  0.00    +0.013 A 
ATOM     26  C   UNL     1       3.101 -15.511   1.912  0.00  0.00    +0.013 A 
ATOM     27  C   UNL     1       5.329 -15.095   0.285  0.00  0.00    +0.001 A 
ATOM     28  C   UNL     1       4.351 -15.988   2.305  0.00  0.00    +0.001 A 
ATOM     29  C   UNL     1       5.465 -15.780   1.492  0.00  0.00    +0.000 A 
ENDBRANCH  21  24
ENDBRANCH  14  18
ENDBRANCH   9  14
TORSDOF 9
ENDMDL
MODEL 6
REMARK VINA RESULT:      -6.0     27.615     29.662
REMARK  Name = 38030268
REMARK  14 active torsions:
REMARK  status: ('A' for Active; 'I' for Inactive)
REMARK    1  A    between atoms: N_2  and  C_13
REMARK    2  A    between atoms: N_2  and  C_19
REMARK    3  A    between atoms: N_4  and  C_20
REMARK    4  A    between atoms: N_4  and  C_22
REMARK    5  A    between atoms: N_4  and  C_23
REMARK    6  A    between atoms: C_6  and  C_10
REMARK    7  A    between atoms: C_7  and  C_13
REMARK    8  A    between atoms: C_9  and  C_14
REMARK    9  A    between atoms: C_10  and  C_15
REMARK   10  A    between atoms: C_10  and  C_16
REMARK   11  A    between atoms: C_11  and  C_17
REMARK   12  A    between atoms: C_14  and  C_18
REMARK   13  A    between atoms: C_19  and  C_20
REMARK   14  A    between atoms: C_21  and  C_24
REMARK                            x       y       z     vdW  Elec       q    Type
REMARK                         _______ _______ _______ _____ _____    ______ ____
ROOT
ATOM      6  C   UNL     1      -6.759 -11.356  16.794  0.00  0.00    +0.000 C 
ATOM      7  C   UNL     1      -7.075 -11.493  18.305  0.00  0.00    +0.029 C 
ATOM      8  C   UNL     1      -5.689 -12.375  16.375  0.00  0.00    +0.012 C 
ATOM      9  C   UNL     1      -4.378 -12.201  17.164  0.00  0.00    +0.024 C 
ATOM     11  C   UNL     1      -4.631 -12.058  18.652  0.00  0.00    -0.073 C 
ATOM     12  C   UNL     1      -5.846 -11.755  19.143  0.00  0.00    -0.023 C 
ATOM     17  C   UNL     1      -3.465 -12.318  19.566  0.00  0.00    +0.039 C 
ENDROOT
BRANCH   6  10
ATOM     10  C   UNL     1      -8.013 -11.537  15.933  0.00  0.00    -0.013 C 
ATOM     15  C   UNL     1      -7.645 -11.554  14.453  0.00  0.00    +0.007 C 
ATOM     16  C   UNL     1      -8.746 -12.817  16.322  0.00  0.00    +0.007 C 
ENDBRANCH   6  10
BRANCH   7  13
ATOM     13  C   UNL     1      -7.799 -10.249  18.834  0.00  0.00    +0.088 C 
BRANCH  13   2
ATOM      2  N   UNL     1      -8.838 -10.624  19.777  0.00  0.00    -0.314 NA
ATOM     30  H   UNL     1      -8.689 -11.575  20.114  0.00  0.00    +0.122 HD
BRANCH   2  19
ATOM     19  C   UNL     1     -10.159 -10.533  19.164  0.00  0.00    +0.096 C 
BRANCH  19  20
ATOM     20  C   UNL     1     -11.243 -10.625  20.235  0.00  0.00    +0.099 C 
BRANCH  20   4
ATOM      4  N   UNL     1     -12.079 -11.797  20.005  0.00  0.00    -0.307 NA
ATOM     22  C   UNL     1     -11.685 -12.893  20.892  0.00  0.00    +0.104 C 
ATOM     23  C   UNL     1     -12.000 -12.221  18.606  0.00  0.00    +0.104 C 
ENDBRANCH  20   4
ENDBRANCH  19  20
ENDBRANCH   2  19
ENDBRANCH  13   2
ENDBRANCH   7  13
BRANCH   9  14
ATOM     14  C   UNL     1      -3.565 -11.017  16.630  0.00  0.00    +0.105 C 
BRANCH  14  18
ATOM      1  O   UNL     1      -3.883 -10.360  14.302  0.00  0.00    -0.420 OA
ATOM      3  N   UNL     1      -2.418 -12.026  14.591  0.00  0.00    -0.112 NA
ATOM      5  N   UNL     1      -2.500 -11.759  13.237  0.00  0.00    -0.107 NA
ATOM     18  C   UNL     1      -3.243 -11.186  15.173  0.00  0.00    +0.218 A 
ATOM     21  C   UNL     1      -3.367 -10.780  13.115  0.00  0.00    +0.248 A 
BRANCH  21  24
ATOM     24  C   UNL     1      -3.843 -10.099  11.946  0.00  0.00    +0.038 A 
ATOM     25  C   UNL     1      -5.165  -9.659  11.886  0.00  0.00    +0.013 A 
ATOM     26  C   UNL     1      -2.984  -9.877  10.870  0.00  0.00    +0.013 A 
ATOM     27  C   UNL     1      -5.628  -8.997  10.748  0.00  0.00    +0.001 A 
ATOM     28  C   UNL     1      -3.447  -9.215   9.733  0.00  0.00    +0.001 A 
ATOM     29  C   UNL     1      -4.769  -8.775   9.672  0.00  0.00    +0.000 A 
ENDBRANCH  21  24
ENDBRANCH  14  18
ENDBRANCH   9  14
TORSDOF 9
ENDMDL
MODEL 7
REMARK VINA RESULT:      -6.0     25.575     27.861
REMARK  Name = 38030268
REMARK  14 active torsions:
REMARK  status: ('A' for Active; 'I' for Inactive)
REMARK    1  A    between atoms: N_2  and  C_13
REMARK    2  A    between atoms: N_2  and  C_19
REMARK    3  A    between atoms: N_4  and  C_20
REMARK    4  A    between atoms: N_4  and  C_22
REMARK    5  A    between atoms: N_4  and  C_23
REMARK    6  A    between atoms: C_6  and  C_10
REMARK    7  A    between atoms: C_7  and  C_13
REMARK    8  A    between atoms: C_9  and  C_14
REMARK    9  A    between atoms: C_10  and  C_15
REMARK   10  A    between atoms: C_10  and  C_16
REMARK   11  A    between atoms: C_11  and  C_17
REMARK   12  A    between atoms: C_14  and  C_18
REMARK   13  A    between atoms: C_19  and  C_20
REMARK   14  A    between atoms: C_21  and  C_24
REMARK                            x       y       z     vdW  Elec       q    Type
REMARK                         _______ _______ _______ _____ _____    ______ ____
ROOT
ATOM      6  C   UNL     1     -10.789  10.382  17.283  0.00  0.00    +0.000 C 
ATOM      7  C   UNL     1     -10.466   8.896  16.984  0.00  0.00    +0.029 C 
ATOM      8  C   UNL     1     -10.441  10.724  18.740  0.00  0.00    +0.012 C 
ATOM      9  C   UNL     1     -11.212   9.847  19.744  0.00  0.00    +0.024 C 
ATOM     11  C   UNL     1     -11.164   8.380  19.363  0.00  0.00    -0.073 C 
ATOM     12  C   UNL     1     -10.815   7.974  18.129  0.00  0.00    -0.023 C 
ATOM     17  C   UNL     1     -11.482   7.388  20.447  0.00  0.00    +0.039 C 
ENDROOT
BRANCH   6  10
ATOM     10  C   UNL     1     -10.042  11.327  16.336  0.00  0.00    -0.013 C 
ATOM     15  C   UNL     1     -11.010  11.957  15.340  0.00  0.00    +0.007 C 
ATOM     16  C   UNL     1      -9.306  12.403  17.129  0.00  0.00    +0.007 C 
ENDBRANCH   6  10
BRANCH   7  13
ATOM     13  C   UNL     1     -11.175   8.421  15.711  0.00  0.00    +0.088 C 
BRANCH  13   2
ATOM      2  N   UNL     1     -12.552   8.058  15.997  0.00  0.00    -0.314 NA
ATOM     30  H   UNL     1     -12.623   7.063  16.205  0.00  0.00    +0.122 HD
BRANCH   2  19
ATOM     19  C   UNL     1     -13.422   8.376  14.871  0.00  0.00    +0.096 C 
BRANCH  19  20
ATOM     20  C   UNL     1     -12.797   7.889  13.567  0.00  0.00    +0.099 C 
BRANCH  20   4
ATOM      4  N   UNL     1     -13.255   8.709  12.452  0.00  0.00    -0.307 NA
ATOM     22  C   UNL     1     -12.985  10.125  12.708  0.00  0.00    +0.104 C 
ATOM     23  C   UNL     1     -14.684   8.500  12.211  0.00  0.00    +0.104 C 
ENDBRANCH  20   4
ENDBRANCH  19  20
ENDBRANCH   2  19
ENDBRANCH  13   2
ENDBRANCH   7  13
BRANCH   9  14
ATOM     14  C   UNL     1     -12.658  10.326  19.900  0.00  0.00    +0.105 C 
BRANCH  14  18
ATOM      1  O   UNL     1     -12.478  10.390  22.333  0.00  0.00    -0.420 OA
ATOM      3  N   UNL     1     -13.364  12.236  21.432  0.00  0.00    -0.112 NA
ATOM      5  N   UNL     1     -13.322  12.406  22.803  0.00  0.00    -0.107 NA
ATOM     18  C   UNL     1     -12.861  11.044  21.203  0.00  0.00    +0.218 A 
ATOM     21  C   UNL     1     -12.798  11.305  23.287  0.00  0.00    +0.248 A 
BRANCH  21  24
ATOM     24  C   UNL     1     -12.516  10.925  24.641  0.00  0.00    +0.038 A 
ATOM     25  C   UNL     1     -13.559  10.588  25.503  0.00  0.00    +0.013 A 
ATOM     26  C   UNL     1     -11.198  10.894  25.096  0.00  0.00    +0.013 A 
ATOM     27  C   UNL     1     -13.285  10.220  26.820  0.00  0.00    +0.001 A 
ATOM     28  C   UNL     1     -10.924  10.525  26.413  0.00  0.00    +0.001 A 
ATOM     29  C   UNL     1     -11.967  10.188  27.276  0.00  0.00    +0.000 A 
ENDBRANCH  21  24
ENDBRANCH  14  18
ENDBRANCH   9  14
TORSDOF 9
ENDMDL
MODEL 8
REMARK VINA RESULT:      -5.9     14.576     17.499
REMARK  Name = 38030268
REMARK  14 active torsions:
REMARK  status: ('A' for Active; 'I' for Inactive)
REMARK    1  A    between atoms: N_2  and  C_13
REMARK    2  A    between atoms: N_2  and  C_19
REMARK    3  A    between atoms: N_4  and  C_20
REMARK    4  A    between atoms: N_4  and  C_22
REMARK    5  A    between atoms: N_4  and  C_23
REMARK    6  A    between atoms: C_6  and  C_10
REMARK    7  A    between atoms: C_7  and  C_13
REMARK    8  A    between atoms: C_9  and  C_14
REMARK    9  A    between atoms: C_10  and  C_15
REMARK   10  A    between atoms: C_10  and  C_16
REMARK   11  A    between atoms: C_11  and  C_17
REMARK   12  A    between atoms: C_14  and  C_18
REMARK   13  A    between atoms: C_19  and  C_20
REMARK   14  A    between atoms: C_21  and  C_24
REMARK                            x       y       z     vdW  Elec       q    Type
REMARK                         _______ _______ _______ _____ _____    ______ ____
ROOT
ATOM      6  C   UNL     1      10.704   6.420   6.321  0.00  0.00    +0.000 C 
ATOM      7  C   UNL     1      10.376   6.426   4.807  0.00  0.00    +0.029 C 
ATOM      8  C   UNL     1      11.188   7.807   6.771  0.00  0.00    +0.012 C 
ATOM      9  C   UNL     1      12.443   8.263   6.003  0.00  0.00    +0.024 C 
ATOM     11  C   UNL     1      12.298   8.048   4.510  0.00  0.00    -0.073 C 
ATOM     12  C   UNL     1      11.361   7.234   3.993  0.00  0.00    -0.023 C 
ATOM     17  C   UNL     1      13.228   8.827   3.620  0.00  0.00    +0.039 C 
ENDROOT
BRANCH   6  10
ATOM     10  C   UNL     1       9.495   5.995   7.162  0.00  0.00    -0.013 C 
ATOM     15  C   UNL     1       9.873   4.850   8.096  0.00  0.00    +0.007 C 
ATOM     16  C   UNL     1       8.953   7.181   7.953  0.00  0.00    +0.007 C 
ENDBRANCH   6  10
BRANCH   7  13
ATOM     13  C   UNL     1      10.303   4.999   4.251  0.00  0.00    +0.088 C 
BRANCH  13   2
ATOM      2  N   UNL     1      11.498   4.686   3.487  0.00  0.00    -0.314 NA
ATOM     30  H   UNL     1      11.873   5.526   3.048  0.00  0.00    +0.122 HD
BRANCH   2  19
ATOM     19  C   UNL     1      11.217   3.691   2.458  0.00  0.00    +0.096 C 
BRANCH  19  20
ATOM     20  C   UNL     1      12.491   3.354   1.690  0.00  0.00    +0.099 C 
BRANCH  20   4
ATOM      4  N   UNL     1      12.558   4.134   0.460  0.00  0.00    -0.307 NA
ATOM     22  C   UNL     1      11.250   4.177  -0.196  0.00  0.00    +0.104 C 
ATOM     23  C   UNL     1      13.565   3.582  -0.448  0.00  0.00    +0.104 C 
ENDBRANCH  20   4
ENDBRANCH  19  20
ENDBRANCH   2  19
ENDBRANCH  13   2
ENDBRANCH   7  13
BRANCH   9  14
ATOM     14  C   UNL     1      13.700   7.569   6.538  0.00  0.00    +0.105 C 
BRANCH  14  18
ATOM      1  O   UNL     1      16.094   7.795   6.121  0.00  0.00    -0.420 OA
ATOM      3  N   UNL     1      15.030   9.739   6.421  0.00  0.00    -0.112 NA
ATOM      5  N   UNL     1      16.366  10.013   6.197  0.00  0.00    -0.107 NA
ATOM     18  C   UNL     1      14.917   8.432   6.368  0.00  0.00    +0.218 A 
ATOM     21  C   UNL     1      16.949   8.849   6.028  0.00  0.00    +0.248 A 
BRANCH  21  24
ATOM     24  C   UNL     1      18.320   8.524   5.764  0.00  0.00    +0.038 A 
ATOM     25  C   UNL     1      19.267   8.612   6.784  0.00  0.00    +0.013 A 
ATOM     26  C   UNL     1      18.708   8.120   4.486  0.00  0.00    +0.013 A 
ATOM     27  C   UNL     1      20.602   8.298   6.527  0.00  0.00    +0.001 A 
ATOM     28  C   UNL     1      20.042   7.805   4.229  0.00  0.00    +0.001 A 
ATOM     29  C   UNL     1      20.989   7.893   5.249  0.00  0.00    +0.000 A 
ENDBRANCH  21  24
ENDBRANCH  14  18
ENDBRANCH   9  14
TORSDOF 9
ENDMDL
MODEL 9
REMARK VINA RESULT:      -5.8     13.015     17.213
REMARK  Name = 38030268
REMARK  14 active torsions:
REMARK  status: ('A' for Active; 'I' for Inactive)
REMARK    1  A    between atoms: N_2  and  C_13
REMARK    2  A    between atoms: N_2  and  C_19
REMARK    3  A    between atoms: N_4  and  C_20
REMARK    4  A    between atoms: N_4  and  C_22
REMARK    5  A    between atoms: N_4  and  C_23
REMARK    6  A    between atoms: C_6  and  C_10
REMARK    7  A    between atoms: C_7  and  C_13
REMARK    8  A    between atoms: C_9  and  C_14
REMARK    9  A    between atoms: C_10  and  C_15
REMARK   10  A    between atoms: C_10  and  C_16
REMARK   11  A    between atoms: C_11  and  C_17
REMARK   12  A    between atoms: C_14  and  C_18
REMARK   13  A    between atoms: C_19  and  C_20
REMARK   14  A    between atoms: C_21  and  C_24
REMARK                            x       y       z     vdW  Elec       q    Type
REMARK                         _______ _______ _______ _____ _____    ______ ____
ROOT
ATOM      6  C   UNL     1       9.687   6.803   6.522  0.00  0.00    +0.000 C 
ATOM      7  C   UNL     1       8.955   6.120   5.340  0.00  0.00    +0.029 C 
ATOM      8  C   UNL     1       8.809   7.908   7.130  0.00  0.00    +0.012 C 
ATOM      9  C   UNL     1       8.435   8.989   6.099  0.00  0.00    +0.024 C 
ATOM     11  C   UNL     1       7.952   8.381   4.797  0.00  0.00    -0.073 C 
ATOM     12  C   UNL     1       8.183   7.094   4.481  0.00  0.00    -0.023 C 
ATOM     17  C   UNL     1       7.159   9.276   3.885  0.00  0.00    +0.039 C 
ENDROOT
BRANCH   6  10
ATOM     10  C   UNL     1      10.078   5.795   7.608  0.00  0.00    -0.013 C 
ATOM     15  C   UNL     1      11.535   5.988   8.014  0.00  0.00    +0.007 C 
ATOM     16  C   UNL     1       9.157   5.931   8.816  0.00  0.00    +0.007 C 
ENDBRANCH   6  10
BRANCH   7  13
ATOM     13  C   UNL     1       9.935   5.332   4.464  0.00  0.00    +0.088 C 
BRANCH  13   2
ATOM      2  N   UNL     1      11.082   6.150   4.115  0.00  0.00    -0.314 NA
ATOM     30  H   UNL     1      10.794   7.112   3.938  0.00  0.00    +0.122 HD
BRANCH   2  19
ATOM     19  C   UNL     1      11.760   5.627   2.934  0.00  0.00    +0.096 C 
BRANCH  19  20
ATOM     20  C   UNL     1      11.308   4.196   2.659  0.00  0.00    +0.099 C 
BRANCH  20   4
ATOM      4  N   UNL     1      11.883   3.719   1.407  0.00  0.00    -0.307 NA
ATOM     22  C   UNL     1      13.290   3.358   1.591  0.00  0.00    +0.104 C 
ATOM     23  C   UNL     1      11.751   4.732   0.359  0.00  0.00    +0.104 C 
ENDBRANCH  20   4
ENDBRANCH  19  20
ENDBRANCH   2  19
ENDBRANCH  13   2
ENDBRANCH   7  13
BRANCH   9  14
ATOM     14  C   UNL     1       9.603   9.949   5.857  0.00  0.00    +0.105 C 
BRANCH  14  18
ATOM      1  O   UNL     1       9.566  10.848   8.125  0.00  0.00    -0.420 OA
ATOM      3  N   UNL     1      11.573  10.114   7.464  0.00  0.00    -0.112 NA
ATOM      5  N   UNL     1      11.697  10.592   8.755  0.00  0.00    -0.107 NA
ATOM     18  C   UNL     1      10.313  10.284   7.137  0.00  0.00    +0.218 A 
ATOM     21  C   UNL     1      10.501  11.011   9.100  0.00  0.00    +0.248 A 
BRANCH  21  24
ATOM     24  C   UNL     1      10.039  11.600  10.323  0.00  0.00    +0.038 A 
ATOM     25  C   UNL     1      10.947  11.911  11.335  0.00  0.00    +0.013 A 
ATOM     26  C   UNL     1       8.680  11.863  10.500  0.00  0.00    +0.013 A 
ATOM     27  C   UNL     1      10.497  12.484  12.525  0.00  0.00    +0.001 A 
ATOM     28  C   UNL     1       8.231  12.436  11.690  0.00  0.00    +0.001 A 
ATOM     29  C   UNL     1       9.138  12.747  12.702  0.00  0.00    +0.000 A 
ENDBRANCH  21  24
ENDBRANCH  14  18
ENDBRANCH   9  14
TORSDOF 9
ENDMDL
MODEL 10
REMARK VINA RESULT:      -5.8     30.346     32.402
REMARK  Name = 38030268
REMARK  14 active torsions:
REMARK  status: ('A' for Active; 'I' for Inactive)
REMARK    1  A    between atoms: N_2  and  C_13
REMARK    2  A    between atoms: N_2  and  C_19
REMARK    3  A    between atoms: N_4  and  C_20
REMARK    4  A    between atoms: N_4  and  C_22
REMARK    5  A    between atoms: N_4  and  C_23
REMARK    6  A    between atoms: C_6  and  C_10
REMARK    7  A    between atoms: C_7  and  C_13
REMARK    8  A    between atoms: C_9  and  C_14
REMARK    9  A    between atoms: C_10  and  C_15
REMARK   10  A    between atoms: C_10  and  C_16
REMARK   11  A    between atoms: C_11  and  C_17
REMARK   12  A    between atoms: C_14  and  C_18
REMARK   13  A    between atoms: C_19  and  C_20
REMARK   14  A    between atoms: C_21  and  C_24
REMARK                            x       y       z     vdW  Elec       q    Type
REMARK                         _______ _______ _______ _____ _____    ______ ____
ROOT
ATOM      6  C   UNL     1     -15.044   1.580  30.786  0.00  0.00    +0.000 C 
ATOM      7  C   UNL     1     -16.275   1.703  29.853  0.00  0.00    +0.029 C 
ATOM      8  C   UNL     1     -15.382   2.102  32.191  0.00  0.00    +0.012 C 
ATOM      9  C   UNL     1     -15.835   3.574  32.173  0.00  0.00    +0.024 C 
ATOM     11  C   UNL     1     -16.863   3.833  31.090  0.00  0.00    -0.073 C 
ATOM     12  C   UNL     1     -17.054   2.979  30.069  0.00  0.00    -0.023 C 
ATOM     17  C   UNL     1     -17.698   5.075  31.233  0.00  0.00    +0.039 C 
ENDROOT
BRANCH   6  10
ATOM     10  C   UNL     1     -14.541   0.136  30.876  0.00  0.00    -0.013 C 
ATOM     15  C   UNL     1     -15.714  -0.839  30.863  0.00  0.00    +0.007 C 
ATOM     16  C   UNL     1     -13.576  -0.164  29.733  0.00  0.00    +0.007 C 
ENDBRANCH   6  10
BRANCH   7  13
ATOM     13  C   UNL     1     -15.866   1.597  28.380  0.00  0.00    +0.088 C 
BRANCH  13   2
ATOM      2  N   UNL     1     -16.786   0.740  27.653  0.00  0.00    -0.314 NA
ATOM     30  H   UNL     1     -16.605  -0.241  27.866  0.00  0.00    +0.122 HD
BRANCH   2  19
ATOM     19  C   UNL     1     -16.671   0.948  26.215  0.00  0.00    +0.096 C 
BRANCH  19  20
ATOM     20  C   UNL     1     -16.473   2.430  25.911  0.00  0.00    +0.099 C 
BRANCH  20   4
ATOM      4  N   UNL     1     -16.050   2.608  24.527  0.00  0.00    -0.307 NA
ATOM     22  C   UNL     1     -15.395   3.906  24.352  0.00  0.00    +0.104 C 
ATOM     23  C   UNL     1     -17.191   2.488  23.619  0.00  0.00    +0.104 C 
ENDBRANCH  20   4
ENDBRANCH  19  20
ENDBRANCH   2  19
ENDBRANCH  13   2
ENDBRANCH   7  13
BRANCH   9  14
ATOM     14  C   UNL     1     -14.637   4.518  32.031  0.00  0.00    +0.105 C 
BRANCH  14  18
ATOM      1  O   UNL     1     -13.678   6.359  33.314  0.00  0.00    -0.420 OA
ATOM      3  N   UNL     1     -14.407   4.653  34.564  0.00  0.00    -0.112 NA
ATOM      5  N   UNL     1     -13.893   5.617  35.412  0.00  0.00    -0.107 NA
ATOM     18  C   UNL     1     -14.260   5.130  33.349  0.00  0.00    +0.218 A 
ATOM     21  C   UNL     1     -13.479   6.594  34.639  0.00  0.00    +0.248 A 
BRANCH  21  24
ATOM     24  C   UNL     1     -12.862   7.845  34.970  0.00  0.00    +0.038 A 
ATOM     25  C   UNL     1     -12.592   8.158  36.302  0.00  0.00    +0.013 A 
ATOM     26  C   UNL     1     -12.533   8.749  33.960  0.00  0.00    +0.013 A 
ATOM     27  C   UNL     1     -11.992   9.377  36.624  0.00  0.00    +0.001 A 
ATOM     28  C   UNL     1     -11.934   9.966  34.282  0.00  0.00    +0.001 A 
ATOM     29  C   UNL     1     -11.663  10.281  35.614  0.00  0.00    +0.000 A 
ENDBRANCH  21  24
ENDBRANCH  14  18
ENDBRANCH   9  14
TORSDOF 9
ENDMDL
