MODEL 1
REMARK VINA RESULT:      -6.9      0.000      0.000
REMARK  Name = 40533565
REMARK  3 active torsions:
REMARK  status: ('A' for Active; 'I' for Inactive)
REMARK    1  A    between atoms: S_1  and  N_5
REMARK    2  A    between atoms: S_1  and  C_19
REMARK    3  A    between atoms: C_17  and  C_20
REMARK                            x       y       z     vdW  Elec       q    Type
REMARK                         _______ _______ _______ _____ _____    ______ ____
ROOT
ATOM      4  O   UNL     1     -14.875   9.223  20.019  0.00  0.00    -0.267 OA
ATOM      5  N   UNL     1     -11.442   9.577  16.424  0.00  0.00    -0.176 NA
ATOM      6  N   UNL     1     -12.659   9.472  19.337  0.00  0.00    -0.311 N 
ATOM      8  C   UNL     1     -11.851  11.487  17.978  0.00  0.00    +0.025 C 
ATOM      9  C   UNL     1     -10.262   9.724  18.608  0.00  0.00    +0.052 C 
ATOM     10  C   UNL     1     -10.512  11.229  18.656  0.00  0.00    +0.017 C 
ATOM     11  C   UNL     1     -11.817  11.018  16.515  0.00  0.00    +0.114 C 
ATOM     12  C   UNL     1     -10.169   9.265  17.141  0.00  0.00    +0.119 C 
ATOM     13  C   UNL     1     -12.959  10.801  18.787  0.00  0.00    +0.130 C 
ATOM     14  C   UNL     1     -11.358   8.964  19.330  0.00  0.00    +0.026 A 
ATOM     15  C   UNL     1     -11.086   7.801  19.942  0.00  0.00    +0.022 A 
ATOM     16  C   UNL     1     -13.723   8.791  19.962  0.00  0.00    +0.259 A 
ATOM     17  C   UNL     1     -13.394   7.471  20.608  0.00  0.00    +0.048 A 
ATOM     18  C   UNL     1     -12.123   7.044  20.584  0.00  0.00    +0.015 A 
ENDROOT
BRANCH  17  20
ATOM      7  N   UNL     1     -16.295   5.123  21.015  0.00  0.00    -0.263 NA
ATOM     20  C   UNL     1     -14.439   6.654  21.249  0.00  0.00    +0.005 A 
ATOM     23  C   UNL     1     -14.576   6.622  22.632  0.00  0.00    +0.011 A 
ATOM     26  C   UNL     1     -15.315   5.894  20.491  0.00  0.00    +0.119 A 
ATOM     28  C   UNL     1     -15.572   5.841  23.207  0.00  0.00    +0.020 A 
ATOM     29  C   UNL     1     -16.399   5.117  22.363  0.00  0.00    +0.111 A 
ENDBRANCH  17  20
BRANCH   5   1
ATOM      1  S   UNL     1     -11.614   8.863  14.878  0.00  0.00    +0.061 S 
ATOM      2  O   UNL     1     -10.681   7.763  14.760  0.00  0.00    -0.153 OA
ATOM      3  O   UNL     1     -11.663   9.909  13.878  0.00  0.00    -0.153 OA
BRANCH   1  19
ATOM     19  C   UNL     1     -13.236   8.181  15.030  0.00  0.00    +0.105 A 
ATOM     21  C   UNL     1     -13.829   7.543  13.940  0.00  0.00    +0.028 A 
ATOM     22  C   UNL     1     -13.923   8.280  16.239  0.00  0.00    +0.028 A 
ATOM     24  C   UNL     1     -15.110   7.006  14.060  0.00  0.00    +0.002 A 
ATOM     25  C   UNL     1     -15.204   7.742  16.359  0.00  0.00    +0.002 A 
ATOM     27  C   UNL     1     -15.797   7.105  15.269  0.00  0.00    +0.000 A 
ENDBRANCH   1  19
ENDBRANCH   5   1
TORSDOF 3
ENDMDL
MODEL 2
REMARK VINA RESULT:      -6.7     26.590     30.011
REMARK  Name = 40533565
REMARK  3 active torsions:
REMARK  status: ('A' for Active; 'I' for Inactive)
REMARK    1  A    between atoms: S_1  and  N_5
REMARK    2  A    between atoms: S_1  and  C_19
REMARK    3  A    between atoms: C_17  and  C_20
REMARK                            x       y       z     vdW  Elec       q    Type
REMARK                         _______ _______ _______ _____ _____    ______ ____
ROOT
ATOM      4  O   UNL     1      10.821   6.794   0.950  0.00  0.00    -0.267 OA
ATOM      5  N   UNL     1      11.276   7.065   5.905  0.00  0.00    -0.176 NA
ATOM      6  N   UNL     1      10.228   6.085   3.091  0.00  0.00    -0.311 N 
ATOM      8  C   UNL     1       9.112   7.635   4.798  0.00  0.00    +0.025 C 
ATOM      9  C   UNL     1       9.596   5.303   5.400  0.00  0.00    +0.052 C 
ATOM     10  C   UNL     1       8.491   6.355   5.342  0.00  0.00    +0.017 C 
ATOM     11  C   UNL     1      10.241   8.123   5.720  0.00  0.00    +0.114 C 
ATOM     12  C   UNL     1      10.699   5.767   6.369  0.00  0.00    +0.119 C 
ATOM     13  C   UNL     1       9.595   7.383   3.364  0.00  0.00    +0.130 C 
ATOM     14  C   UNL     1      10.177   5.046   4.022  0.00  0.00    +0.026 A 
ATOM     15  C   UNL     1      10.659   3.833   3.706  0.00  0.00    +0.022 A 
ATOM     16  C   UNL     1      10.789   5.912   1.810  0.00  0.00    +0.259 A 
ATOM     17  C   UNL     1      11.355   4.552   1.497  0.00  0.00    +0.048 A 
ATOM     18  C   UNL     1      11.261   3.589   2.426  0.00  0.00    +0.015 A 
ENDROOT
BRANCH  17  20
ATOM      7  N   UNL     1      11.792   3.716  -2.137  0.00  0.00    -0.263 NA
ATOM     20  C   UNL     1      12.006   4.275   0.206  0.00  0.00    +0.005 A 
ATOM     23  C   UNL     1      13.391   4.300   0.081  0.00  0.00    +0.011 A 
ATOM     26  C   UNL     1      11.258   3.981  -0.922  0.00  0.00    +0.119 A 
ATOM     28  C   UNL     1      13.977   4.034  -1.152  0.00  0.00    +0.020 A 
ATOM     29  C   UNL     1      13.141   3.749  -2.220  0.00  0.00    +0.111 A 
ENDBRANCH  17  20
BRANCH   5   1
ATOM      1  S   UNL     1      12.709   7.561   6.698  0.00  0.00    +0.061 S 
ATOM      2  O   UNL     1      13.112   6.532   7.634  0.00  0.00    -0.153 OA
ATOM      3  O   UNL     1      12.561   8.937   7.123  0.00  0.00    -0.153 OA
BRANCH   1  19
ATOM     19  C   UNL     1      13.840   7.530   5.342  0.00  0.00    +0.105 A 
ATOM     21  C   UNL     1      13.375   7.275   4.052  0.00  0.00    +0.028 A 
ATOM     22  C   UNL     1      15.198   7.762   5.561  0.00  0.00    +0.028 A 
ATOM     24  C   UNL     1      14.268   7.250   2.982  0.00  0.00    +0.002 A 
ATOM     25  C   UNL     1      16.091   7.738   4.490  0.00  0.00    +0.002 A 
ATOM     27  C   UNL     1      15.625   7.482   3.200  0.00  0.00    +0.000 A 
ENDBRANCH   1  19
ENDBRANCH   5   1
TORSDOF 3
ENDMDL
MODEL 3
REMARK VINA RESULT:      -6.7     27.489     30.451
REMARK  Name = 40533565
REMARK  3 active torsions:
REMARK  status: ('A' for Active; 'I' for Inactive)
REMARK    1  A    between atoms: S_1  and  N_5
REMARK    2  A    between atoms: S_1  and  C_19
REMARK    3  A    between atoms: C_17  and  C_20
REMARK                            x       y       z     vdW  Elec       q    Type
REMARK                         _______ _______ _______ _____ _____    ______ ____
ROOT
ATOM      4  O   UNL     1      12.355   7.736   2.746  0.00  0.00    -0.267 OA
ATOM      5  N   UNL     1      13.460   4.401  -0.788  0.00  0.00    -0.176 NA
ATOM      6  N   UNL     1      12.878   5.559   2.092  0.00  0.00    -0.311 N 
ATOM      8  C   UNL     1      15.113   4.945   1.002  0.00  0.00    +0.025 C 
ATOM      9  C   UNL     1      13.426   3.203   1.391  0.00  0.00    +0.052 C 
ATOM     10  C   UNL     1      14.885   3.579   1.635  0.00  0.00    +0.017 C 
ATOM     11  C   UNL     1      14.840   4.894  -0.510  0.00  0.00    +0.114 C 
ATOM     12  C   UNL     1      13.169   3.095  -0.124  0.00  0.00    +0.119 C 
ATOM     13  C   UNL     1      14.236   5.979   1.720  0.00  0.00    +0.130 C 
ATOM     14  C   UNL     1      12.488   4.220   2.014  0.00  0.00    +0.026 A 
ATOM     15  C   UNL     1      11.284   3.841   2.469  0.00  0.00    +0.022 A 
ATOM     16  C   UNL     1      12.034   6.552   2.628  0.00  0.00    +0.259 A 
ATOM     17  C   UNL     1      10.675   6.103   3.096  0.00  0.00    +0.048 A 
ATOM     18  C   UNL     1      10.365   4.802   3.012  0.00  0.00    +0.015 A 
ENDROOT
BRANCH  17  20
ATOM      7  N   UNL     1       8.775   8.229   5.539  0.00  0.00    -0.263 NA
ATOM     20  C   UNL     1       9.696   7.065   3.631  0.00  0.00    +0.005 A 
ATOM     23  C   UNL     1       8.790   7.707   2.793  0.00  0.00    +0.011 A 
ATOM     26  C   UNL     1       9.648   7.358   4.984  0.00  0.00    +0.119 A 
ATOM     28  C   UNL     1       7.878   8.610   3.327  0.00  0.00    +0.020 A 
ATOM     29  C   UNL     1       7.910   8.834   4.694  0.00  0.00    +0.111 A 
ENDBRANCH  17  20
BRANCH   5   1
ATOM      1  S   UNL     1      12.939   4.535  -2.413  0.00  0.00    +0.061 S 
ATOM      2  O   UNL     1      12.812   3.209  -2.980  0.00  0.00    -0.153 OA
ATOM      3  O   UNL     1      13.721   5.557  -3.076  0.00  0.00    -0.153 OA
BRANCH   1  19
ATOM     19  C   UNL     1      11.311   5.175  -2.164  0.00  0.00    +0.105 A 
ATOM     21  C   UNL     1      11.011   5.884  -1.001  0.00  0.00    +0.028 A 
ATOM     22  C   UNL     1      10.327   4.971  -3.131  0.00  0.00    +0.028 A 
ATOM     24  C   UNL     1       9.726   6.388  -0.805  0.00  0.00    +0.002 A 
ATOM     25  C   UNL     1       9.042   5.475  -2.934  0.00  0.00    +0.002 A 
ATOM     27  C   UNL     1       8.742   6.184  -1.770  0.00  0.00    +0.000 A 
ENDBRANCH   1  19
ENDBRANCH   5   1
TORSDOF 3
ENDMDL
MODEL 4
REMARK VINA RESULT:      -6.7      3.194      7.711
REMARK  Name = 40533565
REMARK  3 active torsions:
REMARK  status: ('A' for Active; 'I' for Inactive)
REMARK    1  A    between atoms: S_1  and  N_5
REMARK    2  A    between atoms: S_1  and  C_19
REMARK    3  A    between atoms: C_17  and  C_20
REMARK                            x       y       z     vdW  Elec       q    Type
REMARK                         _______ _______ _______ _____ _____    ______ ____
ROOT
ATOM      4  O   UNL     1     -14.143   8.642  18.008  0.00  0.00    -0.267 OA
ATOM      5  N   UNL     1     -15.921   7.851  22.596  0.00  0.00    -0.176 NA
ATOM      6  N   UNL     1     -14.341   7.313  19.914  0.00  0.00    -0.311 N 
ATOM      8  C   UNL     1     -16.583   6.361  20.706  0.00  0.00    +0.025 C 
ATOM      9  C   UNL     1     -14.537   5.881  21.977  0.00  0.00    +0.052 C 
ATOM     10  C   UNL     1     -15.739   5.236  21.291  0.00  0.00    +0.017 C 
ATOM     11  C   UNL     1     -17.069   7.306  21.817  0.00  0.00    +0.114 C 
ATOM     12  C   UNL     1     -15.023   6.782  23.127  0.00  0.00    +0.119 C 
ATOM     13  C   UNL     1     -15.766   7.091  19.633  0.00  0.00    +0.130 C 
ATOM     14  C   UNL     1     -13.710   6.684  20.990  0.00  0.00    +0.026 A 
ATOM     15  C   UNL     1     -12.385   6.807  21.160  0.00  0.00    +0.022 A 
ATOM     16  C   UNL     1     -13.628   8.100  18.988  0.00  0.00    +0.259 A 
ATOM     17  C   UNL     1     -12.149   8.250  19.225  0.00  0.00    +0.048 A 
ATOM     18  C   UNL     1     -11.598   7.608  20.265  0.00  0.00    +0.015 A 
ENDROOT
BRANCH  17  20
ATOM      7  N   UNL     1     -10.161   9.356  16.239  0.00  0.00    -0.263 NA
ATOM     20  C   UNL     1     -11.316   9.088  18.346  0.00  0.00    +0.005 A 
ATOM     23  C   UNL     1     -10.898  10.353  18.745  0.00  0.00    +0.011 A 
ATOM     26  C   UNL     1     -10.924   8.640  17.095  0.00  0.00    +0.119 A 
ATOM     28  C   UNL     1     -10.112  11.120  17.892  0.00  0.00    +0.020 A 
ATOM     29  C   UNL     1      -9.773  10.581  16.661  0.00  0.00    +0.111 A 
ENDBRANCH  17  20
BRANCH   5   1
ATOM      1  S   UNL     1     -16.301   9.109  23.693  0.00  0.00    +0.061 S 
ATOM      2  O   UNL     1     -16.640   8.530  24.976  0.00  0.00    -0.153 OA
ATOM      3  O   UNL     1     -17.187  10.051  23.043  0.00  0.00    -0.153 OA
BRANCH   1  19
ATOM     19  C   UNL     1     -14.716   9.873  23.849  0.00  0.00    +0.105 A 
ATOM     21  C   UNL     1     -14.272  10.309  25.098  0.00  0.00    +0.028 A 
ATOM     22  C   UNL     1     -13.909  10.040  22.724  0.00  0.00    +0.028 A 
ATOM     24  C   UNL     1     -13.021  10.913  25.220  0.00  0.00    +0.002 A 
ATOM     25  C   UNL     1     -12.658  10.644  22.847  0.00  0.00    +0.002 A 
ATOM     27  C   UNL     1     -12.214  11.080  24.096  0.00  0.00    +0.000 A 
ENDBRANCH   1  19
ENDBRANCH   5   1
TORSDOF 3
ENDMDL
MODEL 5
REMARK VINA RESULT:      -6.6     21.698     22.837
REMARK  Name = 40533565
REMARK  3 active torsions:
REMARK  status: ('A' for Active; 'I' for Inactive)
REMARK    1  A    between atoms: S_1  and  N_5
REMARK    2  A    between atoms: S_1  and  C_19
REMARK    3  A    between atoms: C_17  and  C_20
REMARK                            x       y       z     vdW  Elec       q    Type
REMARK                         _______ _______ _______ _____ _____    ______ ____
ROOT
ATOM      4  O   UNL     1      -6.664 -10.598  14.257  0.00  0.00    -0.267 OA
ATOM      5  N   UNL     1      -2.381 -12.913  13.195  0.00  0.00    -0.176 NA
ATOM      6  N   UNL     1      -4.333 -10.672  14.265  0.00  0.00    -0.311 N 
ATOM      8  C   UNL     1      -2.947 -10.736  12.113  0.00  0.00    +0.025 C 
ATOM      9  C   UNL     1      -1.816 -10.755  14.293  0.00  0.00    +0.052 C 
ATOM     10  C   UNL     1      -1.880 -10.038  12.947  0.00  0.00    +0.017 C 
ATOM     11  C   UNL     1      -2.582 -12.213  11.893  0.00  0.00    +0.114 C 
ATOM     12  C   UNL     1      -1.394 -12.220  14.077  0.00  0.00    +0.119 C 
ATOM     13  C   UNL     1      -4.307 -10.564  12.800  0.00  0.00    +0.130 C 
ATOM     14  C   UNL     1      -3.152 -10.691  15.010  0.00  0.00    +0.026 A 
ATOM     15  C   UNL     1      -3.200 -10.671  16.351  0.00  0.00    +0.022 A 
ATOM     16  C   UNL     1      -5.602 -10.649  14.879  0.00  0.00    +0.259 A 
ATOM     17  C   UNL     1      -5.625 -10.666  16.385  0.00  0.00    +0.048 A 
ATOM     18  C   UNL     1      -4.457 -10.665  17.044  0.00  0.00    +0.015 A 
ENDROOT
BRANCH  17  20
ATOM      7  N   UNL     1      -8.870  -9.515  17.881  0.00  0.00    -0.263 NA
ATOM     20  C   UNL     1      -6.896 -10.690  17.128  0.00  0.00    +0.005 A 
ATOM     23  C   UNL     1      -7.333 -11.847  17.764  0.00  0.00    +0.011 A 
ATOM     26  C   UNL     1      -7.694  -9.561  17.215  0.00  0.00    +0.119 A 
ATOM     28  C   UNL     1      -8.538 -11.839  18.459  0.00  0.00    +0.020 A 
ATOM     29  C   UNL     1      -9.262 -10.658  18.487  0.00  0.00    +0.111 A 
ENDBRANCH  17  20
BRANCH   5   1
ATOM      1  S   UNL     1      -2.222 -14.615  13.103  0.00  0.00    +0.061 S 
ATOM      2  O   UNL     1      -0.839 -14.973  13.339  0.00  0.00    -0.153 OA
ATOM      3  O   UNL     1      -2.927 -15.092  11.932  0.00  0.00    -0.153 OA
BRANCH   1  19
ATOM     19  C   UNL     1      -3.152 -15.089  14.528  0.00  0.00    +0.105 A 
ATOM     21  C   UNL     1      -4.163 -14.257  15.009  0.00  0.00    +0.028 A 
ATOM     22  C   UNL     1      -2.877 -16.297  15.170  0.00  0.00    +0.028 A 
ATOM     24  C   UNL     1      -4.897 -14.632  16.134  0.00  0.00    +0.002 A 
ATOM     25  C   UNL     1      -3.611 -16.671  16.294  0.00  0.00    +0.002 A 
ATOM     27  C   UNL     1      -4.622 -15.838  16.776  0.00  0.00    +0.000 A 
ENDBRANCH   1  19
ENDBRANCH   5   1
TORSDOF 3
ENDMDL
MODEL 6
REMARK VINA RESULT:      -6.5     26.063     29.041
REMARK  Name = 40533565
REMARK  3 active torsions:
REMARK  status: ('A' for Active; 'I' for Inactive)
REMARK    1  A    between atoms: S_1  and  N_5
REMARK    2  A    between atoms: S_1  and  C_19
REMARK    3  A    between atoms: C_17  and  C_20
REMARK                            x       y       z     vdW  Elec       q    Type
REMARK                         _______ _______ _______ _____ _____    ______ ____
ROOT
ATOM      4  O   UNL     1      12.123   7.477   4.148  0.00  0.00    -0.267 OA
ATOM      5  N   UNL     1      11.603   5.462  -0.380  0.00  0.00    -0.176 NA
ATOM      6  N   UNL     1      12.293   5.660   2.696  0.00  0.00    -0.311 N 
ATOM      8  C   UNL     1      13.859   5.654   0.670  0.00  0.00    +0.025 C 
ATOM      9  C   UNL     1      12.462   3.690   1.137  0.00  0.00    +0.052 C 
ATOM     10  C   UNL     1      13.895   4.146   0.880  0.00  0.00    +0.017 C 
ATOM     11  C   UNL     1      12.980   6.012  -0.539  0.00  0.00    +0.114 C 
ATOM     12  C   UNL     1      11.595   3.995  -0.098  0.00  0.00    +0.119 C 
ATOM     13  C   UNL     1      13.378   6.325   1.962  0.00  0.00    +0.130 C 
ATOM     14  C   UNL     1      11.885   4.366   2.367  0.00  0.00    +0.026 A 
ATOM     15  C   UNL     1      10.975   3.733   3.123  0.00  0.00    +0.022 A 
ATOM     16  C   UNL     1      11.764   6.349   3.806  0.00  0.00    +0.259 A 
ATOM     17  C   UNL     1      10.717   5.628   4.614  0.00  0.00    +0.048 A 
ATOM     18  C   UNL     1      10.380   4.380   4.258  0.00  0.00    +0.015 A 
ENDROOT
BRANCH  17  20
ATOM      7  N   UNL     1       8.322   7.721   6.608  0.00  0.00    -0.263 NA
ATOM     20  C   UNL     1      10.065   6.273   5.766  0.00  0.00    +0.005 A 
ATOM     23  C   UNL     1      10.533   6.072   7.060  0.00  0.00    +0.011 A 
ATOM     26  C   UNL     1       8.966   7.099   5.595  0.00  0.00    +0.119 A 
ATOM     28  C   UNL     1       9.896   6.694   8.128  0.00  0.00    +0.020 A 
ATOM     29  C   UNL     1       8.805   7.502   7.852  0.00  0.00    +0.111 A 
ENDBRANCH  17  20
BRANCH   5   1
ATOM      1  S   UNL     1      10.453   6.001  -1.529  0.00  0.00    +0.061 S 
ATOM      2  O   UNL     1       9.512   4.933  -1.791  0.00  0.00    -0.153 OA
ATOM      3  O   UNL     1      11.146   6.666  -2.613  0.00  0.00    -0.153 OA
BRANCH   1  19
ATOM     19  C   UNL     1       9.620   7.234  -0.579  0.00  0.00    +0.105 A 
ATOM     21  C   UNL     1       9.763   7.260   0.808  0.00  0.00    +0.028 A 
ATOM     22  C   UNL     1       8.820   8.183  -1.216  0.00  0.00    +0.028 A 
ATOM     24  C   UNL     1       9.104   8.234   1.558  0.00  0.00    +0.002 A 
ATOM     25  C   UNL     1       8.162   9.157  -0.466  0.00  0.00    +0.002 A 
ATOM     27  C   UNL     1       8.305   9.182   0.922  0.00  0.00    +0.000 A 
ENDBRANCH   1  19
ENDBRANCH   5   1
TORSDOF 3
ENDMDL
MODEL 7
REMARK VINA RESULT:      -6.5     30.002     31.680
REMARK  Name = 40533565
REMARK  3 active torsions:
REMARK  status: ('A' for Active; 'I' for Inactive)
REMARK    1  A    between atoms: S_1  and  N_5
REMARK    2  A    between atoms: S_1  and  C_19
REMARK    3  A    between atoms: C_17  and  C_20
REMARK                            x       y       z     vdW  Elec       q    Type
REMARK                         _______ _______ _______ _____ _____    ______ ____
ROOT
ATOM      4  O   UNL     1       9.197 -12.025  31.703  0.00  0.00    -0.267 OA
ATOM      5  N   UNL     1       7.037  -9.040  35.058  0.00  0.00    -0.176 NA
ATOM      6  N   UNL     1       8.490  -9.912  32.393  0.00  0.00    -0.311 N 
ATOM      8  C   UNL     1       9.443  -8.745  34.463  0.00  0.00    +0.025 C 
ATOM      9  C   UNL     1       7.712  -7.631  33.124  0.00  0.00    +0.052 C 
ATOM     10  C   UNL     1       9.107  -7.459  33.719  0.00  0.00    +0.017 C 
ATOM     11  C   UNL     1       8.429  -8.999  35.590  0.00  0.00    +0.114 C 
ATOM     12  C   UNL     1       6.689  -7.828  34.258  0.00  0.00    +0.119 C 
ATOM     13  C   UNL     1       9.502  -9.901  33.457  0.00  0.00    +0.130 C 
ATOM     14  C   UNL     1       7.668  -8.806  32.165  0.00  0.00    +0.026 A 
ATOM     15  C   UNL     1       6.833  -8.792  31.115  0.00  0.00    +0.022 A 
ATOM     16  C   UNL     1       8.465 -11.045  31.555  0.00  0.00    +0.259 A 
ATOM     17  C   UNL     1       7.491 -11.016  30.407  0.00  0.00    +0.048 A 
ATOM     18  C   UNL     1       6.742  -9.919  30.229  0.00  0.00    +0.015 A 
ENDROOT
BRANCH  17  20
ATOM      7  N   UNL     1       8.013 -13.275  27.454  0.00  0.00    -0.263 NA
ATOM     20  C   UNL     1       7.349 -12.166  29.497  0.00  0.00    +0.005 A 
ATOM     23  C   UNL     1       6.463 -13.200  29.779  0.00  0.00    +0.011 A 
ATOM     26  C   UNL     1       8.094 -12.250  28.332  0.00  0.00    +0.119 A 
ATOM     28  C   UNL     1       6.352 -14.271  28.900  0.00  0.00    +0.020 A 
ATOM     29  C   UNL     1       7.141 -14.262  27.762  0.00  0.00    +0.111 A 
ENDBRANCH  17  20
BRANCH   5   1
ATOM      1  S   UNL     1       5.838  -9.567  36.161  0.00  0.00    +0.061 S 
ATOM      2  O   UNL     1       4.885  -8.497  36.369  0.00  0.00    -0.153 OA
ATOM      3  O   UNL     1       6.481 -10.220  37.281  0.00  0.00    -0.153 OA
BRANCH   1  19
ATOM     19  C   UNL     1       5.047 -10.811  35.187  0.00  0.00    +0.105 A 
ATOM     21  C   UNL     1       3.726 -11.169  35.454  0.00  0.00    +0.028 A 
ATOM     22  C   UNL     1       5.745 -11.433  34.152  0.00  0.00    +0.028 A 
ATOM     24  C   UNL     1       3.103 -12.152  34.686  0.00  0.00    +0.002 A 
ATOM     25  C   UNL     1       5.121 -12.415  33.384  0.00  0.00    +0.002 A 
ATOM     27  C   UNL     1       3.799 -12.775  33.651  0.00  0.00    +0.000 A 
ENDBRANCH   1  19
ENDBRANCH   5   1
TORSDOF 3
ENDMDL
MODEL 8
REMARK VINA RESULT:      -6.4     19.250     20.600
REMARK  Name = 40533565
REMARK  3 active torsions:
REMARK  status: ('A' for Active; 'I' for Inactive)
REMARK    1  A    between atoms: S_1  and  N_5
REMARK    2  A    between atoms: S_1  and  C_19
REMARK    3  A    between atoms: C_17  and  C_20
REMARK                            x       y       z     vdW  Elec       q    Type
REMARK                         _______ _______ _______ _____ _____    ______ ____
ROOT
ATOM      4  O   UNL     1      -7.856  -8.923  17.238  0.00  0.00    -0.267 OA
ATOM      5  N   UNL     1      -4.051 -11.641  15.516  0.00  0.00    -0.176 NA
ATOM      6  N   UNL     1      -6.740 -10.959  17.027  0.00  0.00    -0.311 N 
ATOM      8  C   UNL     1      -4.392 -11.350  17.971  0.00  0.00    +0.025 C 
ATOM      9  C   UNL     1      -5.548 -13.165  16.788  0.00  0.00    +0.052 C 
ATOM     10  C   UNL     1      -4.834 -12.803  18.087  0.00  0.00    +0.017 C 
ATOM     11  C   UNL     1      -3.429 -11.170  16.786  0.00  0.00    +0.114 C 
ATOM     12  C   UNL     1      -4.566 -13.040  15.608  0.00  0.00    +0.119 C 
ATOM     13  C   UNL     1      -5.635 -10.460  17.857  0.00  0.00    +0.130 C 
ATOM     14  C   UNL     1      -6.758 -12.277  16.564  0.00  0.00    +0.026 A 
ATOM     15  C   UNL     1      -7.830 -12.746  15.908  0.00  0.00    +0.022 A 
ATOM     16  C   UNL     1      -7.820 -10.079  16.816  0.00  0.00    +0.259 A 
ATOM     17  C   UNL     1      -8.994 -10.623  16.045  0.00  0.00    +0.048 A 
ATOM     18  C   UNL     1      -8.960 -11.902  15.642  0.00  0.00    +0.015 A 
ENDROOT
BRANCH  17  20
ATOM      7  N   UNL     1     -12.305  -8.887  16.390  0.00  0.00    -0.263 NA
ATOM     20  C   UNL     1     -10.157  -9.776  15.728  0.00  0.00    +0.005 A 
ATOM     23  C   UNL     1     -10.233  -9.084  14.524  0.00  0.00    +0.011 A 
ATOM     26  C   UNL     1     -11.209  -9.646  16.619  0.00  0.00    +0.119 A 
ATOM     28  C   UNL     1     -11.343  -8.293  14.253  0.00  0.00    +0.020 A 
ATOM     29  C   UNL     1     -12.344  -8.228  15.210  0.00  0.00    +0.111 A 
ENDBRANCH  17  20
BRANCH   5   1
ATOM      1  S   UNL     1      -3.190 -11.264  14.085  0.00  0.00    +0.061 S 
ATOM      2  O   UNL     1      -2.887 -12.491  13.379  0.00  0.00    -0.153 OA
ATOM      3  O   UNL     1      -2.149 -10.309  14.399  0.00  0.00    -0.153 OA
BRANCH   1  19
ATOM     19  C   UNL     1      -4.448 -10.417  13.180  0.00  0.00    +0.105 A 
ATOM     21  C   UNL     1      -5.681 -10.157  13.778  0.00  0.00    +0.028 A 
ATOM     22  C   UNL     1      -4.208 -10.007  11.869  0.00  0.00    +0.028 A 
ATOM     24  C   UNL     1      -6.675  -9.489  13.063  0.00  0.00    +0.002 A 
ATOM     25  C   UNL     1      -5.201  -9.338  11.155  0.00  0.00    +0.002 A 
ATOM     27  C   UNL     1      -6.435  -9.079  11.752  0.00  0.00    +0.000 A 
ENDBRANCH   1  19
ENDBRANCH   5   1
TORSDOF 3
ENDMDL
MODEL 9
REMARK VINA RESULT:      -6.4     21.028     22.815
REMARK  Name = 40533565
REMARK  3 active torsions:
REMARK  status: ('A' for Active; 'I' for Inactive)
REMARK    1  A    between atoms: S_1  and  N_5
REMARK    2  A    between atoms: S_1  and  C_19
REMARK    3  A    between atoms: C_17  and  C_20
REMARK                            x       y       z     vdW  Elec       q    Type
REMARK                         _______ _______ _______ _____ _____    ______ ____
ROOT
ATOM      4  O   UNL     1      -5.163 -12.745  10.085  0.00  0.00    -0.267 OA
ATOM      5  N   UNL     1      -3.742 -11.783  14.764  0.00  0.00    -0.176 NA
ATOM      6  N   UNL     1      -3.517 -12.180  11.638  0.00  0.00    -0.311 N 
ATOM      8  C   UNL     1      -2.815 -13.749  13.537  0.00  0.00    +0.025 C 
ATOM      9  C   UNL     1      -1.740 -11.553  13.308  0.00  0.00    +0.052 C 
ATOM     10  C   UNL     1      -1.467 -13.050  13.426  0.00  0.00    +0.017 C 
ATOM     11  C   UNL     1      -3.575 -13.264  14.782  0.00  0.00    +0.114 C 
ATOM     12  C   UNL     1      -2.449 -11.058  14.582  0.00  0.00    +0.119 C 
ATOM     13  C   UNL     1      -3.604 -13.517  12.242  0.00  0.00    +0.130 C 
ATOM     14  C   UNL     1      -2.580 -11.246  12.083  0.00  0.00    +0.026 A 
ATOM     15  C   UNL     1      -2.438 -10.076  11.441  0.00  0.00    +0.022 A 
ATOM     16  C   UNL     1      -4.349 -11.933  10.528  0.00  0.00    +0.259 A 
ATOM     17  C   UNL     1      -4.193 -10.597   9.851  0.00  0.00    +0.048 A 
ATOM     18  C   UNL     1      -3.263  -9.748  10.313  0.00  0.00    +0.015 A 
ENDROOT
BRANCH  17  20
ATOM      7  N   UNL     1      -6.903  -8.925   7.861  0.00  0.00    -0.263 NA
ATOM     20  C   UNL     1      -5.043 -10.216   8.710  0.00  0.00    +0.005 A 
ATOM     23  C   UNL     1      -4.824 -10.748   7.443  0.00  0.00    +0.011 A 
ATOM     26  C   UNL     1      -6.085  -9.317   8.865  0.00  0.00    +0.119 A 
ATOM     28  C   UNL     1      -5.644 -10.369   6.386  0.00  0.00    +0.020 A 
ATOM     29  C   UNL     1      -6.660  -9.463   6.645  0.00  0.00    +0.111 A 
ENDBRANCH  17  20
BRANCH   5   1
ATOM      1  S   UNL     1      -4.788 -11.140  15.957  0.00  0.00    +0.061 S 
ATOM      2  O   UNL     1      -4.145 -10.007  16.588  0.00  0.00    -0.153 OA
ATOM      3  O   UNL     1      -5.326 -12.227  16.747  0.00  0.00    -0.153 OA
BRANCH   1  19
ATOM     19  C   UNL     1      -6.086 -10.522  14.931  0.00  0.00    +0.105 A 
ATOM     21  C   UNL     1      -5.821 -10.173  13.607  0.00  0.00    +0.028 A 
ATOM     22  C   UNL     1      -7.375 -10.383  15.445  0.00  0.00    +0.028 A 
ATOM     24  C   UNL     1      -6.846  -9.684  12.797  0.00  0.00    +0.002 A 
ATOM     25  C   UNL     1      -8.399  -9.894  14.635  0.00  0.00    +0.002 A 
ATOM     27  C   UNL     1      -8.134  -9.545  13.310  0.00  0.00    +0.000 A 
ENDBRANCH   1  19
ENDBRANCH   5   1
TORSDOF 3
ENDMDL
MODEL 10
REMARK VINA RESULT:      -6.3     22.133     24.569
REMARK  Name = 40533565
REMARK  3 active torsions:
REMARK  status: ('A' for Active; 'I' for Inactive)
REMARK    1  A    between atoms: S_1  and  N_5
REMARK    2  A    between atoms: S_1  and  C_19
REMARK    3  A    between atoms: C_17  and  C_20
REMARK                            x       y       z     vdW  Elec       q    Type
REMARK                         _______ _______ _______ _____ _____    ______ ____
ROOT
ATOM      4  O   UNL     1      -0.023   8.817  41.369  0.00  0.00    -0.267 OA
ATOM      5  N   UNL     1      -3.435   9.919  37.909  0.00  0.00    -0.176 NA
ATOM      6  N   UNL     1      -0.698   8.936  39.140  0.00  0.00    -0.311 N 
ATOM      8  C   UNL     1      -1.265  11.150  37.985  0.00  0.00    +0.025 C 
ATOM      9  C   UNL     1      -1.427   9.044  36.732  0.00  0.00    +0.052 C 
ATOM     10  C   UNL     1      -0.812  10.441  36.716  0.00  0.00    +0.017 C 
ATOM     11  C   UNL     1      -2.798  11.262  38.026  0.00  0.00    +0.114 C 
ATOM     12  C   UNL     1      -2.963   9.158  36.713  0.00  0.00    +0.119 C 
ATOM     13  C   UNL     1      -0.700  10.404  39.200  0.00  0.00    +0.130 C 
ATOM     14  C   UNL     1      -0.971   8.261  37.948  0.00  0.00    +0.026 A 
ATOM     15  C   UNL     1      -0.848   6.926  37.886  0.00  0.00    +0.022 A 
ATOM     16  C   UNL     1      -0.305   8.255  40.310  0.00  0.00    +0.259 A 
ATOM     17  C   UNL     1      -0.212   6.755  40.220  0.00  0.00    +0.048 A 
ATOM     18  C   UNL     1      -0.469   6.165  39.044  0.00  0.00    +0.015 A 
ENDROOT
BRANCH  17  20
ATOM      7  N   UNL     1       1.858   4.858  42.713  0.00  0.00    -0.263 NA
ATOM     20  C   UNL     1       0.145   5.941  41.395  0.00  0.00    +0.005 A 
ATOM     23  C   UNL     1      -0.831   5.489  42.277  0.00  0.00    +0.011 A 
ATOM     26  C   UNL     1       1.462   5.601  41.654  0.00  0.00    +0.119 A 
ATOM     28  C   UNL     1      -0.463   4.722  43.377  0.00  0.00    +0.020 A 
ATOM     29  C   UNL     1       0.882   4.436  43.549  0.00  0.00    +0.111 A 
ENDBRANCH  17  20
BRANCH   5   1
ATOM      1  S   UNL     1      -5.123   9.873  38.195  0.00  0.00    +0.061 S 
ATOM      2  O   UNL     1      -5.759   9.105  37.145  0.00  0.00    -0.153 OA
ATOM      3  O   UNL     1      -5.582  11.205  38.525  0.00  0.00    -0.153 OA
BRANCH   1  19
ATOM     19  C   UNL     1      -5.160   8.904  39.671  0.00  0.00    +0.105 A 
ATOM     21  C   UNL     1      -4.068   8.104  40.007  0.00  0.00    +0.028 A 
ATOM     22  C   UNL     1      -6.281   8.939  40.500  0.00  0.00    +0.028 A 
ATOM     24  C   UNL     1      -4.098   7.339  41.172  0.00  0.00    +0.002 A 
ATOM     25  C   UNL     1      -6.310   8.175  41.665  0.00  0.00    +0.002 A 
ATOM     27  C   UNL     1      -5.218   7.374  42.001  0.00  0.00    +0.000 A 
ENDBRANCH   1  19
ENDBRANCH   5   1
TORSDOF 3
ENDMDL
