REMARK  Name = 11912239
REMARK  8 active torsions:
REMARK  status: ('A' for Active; 'I' for Inactive)
REMARK    1  A    between atoms: O_4  and  C_24
REMARK    2  A    between atoms: N_6  and  C_13
REMARK    3  A    between atoms: N_7  and  C_16
REMARK    4  A    between atoms: C_10  and  C_17
REMARK    5  A    between atoms: C_10  and  C_21
REMARK    6  A    between atoms: C_17  and  C_23
REMARK    7  A    between atoms: C_21  and  C_24
REMARK    8  A    between atoms: C_26  and  C_29
REMARK                            x       y       z     vdW  Elec       q    Type
REMARK                         _______ _______ _______ _____ _____    ______ ____
ROOT
ATOM      1  O   UNL     1       0.559   1.860   1.908  0.00  0.00    -0.370 OA
ATOM      2  O   UNL     1      -0.579   3.627  -0.398  0.00  0.00    -0.370 OA
ATOM     11  C   UNL     1      -0.851   2.285   0.040  0.00  0.00    +0.171 C 
ATOM     12  C   UNL     1       0.467   1.681   0.485  0.00  0.00    +0.171 C 
ATOM     13  C   UNL     1      -1.690   2.303   1.297  0.00  0.00    +0.130 C 
ATOM     16  C   UNL     1       1.512   2.515  -0.217  0.00  0.00    +0.130 C 
ATOM     20  C   UNL     1      -0.645   2.479   2.384  0.00  0.00    +0.185 C 
ATOM     22  C   UNL     1       0.834   3.868  -0.335  0.00  0.00    +0.185 C 
ENDROOT
BRANCH  16   7
ATOM      7  N   UNL     1       1.778   1.972  -1.532  0.00  0.00    -0.306 N 
ATOM      8  N   UNL     1       3.328   0.459  -0.697  0.00  0.00    -0.214 NA
ATOM      9  N   UNL     1       2.814   0.552  -3.049  0.00  0.00    -0.223 NA
ATOM     25  C   UNL     1       2.679   0.950  -1.770  0.00  0.00    +0.216 A 
ATOM     26  C   UNL     1       4.199  -0.536  -0.965  0.00  0.00    +0.076 A 
ATOM     27  C   UNL     1       3.700  -0.446  -3.245  0.00  0.00    +0.116 A 
ATOM     28  C   UNL     1       4.429  -1.034  -2.231  0.00  0.00    +0.048 A 
ATOM     36  H   UNL     1       1.247   2.310  -2.327  0.00  0.00    +0.149 HD
BRANCH  26  29
ATOM     29  C   UNL     1       4.896  -1.066   0.183  0.00  0.00    +0.001 A 
ATOM     30  C   UNL     1       6.289  -1.007   0.241  0.00  0.00    +0.010 A 
ATOM     31  C   UNL     1       4.178  -1.637   1.234  0.00  0.00    +0.010 A 
ATOM     32  C   UNL     1       6.963  -1.519   1.350  0.00  0.00    +0.001 A 
ATOM     33  C   UNL     1       4.852  -2.148   2.342  0.00  0.00    +0.001 A 
ATOM     34  C   UNL     1       6.244  -2.089   2.401  0.00  0.00    +0.000 A 
ENDBRANCH  26  29
ENDBRANCH  16   7
BRANCH  13   6
ATOM      3  O   UNL     1      -4.406   1.733   0.472  0.00  0.00    -0.276 OA
ATOM      6  N   UNL     1      -2.411   1.063   1.460  0.00  0.00    -0.308 N 
ATOM     23  C   UNL     1      -3.719   0.881   1.030  0.00  0.00    +0.214 C 
ATOM     35  H   UNL     1      -1.915   0.285   1.885  0.00  0.00    +0.149 HD
BRANCH  23  17
ATOM     17  C   UNL     1      -4.217  -0.520   1.331  0.00  0.00    +0.103 C 
BRANCH  17  10
ATOM     10  C   UNL     1      -3.968  -1.494   0.177  0.00  0.00    -0.011 C 
ATOM     14  C   UNL     1      -2.472  -1.616  -0.145  0.00  0.00    +0.008 C 
ATOM     15  C   UNL     1      -4.320  -2.936   0.568  0.00  0.00    +0.008 C 
ATOM     18  C   UNL     1      -2.326  -2.967  -0.843  0.00  0.00    +0.001 C 
ATOM     19  C   UNL     1      -3.513  -3.814  -0.385  0.00  0.00    +0.001 C 
BRANCH  10  21
ATOM     21  C   UNL     1      -4.768  -1.037  -1.053  0.00  0.00    +0.127 C 
BRANCH  21  24
ATOM      5  O   UNL     1      -6.973  -1.808  -0.354  0.00  0.00    -0.251 OA
ATOM     24  C   UNL     1      -6.231  -0.917  -0.739  0.00  0.00    +0.305 C 
BRANCH  24   4
ATOM      4  O   UNL     1      -6.632   0.364  -0.946  0.00  0.00    -0.481 OA
ATOM     37  H   UNL     1      -7.586   0.484  -0.749  0.00  0.00    +0.295 HD
ENDBRANCH  24   4
ENDBRANCH  21  24
ENDBRANCH  10  21
ENDBRANCH  17  10
ENDBRANCH  23  17
ENDBRANCH  13   6
TORSDOF 8
