REMARK  Name = 75536714
REMARK  9 active torsions:
REMARK  status: ('A' for Active; 'I' for Inactive)
REMARK    1  A    between atoms: S_1  and  N_7
REMARK    2  A    between atoms: S_1  and  C_16
REMARK    3  A    between atoms: O_3  and  C_10
REMARK    4  A    between atoms: N_6  and  C_9
REMARK    5  A    between atoms: N_6  and  C_14
REMARK    6  A    between atoms: N_7  and  C_13
REMARK    7  A    between atoms: C_11  and  C_13
REMARK    8  A    between atoms: C_14  and  C_15
REMARK    9  A    between atoms: C_23  and  C_26
REMARK                            x       y       z     vdW  Elec       q    Type
REMARK                         _______ _______ _______ _____ _____    ______ ____
ROOT
ATOM      2  O   UNL     1      -0.165  -1.446   1.375  0.00  0.00    -0.371 OA
ATOM      9  C   UNL     1      -2.115  -1.138   0.054  0.00  0.00    +0.111 C 
ATOM     10  C   UNL     1      -0.896  -0.769  -0.771  0.00  0.00    +0.164 C 
ATOM     11  C   UNL     1       0.203  -1.503  -0.014  0.00  0.00    +0.164 C 
ATOM     12  C   UNL     1      -1.553  -1.079   1.465  0.00  0.00    +0.181 C 
ENDROOT
BRANCH  10   3
ATOM      3  O   UNL     1      -0.992  -1.205  -2.113  0.00  0.00    -0.388 OA
ATOM     29  H   UNL     1      -1.143  -2.165  -2.113  0.00  0.00    +0.210 HD
ENDBRANCH  10   3
BRANCH   9   6
ATOM      6  N   UNL     1      -3.245  -0.245  -0.143  0.00  0.00    -0.305 NA
ATOM     27  H   UNL     1      -3.368  -0.079  -1.143  0.00  0.00    +0.123 HD
BRANCH   6  14
ATOM     14  C   UNL     1      -4.471  -0.822   0.394  0.00  0.00    +0.118 C 
BRANCH  14  15
ATOM      8  N   UNL     1      -7.675   0.649  -0.987  0.00  0.00    -0.263 NA
ATOM     15  C   UNL     1      -5.650   0.098   0.214  0.00  0.00    -0.015 A 
ATOM     17  C   UNL     1      -5.822   1.210   1.030  0.00  0.00    +0.008 A 
ATOM     18  C   UNL     1      -6.596  -0.137  -0.771  0.00  0.00    +0.115 A 
ATOM     24  C   UNL     1      -6.920   2.042   0.840  0.00  0.00    +0.020 A 
ATOM     25  C   UNL     1      -7.809   1.720  -0.173  0.00  0.00    +0.111 A 
ENDBRANCH  14  15
ENDBRANCH   6  14
ENDBRANCH   9   6
BRANCH  11  13
ATOM     13  C   UNL     1       1.578  -0.888  -0.206  0.00  0.00    +0.140 C 
BRANCH  13   7
ATOM      7  N   UNL     1       2.577  -1.659   0.560  0.00  0.00    -0.187 NA
ATOM     28  H   UNL     1       2.406  -1.730   1.571  0.00  0.00    +0.148 HD
BRANCH   7   1
ATOM      1  S   UNL     1       4.179  -1.771  -0.000  0.00  0.00    +0.058 S 
ATOM      4  O   UNL     1       4.177  -2.259  -1.366  0.00  0.00    -0.153 OA
ATOM      5  O   UNL     1       4.986  -2.430   1.008  0.00  0.00    -0.153 OA
BRANCH   1  16
ATOM     16  C   UNL     1       4.672  -0.074  -0.029  0.00  0.00    +0.105 A 
ATOM     19  C   UNL     1       5.258   0.501   1.099  0.00  0.00    +0.029 A 
ATOM     20  C   UNL     1       4.473   0.691  -1.178  0.00  0.00    +0.029 A 
ATOM     21  C   UNL     1       5.645   1.841   1.078  0.00  0.00    +0.005 A 
ATOM     22  C   UNL     1       4.859   2.031  -1.199  0.00  0.00    +0.005 A 
ATOM     23  C   UNL     1       5.446   2.606  -0.071  0.00  0.00    -0.050 A 
ATOM     26  C   UNL     1       5.859   4.039  -0.094  0.00  0.00    +0.044 C 
ENDBRANCH   1  16
ENDBRANCH   7   1
ENDBRANCH  13   7
ENDBRANCH  11  13
TORSDOF 8
