MODEL 1
REMARK VINA RESULT:      -6.6      0.000      0.000
REMARK  Name = 51138121
REMARK  8 active torsions:
REMARK  status: ('A' for Active; 'I' for Inactive)
REMARK    1  A    between atoms: N_3  and  C_5
REMARK    2  A    between atoms: N_4  and  C_26
REMARK    3  A    between atoms: C_6  and  C_16
REMARK    4  A    between atoms: C_7  and  C_17
REMARK    5  A    between atoms: C_16  and  C_19
REMARK    6  A    between atoms: C_19  and  C_24
REMARK    7  A    between atoms: C_19  and  C_25
REMARK    8  A    between atoms: C_26  and  C_27
REMARK                            x       y       z     vdW  Elec       q    Type
REMARK                         _______ _______ _______ _____ _____    ______ ____
ROOT
ATOM      2  N   UNL     1      15.396   8.842  20.883  0.00  0.00    -0.299 NA
ATOM      4  N   UNL     1      19.911   6.579  20.952  0.00  0.00    -0.343 N 
ATOM      6  C   UNL     1      16.384   9.926  20.985  0.00  0.00    +0.085 C 
ATOM      7  C   UNL     1      15.578   7.960  19.739  0.00  0.00    +0.145 C 
ATOM     10  C   UNL     1      16.344   6.695  20.121  0.00  0.00    +0.065 C 
ATOM     11  C   UNL     1      17.835   9.490  21.209  0.00  0.00    -0.021 A 
ATOM     14  C   UNL     1      18.340   8.175  20.991  0.00  0.00    +0.008 A 
ATOM     15  C   UNL     1      17.757   6.944  20.529  0.00  0.00    -0.020 A 
ATOM     18  C   UNL     1      19.695   7.910  21.220  0.00  0.00    +0.050 A 
ATOM     20  C   UNL     1      18.755   5.991  20.531  0.00  0.00    +0.090 A 
ATOM     21  C   UNL     1      18.787  10.469  21.589  0.00  0.00    +0.006 A 
ATOM     22  C   UNL     1      20.608   8.879  21.640  0.00  0.00    +0.026 A 
ATOM     23  C   UNL     1      20.131  10.172  21.809  0.00  0.00    +0.002 A 
ATOM     29  H   UNL     1      15.346   8.313  21.752  0.00  0.00    +0.123 HD
ENDROOT
BRANCH   7  17
ATOM      1  O   UNL     1      13.921   7.348  18.134  0.00  0.00    -0.274 OA
ATOM      3  N   UNL     1      13.302   7.565  20.368  0.00  0.00    -0.311 N 
ATOM     17  C   UNL     1      14.193   7.585  19.309  0.00  0.00    +0.231 C 
ATOM     30  H   UNL     1      13.653   7.722  21.308  0.00  0.00    +0.149 HD
BRANCH   3   5
ATOM      5  C   UNL     1      11.901   7.255  20.215  0.00  0.00    +0.073 C 
ATOM      8  C   UNL     1      11.074   8.507  19.958  0.00  0.00    +0.022 C 
ATOM      9  C   UNL     1      11.296   6.709  21.503  0.00  0.00    +0.022 C 
ATOM     12  C   UNL     1      10.845   9.107  21.343  0.00  0.00    +0.002 C 
ATOM     13  C   UNL     1      10.946   7.945  22.331  0.00  0.00    +0.002 C 
ENDBRANCH   3   5
ENDBRANCH   7  17
BRANCH   6  16
ATOM     16  C   UNL     1      15.857  10.827  22.117  0.00  0.00    +0.026 C 
BRANCH  16  19
ATOM     19  C   UNL     1      14.329  10.939  22.129  0.00  0.00    -0.015 C 
ATOM     24  C   UNL     1      13.897  12.054  21.173  0.00  0.00    +0.007 C 
ATOM     25  C   UNL     1      13.769  11.210  23.526  0.00  0.00    +0.007 C 
ENDBRANCH  16  19
ENDBRANCH   6  16
BRANCH   4  26
ATOM     26  C   UNL     1      21.177   5.890  21.073  0.00  0.00    +0.148 C 
BRANCH  26  27
ATOM     27  C   UNL     1      21.116   4.482  20.558  0.00  0.00    -0.013 C 
ATOM     28  C   UNL     1      21.581   3.422  21.227  0.00  0.00    +0.005 C 
ENDBRANCH  26  27
ENDBRANCH   4  26
TORSDOF 6
ENDMDL
MODEL 2
REMARK VINA RESULT:      -6.6      2.307      4.753
REMARK  Name = 51138121
REMARK  8 active torsions:
REMARK  status: ('A' for Active; 'I' for Inactive)
REMARK    1  A    between atoms: N_3  and  C_5
REMARK    2  A    between atoms: N_4  and  C_26
REMARK    3  A    between atoms: C_6  and  C_16
REMARK    4  A    between atoms: C_7  and  C_17
REMARK    5  A    between atoms: C_16  and  C_19
REMARK    6  A    between atoms: C_19  and  C_24
REMARK    7  A    between atoms: C_19  and  C_25
REMARK    8  A    between atoms: C_26  and  C_27
REMARK                            x       y       z     vdW  Elec       q    Type
REMARK                         _______ _______ _______ _____ _____    ______ ____
ROOT
ATOM      2  N   UNL     1      12.842   8.538  20.486  0.00  0.00    -0.299 NA
ATOM      4  N   UNL     1      17.751   9.025  21.569  0.00  0.00    -0.343 N 
ATOM      6  C   UNL     1      13.479   7.300  20.015  0.00  0.00    +0.085 C 
ATOM      7  C   UNL     1      13.059   8.835  21.895  0.00  0.00    +0.145 C 
ATOM     10  C   UNL     1      14.211   9.818  22.090  0.00  0.00    +0.065 C 
ATOM     11  C   UNL     1      15.010   7.275  20.062  0.00  0.00    -0.021 A 
ATOM     14  C   UNL     1      15.822   8.174  20.812  0.00  0.00    +0.008 A 
ATOM     15  C   UNL     1      15.543   9.276  21.694  0.00  0.00    -0.020 A 
ATOM     18  C   UNL     1      17.214   8.034  20.781  0.00  0.00    +0.050 A 
ATOM     20  C   UNL     1      16.756   9.773  22.126  0.00  0.00    +0.090 A 
ATOM     21  C   UNL     1      15.693   6.240  19.375  0.00  0.00    +0.006 A 
ATOM     22  C   UNL     1      17.871   7.036  20.060  0.00  0.00    +0.026 A 
ATOM     23  C   UNL     1      17.082   6.129  19.365  0.00  0.00    +0.002 A 
ATOM     29  H   UNL     1      13.103   9.328  19.898  0.00  0.00    +0.123 HD
ENDROOT
BRANCH   7  17
ATOM      1  O   UNL     1      10.685   9.040  22.027  0.00  0.00    -0.274 OA
ATOM      3  N   UNL     1      12.015  10.571  23.171  0.00  0.00    -0.311 N 
ATOM     17  C   UNL     1      11.786   9.470  22.363  0.00  0.00    +0.231 C 
ATOM     30  H   UNL     1      12.970  10.800  23.429  0.00  0.00    +0.149 HD
BRANCH   3   5
ATOM      5  C   UNL     1      10.955  11.371  23.733  0.00  0.00    +0.073 C 
ATOM      8  C   UNL     1      10.947  12.780  23.154  0.00  0.00    +0.022 C 
ATOM      9  C   UNL     1      11.159  11.620  25.223  0.00  0.00    +0.022 C 
ATOM     12  C   UNL     1      12.009  13.530  23.953  0.00  0.00    +0.002 C 
ATOM     13  C   UNL     1      12.114  12.810  25.297  0.00  0.00    +0.002 C 
ENDBRANCH   3   5
ENDBRANCH   7  17
BRANCH   6  16
ATOM     16  C   UNL     1      12.929   7.098  18.591  0.00  0.00    +0.026 C 
BRANCH  16  19
ATOM     19  C   UNL     1      12.879   8.396  17.780  0.00  0.00    -0.015 C 
ATOM     24  C   UNL     1      11.486   8.553  17.164  0.00  0.00    +0.007 C 
ATOM     25  C   UNL     1      13.939   8.446  16.679  0.00  0.00    +0.007 C 
ENDBRANCH  16  19
ENDBRANCH   6  16
BRANCH   4  26
ATOM     26  C   UNL     1      19.161   9.247  21.800  0.00  0.00    +0.148 C 
BRANCH  26  27
ATOM     27  C   UNL     1      19.716   8.352  22.869  0.00  0.00    -0.013 C 
ATOM     28  C   UNL     1      20.580   7.358  22.636  0.00  0.00    +0.005 C 
ENDBRANCH  26  27
ENDBRANCH   4  26
TORSDOF 6
ENDMDL
MODEL 3
REMARK VINA RESULT:      -6.5     27.486     29.929
REMARK  Name = 51138121
REMARK  8 active torsions:
REMARK  status: ('A' for Active; 'I' for Inactive)
REMARK    1  A    between atoms: N_3  and  C_5
REMARK    2  A    between atoms: N_4  and  C_26
REMARK    3  A    between atoms: C_6  and  C_16
REMARK    4  A    between atoms: C_7  and  C_17
REMARK    5  A    between atoms: C_16  and  C_19
REMARK    6  A    between atoms: C_19  and  C_24
REMARK    7  A    between atoms: C_19  and  C_25
REMARK    8  A    between atoms: C_26  and  C_27
REMARK                            x       y       z     vdW  Elec       q    Type
REMARK                         _______ _______ _______ _____ _____    ______ ____
ROOT
ATOM      2  N   UNL     1      -6.598 -11.007  16.151  0.00  0.00    -0.299 NA
ATOM      4  N   UNL     1      -3.907 -10.265  11.943  0.00  0.00    -0.343 N 
ATOM      6  C   UNL     1      -5.212 -10.802  16.596  0.00  0.00    +0.085 C 
ATOM      7  C   UNL     1      -7.143  -9.926  15.343  0.00  0.00    +0.145 C 
ATOM     10  C   UNL     1      -7.035 -10.231  13.851  0.00  0.00    +0.065 C 
ATOM     11  C   UNL     1      -4.157 -10.736  15.487  0.00  0.00    -0.021 A 
ATOM     14  C   UNL     1      -4.431 -10.519  14.106  0.00  0.00    +0.008 A 
ATOM     15  C   UNL     1      -5.633 -10.298  13.348  0.00  0.00    -0.020 A 
ATOM     18  C   UNL     1      -3.371 -10.466  13.193  0.00  0.00    +0.050 A 
ATOM     20  C   UNL     1      -5.263 -10.157  12.025  0.00  0.00    +0.090 A 
ATOM     21  C   UNL     1      -2.788 -10.818  15.848  0.00  0.00    +0.006 A 
ATOM     22  C   UNL     1      -2.031 -10.596  13.562  0.00  0.00    +0.026 A 
ATOM     23  C   UNL     1      -1.756 -10.761  14.913  0.00  0.00    +0.002 A 
ATOM     29  H   UNL     1      -6.700 -11.906  15.682  0.00  0.00    +0.123 HD
ENDROOT
BRANCH   7  17
ATOM      1  O   UNL     1      -9.360  -9.058  15.176  0.00  0.00    -0.274 OA
ATOM      3  N   UNL     1      -8.915 -10.716  16.748  0.00  0.00    -0.311 N 
ATOM     17  C   UNL     1      -8.590  -9.842  15.724  0.00  0.00    +0.231 C 
ATOM     30  H   UNL     1      -8.206 -11.361  17.086  0.00  0.00    +0.149 HD
BRANCH   3   5
ATOM      5  C   UNL     1     -10.238 -10.813  17.312  0.00  0.00    +0.073 C 
ATOM      8  C   UNL     1     -10.392  -9.926  18.539  0.00  0.00    +0.022 C 
ATOM      9  C   UNL     1     -10.520 -12.206  17.865  0.00  0.00    +0.022 C 
ATOM     12  C   UNL     1      -9.788 -10.739  19.680  0.00  0.00    +0.002 C 
ATOM     13  C   UNL     1      -9.909 -12.206  19.265  0.00  0.00    +0.002 C 
ENDBRANCH   3   5
ENDBRANCH   7  17
BRANCH   6  16
ATOM     16  C   UNL     1      -4.950 -11.946  17.592  0.00  0.00    +0.026 C 
BRANCH  16  19
ATOM     19  C   UNL     1      -4.650 -11.447  19.009  0.00  0.00    -0.015 C 
ATOM     24  C   UNL     1      -3.575 -12.335  19.640  0.00  0.00    +0.007 C 
ATOM     25  C   UNL     1      -5.891 -11.425  19.902  0.00  0.00    +0.007 C 
ENDBRANCH  16  19
ENDBRANCH   6  16
BRANCH   4  26
ATOM     26  C   UNL     1      -3.156 -10.161  10.711  0.00  0.00    +0.148 C 
BRANCH  26  27
ATOM     27  C   UNL     1      -3.600  -9.005   9.863  0.00  0.00    -0.013 C 
ATOM     28  C   UNL     1      -4.367  -9.130   8.774  0.00  0.00    +0.005 C 
ENDBRANCH  26  27
ENDBRANCH   4  26
TORSDOF 6
ENDMDL
MODEL 4
REMARK VINA RESULT:      -6.5     18.656     21.224
REMARK  Name = 51138121
REMARK  8 active torsions:
REMARK  status: ('A' for Active; 'I' for Inactive)
REMARK    1  A    between atoms: N_3  and  C_5
REMARK    2  A    between atoms: N_4  and  C_26
REMARK    3  A    between atoms: C_6  and  C_16
REMARK    4  A    between atoms: C_7  and  C_17
REMARK    5  A    between atoms: C_16  and  C_19
REMARK    6  A    between atoms: C_19  and  C_24
REMARK    7  A    between atoms: C_19  and  C_25
REMARK    8  A    between atoms: C_26  and  C_27
REMARK                            x       y       z     vdW  Elec       q    Type
REMARK                         _______ _______ _______ _____ _____    ______ ____
ROOT
ATOM      2  N   UNL     1      10.765   5.175   0.708  0.00  0.00    -0.299 NA
ATOM      4  N   UNL     1       9.552   5.666   5.586  0.00  0.00    -0.343 N 
ATOM      6  C   UNL     1      10.445   6.597   0.898  0.00  0.00    +0.085 C 
ATOM      7  C   UNL     1      11.812   4.666   1.581  0.00  0.00    +0.145 C 
ATOM     10  C   UNL     1      11.231   3.966   2.808  0.00  0.00    +0.065 C 
ATOM     11  C   UNL     1       9.865   6.976   2.265  0.00  0.00    -0.021 A 
ATOM     14  C   UNL     1       9.928   6.166   3.436  0.00  0.00    +0.008 A 
ATOM     15  C   UNL     1      10.495   4.877   3.731  0.00  0.00    -0.020 A 
ATOM     18  C   UNL     1       9.370   6.636   4.630  0.00  0.00    +0.050 A 
ATOM     20  C   UNL     1      10.231   4.607   5.059  0.00  0.00    +0.090 A 
ATOM     21  C   UNL     1       9.283   8.259   2.423  0.00  0.00    +0.006 A 
ATOM     22  C   UNL     1       8.758   7.885   4.754  0.00  0.00    +0.026 A 
ATOM     23  C   UNL     1       8.736   8.697   3.628  0.00  0.00    +0.002 A 
ATOM     29  H   UNL     1       9.924   4.603   0.768  0.00  0.00    +0.123 HD
ENDROOT
BRANCH   7  17
ATOM      1  O   UNL     1      13.419   2.934   1.241  0.00  0.00    -0.274 OA
ATOM      3  N   UNL     1      12.181   3.697  -0.578  0.00  0.00    -0.311 N 
ATOM     17  C   UNL     1      12.560   3.666   0.754  0.00  0.00    +0.231 C 
ATOM     30  H   UNL     1      11.417   4.306  -0.856  0.00  0.00    +0.149 HD
BRANCH   3   5
ATOM      5  C   UNL     1      12.768   2.848  -1.585  0.00  0.00    +0.073 C 
ATOM      8  C   UNL     1      13.260   3.653  -2.781  0.00  0.00    +0.022 C 
ATOM      9  C   UNL     1      11.739   1.912  -2.209  0.00  0.00    +0.022 C 
ATOM     12  C   UNL     1      12.011   3.885  -3.627  0.00  0.00    +0.002 C 
ATOM     13  C   UNL     1      11.052   2.744  -3.290  0.00  0.00    +0.002 C 
ENDBRANCH   3   5
ENDBRANCH   7  17
BRANCH   6  16
ATOM     16  C   UNL     1       9.494   6.941  -0.262  0.00  0.00    +0.026 C 
BRANCH  16  19
ATOM     19  C   UNL     1       9.876   6.248  -1.574  0.00  0.00    -0.015 C 
ATOM     24  C   UNL     1      10.791   7.171  -2.383  0.00  0.00    +0.007 C 
ATOM     25  C   UNL     1       8.659   5.861  -2.414  0.00  0.00    +0.007 C 
ENDBRANCH  16  19
ENDBRANCH   6  16
BRANCH   4  26
ATOM     26  C   UNL     1       9.111   5.745   6.962  0.00  0.00    +0.148 C 
BRANCH  26  27
ATOM     27  C   UNL     1       9.849   4.793   7.857  0.00  0.00    -0.013 C 
ATOM     28  C   UNL     1       9.455   4.476   9.095  0.00  0.00    +0.005 C 
ENDBRANCH  26  27
ENDBRANCH   4  26
TORSDOF 6
ENDMDL
MODEL 5
REMARK VINA RESULT:      -6.4     27.625     29.903
REMARK  Name = 51138121
REMARK  8 active torsions:
REMARK  status: ('A' for Active; 'I' for Inactive)
REMARK    1  A    between atoms: N_3  and  C_5
REMARK    2  A    between atoms: N_4  and  C_26
REMARK    3  A    between atoms: C_6  and  C_16
REMARK    4  A    between atoms: C_7  and  C_17
REMARK    5  A    between atoms: C_16  and  C_19
REMARK    6  A    between atoms: C_19  and  C_24
REMARK    7  A    between atoms: C_19  and  C_25
REMARK    8  A    between atoms: C_26  and  C_27
REMARK                            x       y       z     vdW  Elec       q    Type
REMARK                         _______ _______ _______ _____ _____    ______ ____
ROOT
ATOM      2  N   UNL     1      -6.886 -11.427  16.112  0.00  0.00    -0.299 NA
ATOM      4  N   UNL     1      -3.909 -10.158  12.235  0.00  0.00    -0.343 N 
ATOM      6  C   UNL     1      -5.552 -11.207  16.689  0.00  0.00    +0.085 C 
ATOM      7  C   UNL     1      -7.420 -10.297  15.366  0.00  0.00    +0.145 C 
ATOM     10  C   UNL     1      -7.177 -10.448  13.866  0.00  0.00    +0.065 C 
ATOM     11  C   UNL     1      -4.417 -10.986  15.685  0.00  0.00    -0.021 A 
ATOM     14  C   UNL     1      -4.590 -10.646  14.312  0.00  0.00    +0.008 A 
ATOM     15  C   UNL     1      -5.738 -10.404  13.479  0.00  0.00    -0.020 A 
ATOM     18  C   UNL     1      -3.465 -10.457  13.501  0.00  0.00    +0.050 A 
ATOM     20  C   UNL     1      -5.272 -10.117  12.211  0.00  0.00    +0.090 A 
ATOM     21  C   UNL     1      -3.079 -11.043  16.150  0.00  0.00    +0.006 A 
ATOM     22  C   UNL     1      -2.154 -10.565  13.968  0.00  0.00    +0.026 A 
ATOM     23  C   UNL     1      -1.979 -10.849  15.315  0.00  0.00    +0.002 A 
ATOM     29  H   UNL     1      -6.904 -12.279  15.553  0.00  0.00    +0.123 HD
ENDROOT
BRANCH   7  17
ATOM      1  O   UNL     1      -9.475 -11.332  16.000  0.00  0.00    -0.274 OA
ATOM      3  N   UNL     1      -9.486  -9.086  15.388  0.00  0.00    -0.311 N 
ATOM     17  C   UNL     1      -8.894 -10.314  15.630  0.00  0.00    +0.231 C 
ATOM     30  H   UNL     1      -8.895  -8.298  15.139  0.00  0.00    +0.149 HD
BRANCH   3   5
ATOM      5  C   UNL     1     -10.899  -8.846  15.545  0.00  0.00    +0.073 C 
ATOM      8  C   UNL     1     -11.396  -7.772  14.586  0.00  0.00    +0.022 C 
ATOM      9  C   UNL     1     -11.227  -8.256  16.912  0.00  0.00    +0.022 C 
ATOM     12  C   UNL     1     -11.042  -6.454  15.270  0.00  0.00    +0.002 C 
ATOM     13  C   UNL     1     -10.975  -6.757  16.766  0.00  0.00    +0.002 C 
ENDBRANCH   3   5
ENDBRANCH   7  17
BRANCH   6  16
ATOM     16  C   UNL     1      -5.312 -12.431  17.592  0.00  0.00    +0.026 C 
BRANCH  16  19
ATOM     19  C   UNL     1      -5.107 -12.056  19.063  0.00  0.00    -0.015 C 
ATOM     24  C   UNL     1      -5.632 -10.638  19.300  0.00  0.00    +0.007 C 
ATOM     25  C   UNL     1      -3.644 -12.145  19.497  0.00  0.00    +0.007 C 
ENDBRANCH  16  19
ENDBRANCH   6  16
BRANCH   4  26
ATOM     26  C   UNL     1      -3.069  -9.900  11.086  0.00  0.00    +0.148 C 
BRANCH  26  27
ATOM     27  C   UNL     1      -3.831  -9.944   9.795  0.00  0.00    -0.013 C 
ATOM     28  C   UNL     1      -4.113  -8.865   9.057  0.00  0.00    +0.005 C 
ENDBRANCH  26  27
ENDBRANCH   4  26
TORSDOF 6
ENDMDL
MODEL 6
REMARK VINA RESULT:      -6.4     26.459     30.296
REMARK  Name = 51138121
REMARK  8 active torsions:
REMARK  status: ('A' for Active; 'I' for Inactive)
REMARK    1  A    between atoms: N_3  and  C_5
REMARK    2  A    between atoms: N_4  and  C_26
REMARK    3  A    between atoms: C_6  and  C_16
REMARK    4  A    between atoms: C_7  and  C_17
REMARK    5  A    between atoms: C_16  and  C_19
REMARK    6  A    between atoms: C_19  and  C_24
REMARK    7  A    between atoms: C_19  and  C_25
REMARK    8  A    between atoms: C_26  and  C_27
REMARK                            x       y       z     vdW  Elec       q    Type
REMARK                         _______ _______ _______ _____ _____    ______ ____
ROOT
ATOM      2  N   UNL     1      -5.390  -9.869  14.928  0.00  0.00    -0.299 NA
ATOM      4  N   UNL     1      -8.581 -10.742  18.744  0.00  0.00    -0.343 N 
ATOM      6  C   UNL     1      -4.659 -10.730  15.869  0.00  0.00    +0.085 C 
ATOM      7  C   UNL     1      -6.656 -10.414  14.462  0.00  0.00    +0.145 C 
ATOM     10  C   UNL     1      -7.834  -9.867  15.265  0.00  0.00    +0.065 C 
ATOM     11  C   UNL     1      -5.351 -10.992  17.211  0.00  0.00    -0.021 A 
ATOM     14  C   UNL     1      -6.732 -10.768  17.480  0.00  0.00    +0.008 A 
ATOM     15  C   UNL     1      -7.839 -10.291  16.695  0.00  0.00    -0.020 A 
ATOM     18  C   UNL     1      -7.244 -11.063  18.749  0.00  0.00    +0.050 A 
ATOM     20  C   UNL     1      -8.950 -10.283  17.515  0.00  0.00    +0.090 A 
ATOM     21  C   UNL     1      -4.597 -11.576  18.260  0.00  0.00    +0.006 A 
ATOM     22  C   UNL     1      -6.473 -11.594  19.785  0.00  0.00    +0.026 A 
ATOM     23  C   UNL     1      -5.138 -11.858  19.513  0.00  0.00    +0.002 A 
ATOM     29  H   UNL     1      -5.511  -8.933  15.312  0.00  0.00    +0.123 HD
ENDROOT
BRANCH   7  17
ATOM      1  O   UNL     1      -7.764  -9.349  12.637  0.00  0.00    -0.274 OA
ATOM      3  N   UNL     1      -5.685 -10.331  12.275  0.00  0.00    -0.311 N 
ATOM     17  C   UNL     1      -6.778  -9.961  13.039  0.00  0.00    +0.231 C 
ATOM     30  H   UNL     1      -4.899 -10.786  12.730  0.00  0.00    +0.149 HD
BRANCH   3   5
ATOM      5  C   UNL     1      -5.569 -10.034  10.868  0.00  0.00    +0.073 C 
ATOM      8  C   UNL     1      -4.966 -11.199  10.095  0.00  0.00    +0.022 C 
ATOM      9  C   UNL     1      -4.578  -8.906  10.605  0.00  0.00    +0.022 C 
ATOM     12  C   UNL     1      -3.460 -11.060  10.304  0.00  0.00    +0.002 C 
ATOM     13  C   UNL     1      -3.207  -9.580  10.589  0.00  0.00    +0.002 C 
ENDBRANCH   3   5
ENDBRANCH   7  17
BRANCH   6  16
ATOM     16  C   UNL     1      -3.288 -10.051  16.035  0.00  0.00    +0.026 C 
BRANCH  16  19
ATOM     19  C   UNL     1      -2.144 -10.853  15.407  0.00  0.00    -0.015 C 
ATOM     24  C   UNL     1      -0.806 -10.245  15.836  0.00  0.00    +0.007 C 
ATOM     25  C   UNL     1      -2.225 -10.899  13.880  0.00  0.00    +0.007 C 
ENDBRANCH  16  19
ENDBRANCH   6  16
BRANCH   4  26
ATOM     26  C   UNL     1      -9.485 -10.882  19.864  0.00  0.00    +0.148 C 
BRANCH  26  27
ATOM     27  C   UNL     1     -10.747 -10.091  19.687  0.00  0.00    -0.013 C 
ATOM     28  C   UNL     1     -11.971 -10.572  19.931  0.00  0.00    +0.005 C 
ENDBRANCH  26  27
ENDBRANCH   4  26
TORSDOF 6
ENDMDL
MODEL 7
REMARK VINA RESULT:      -6.1     27.919     30.372
REMARK  Name = 51138121
REMARK  8 active torsions:
REMARK  status: ('A' for Active; 'I' for Inactive)
REMARK    1  A    between atoms: N_3  and  C_5
REMARK    2  A    between atoms: N_4  and  C_26
REMARK    3  A    between atoms: C_6  and  C_16
REMARK    4  A    between atoms: C_7  and  C_17
REMARK    5  A    between atoms: C_16  and  C_19
REMARK    6  A    between atoms: C_19  and  C_24
REMARK    7  A    between atoms: C_19  and  C_25
REMARK    8  A    between atoms: C_26  and  C_27
REMARK                            x       y       z     vdW  Elec       q    Type
REMARK                         _______ _______ _______ _____ _____    ______ ____
ROOT
ATOM      2  N   UNL     1      -5.453 -10.753  13.905  0.00  0.00    -0.299 NA
ATOM      4  N   UNL     1      -7.429  -9.071   9.572  0.00  0.00    -0.343 N 
ATOM      6  C   UNL     1      -4.320 -10.232  13.126  0.00  0.00    +0.085 C 
ATOM      7  C   UNL     1      -6.524  -9.795  14.134  0.00  0.00    +0.145 C 
ATOM     10  C   UNL     1      -7.654  -9.962  13.119  0.00  0.00    +0.065 C 
ATOM     11  C   UNL     1      -4.632  -9.826  11.681  0.00  0.00    -0.021 A 
ATOM     14  C   UNL     1      -5.936  -9.594  11.158  0.00  0.00    +0.008 A 
ATOM     15  C   UNL     1      -7.260  -9.636  11.718  0.00  0.00    -0.020 A 
ATOM     18  C   UNL     1      -6.084  -9.212   9.819  0.00  0.00    +0.050 A 
ATOM     20  C   UNL     1      -8.144  -9.318  10.706  0.00  0.00    +0.090 A 
ATOM     21  C   UNL     1      -3.551  -9.581  10.798  0.00  0.00    +0.006 A 
ATOM     22  C   UNL     1      -5.008  -9.022   8.951  0.00  0.00    +0.026 A 
ATOM     23  C   UNL     1      -3.732  -9.201   9.469  0.00  0.00    +0.002 A 
ATOM     29  H   UNL     1      -5.810 -11.615  13.495  0.00  0.00    +0.123 HD
ENDROOT
BRANCH   7  17
ATOM      1  O   UNL     1      -8.143  -9.712  15.885  0.00  0.00    -0.274 OA
ATOM      3  N   UNL     1      -6.145 -10.850  16.249  0.00  0.00    -0.311 N 
ATOM     17  C   UNL     1      -7.044 -10.107  15.503  0.00  0.00    +0.231 C 
ATOM     30  H   UNL     1      -5.287 -11.169  15.808  0.00  0.00    +0.149 HD
BRANCH   3   5
ATOM      5  C   UNL     1      -6.397 -11.261  17.608  0.00  0.00    +0.073 C 
ATOM      8  C   UNL     1      -5.327 -10.743  18.560  0.00  0.00    +0.022 C 
ATOM      9  C   UNL     1      -6.292 -12.773  17.774  0.00  0.00    +0.022 C 
ATOM     12  C   UNL     1      -4.174 -11.733  18.418  0.00  0.00    +0.002 C 
ATOM     13  C   UNL     1      -4.800 -13.048  17.953  0.00  0.00    +0.002 C 
ENDBRANCH   3   5
ENDBRANCH   7  17
BRANCH   6  16
ATOM     16  C   UNL     1      -3.250 -11.336  13.210  0.00  0.00    +0.026 C 
BRANCH  16  19
ATOM     19  C   UNL     1      -3.133 -11.948  14.610  0.00  0.00    -0.015 C 
ATOM     24  C   UNL     1      -1.953 -11.306  15.345  0.00  0.00    +0.007 C 
ATOM     25  C   UNL     1      -2.956 -13.467  14.576  0.00  0.00    +0.007 C 
ENDBRANCH  16  19
ENDBRANCH   6  16
BRANCH   4  26
ATOM     26  C   UNL     1      -8.018  -8.698   8.304  0.00  0.00    +0.148 C 
BRANCH  26  27
ATOM     27  C   UNL     1      -8.640  -7.333   8.340  0.00  0.00    -0.013 C 
ATOM     28  C   UNL     1      -7.969  -6.200   8.109  0.00  0.00    +0.005 C 
ENDBRANCH  26  27
ENDBRANCH   4  26
TORSDOF 6
ENDMDL
MODEL 8
REMARK VINA RESULT:      -5.9     21.864     24.547
REMARK  Name = 51138121
REMARK  8 active torsions:
REMARK  status: ('A' for Active; 'I' for Inactive)
REMARK    1  A    between atoms: N_3  and  C_5
REMARK    2  A    between atoms: N_4  and  C_26
REMARK    3  A    between atoms: C_6  and  C_16
REMARK    4  A    between atoms: C_7  and  C_17
REMARK    5  A    between atoms: C_16  and  C_19
REMARK    6  A    between atoms: C_19  and  C_24
REMARK    7  A    between atoms: C_19  and  C_25
REMARK    8  A    between atoms: C_26  and  C_27
REMARK                            x       y       z     vdW  Elec       q    Type
REMARK                         _______ _______ _______ _____ _____    ______ ____
ROOT
ATOM      2  N   UNL     1       6.011  -8.211  34.761  0.00  0.00    -0.299 NA
ATOM      4  N   UNL     1       6.492 -12.541  32.206  0.00  0.00    -0.343 N 
ATOM      6  C   UNL     1       6.038  -7.835  33.341  0.00  0.00    +0.085 C 
ATOM      7  C   UNL     1       4.974  -9.169  35.117  0.00  0.00    +0.145 C 
ATOM     10  C   UNL     1       5.516 -10.596  35.154  0.00  0.00    +0.065 C 
ATOM     11  C   UNL     1       6.362  -8.962  32.355  0.00  0.00    -0.021 A 
ATOM     14  C   UNL     1       6.303 -10.355  32.653  0.00  0.00    +0.008 A 
ATOM     15  C   UNL     1       5.950 -11.112  33.824  0.00  0.00    -0.020 A 
ATOM     18  C   UNL     1       6.611 -11.287  31.656  0.00  0.00    +0.050 A 
ATOM     20  C   UNL     1       6.090 -12.448  33.505  0.00  0.00    +0.090 A 
ATOM     21  C   UNL     1       6.675  -8.623  31.015  0.00  0.00    +0.006 A 
ATOM     22  C   UNL     1       6.963 -10.931  30.352  0.00  0.00    +0.026 A 
ATOM     23  C   UNL     1       6.977  -9.577  30.045  0.00  0.00    +0.002 A 
ATOM     29  H   UNL     1       6.929  -8.530  35.070  0.00  0.00    +0.123 HD
ENDROOT
BRANCH   7  17
ATOM      1  O   UNL     1       3.559  -9.293  37.034  0.00  0.00    -0.274 OA
ATOM      3  N   UNL     1       5.325  -7.776  37.033  0.00  0.00    -0.311 N 
ATOM     17  C   UNL     1       4.532  -8.775  36.493  0.00  0.00    +0.231 C 
ATOM     30  H   UNL     1       6.140  -7.463  36.515  0.00  0.00    +0.149 HD
BRANCH   3   5
ATOM      5  C   UNL     1       5.095  -7.206  38.338  0.00  0.00    +0.073 C 
ATOM      8  C   UNL     1       4.562  -5.782  38.243  0.00  0.00    +0.022 C 
ATOM      9  C   UNL     1       6.393  -7.029  39.117  0.00  0.00    +0.022 C 
ATOM     12  C   UNL     1       5.803  -4.921  38.026  0.00  0.00    +0.002 C 
ATOM     13  C   UNL     1       6.972  -5.704  38.625  0.00  0.00    +0.002 C 
ENDBRANCH   3   5
ENDBRANCH   7  17
BRANCH   6  16
ATOM     16  C   UNL     1       7.048  -6.676  33.264  0.00  0.00    +0.026 C 
BRANCH  16  19
ATOM     19  C   UNL     1       8.158  -6.781  34.315  0.00  0.00    -0.015 C 
ATOM     24  C   UNL     1       8.328  -5.425  35.006  0.00  0.00    +0.007 C 
ATOM     25  C   UNL     1       9.494  -7.228  33.719  0.00  0.00    +0.007 C 
ENDBRANCH  16  19
ENDBRANCH   6  16
BRANCH   4  26
ATOM     26  C   UNL     1       6.734 -13.790  31.517  0.00  0.00    +0.148 C 
BRANCH  26  27
ATOM     27  C   UNL     1       5.474 -14.404  30.981  0.00  0.00    -0.013 C 
ATOM     28  C   UNL     1       4.838 -13.968  29.888  0.00  0.00    +0.005 C 
ENDBRANCH  26  27
ENDBRANCH   4  26
TORSDOF 6
ENDMDL
MODEL 9
REMARK VINA RESULT:      -5.9     17.616     20.604
REMARK  Name = 51138121
REMARK  8 active torsions:
REMARK  status: ('A' for Active; 'I' for Inactive)
REMARK    1  A    between atoms: N_3  and  C_5
REMARK    2  A    between atoms: N_4  and  C_26
REMARK    3  A    between atoms: C_6  and  C_16
REMARK    4  A    between atoms: C_7  and  C_17
REMARK    5  A    between atoms: C_16  and  C_19
REMARK    6  A    between atoms: C_19  and  C_24
REMARK    7  A    between atoms: C_19  and  C_25
REMARK    8  A    between atoms: C_26  and  C_27
REMARK                            x       y       z     vdW  Elec       q    Type
REMARK                         _______ _______ _______ _____ _____    ______ ____
ROOT
ATOM      2  N   UNL     1      11.030   5.700   3.774  0.00  0.00    -0.299 NA
ATOM      4  N   UNL     1       8.361   9.042   1.088  0.00  0.00    -0.343 N 
ATOM      6  C   UNL     1       9.986   6.198   4.681  0.00  0.00    +0.085 C 
ATOM      7  C   UNL     1      10.532   5.124   2.533  0.00  0.00    +0.145 C 
ATOM     10  C   UNL     1      10.572   6.135   1.389  0.00  0.00    +0.065 C 
ATOM     11  C   UNL     1       9.148   7.369   4.158  0.00  0.00    -0.021 A 
ATOM     14  C   UNL     1       9.065   7.774   2.795  0.00  0.00    +0.008 A 
ATOM     15  C   UNL     1       9.646   7.290   1.571  0.00  0.00    -0.020 A 
ATOM     18  C   UNL     1       8.248   8.855   2.445  0.00  0.00    +0.050 A 
ATOM     20  C   UNL     1       9.194   8.105   0.552  0.00  0.00    +0.090 A 
ATOM     21  C   UNL     1       8.322   8.072   5.071  0.00  0.00    +0.006 A 
ATOM     22  C   UNL     1       7.477   9.566   3.367  0.00  0.00    +0.026 A 
ATOM     23  C   UNL     1       7.518   9.145   4.690  0.00  0.00    +0.002 A 
ATOM     29  H   UNL     1      11.728   6.420   3.593  0.00  0.00    +0.123 HD
ENDROOT
BRANCH   7  17
ATOM      1  O   UNL     1      11.432   2.936   2.846  0.00  0.00    -0.274 OA
ATOM      3  N   UNL     1      12.344   4.305   1.199  0.00  0.00    -0.311 N 
ATOM     17  C   UNL     1      11.466   3.995   2.223  0.00  0.00    +0.231 C 
ATOM     30  H   UNL     1      12.241   5.194   0.717  0.00  0.00    +0.149 HD
BRANCH   3   5
ATOM      5  C   UNL     1      13.358   3.395   0.726  0.00  0.00    +0.073 C 
ATOM      8  C   UNL     1      14.702   3.656   1.393  0.00  0.00    +0.022 C 
ATOM      9  C   UNL     1      13.668   3.608  -0.752  0.00  0.00    +0.022 C 
ATOM     12  C   UNL     1      15.303   4.818   0.606  0.00  0.00    +0.002 C 
ATOM     13  C   UNL     1      14.669   4.761  -0.784  0.00  0.00    +0.002 C 
ENDBRANCH   3   5
ENDBRANCH   7  17
BRANCH   6  16
ATOM     16  C   UNL     1      10.734   6.542   5.983  0.00  0.00    +0.026 C 
BRANCH  16  19
ATOM     19  C   UNL     1      10.304   5.671   7.167  0.00  0.00    -0.015 C 
ATOM     24  C   UNL     1       9.629   4.401   6.640  0.00  0.00    +0.007 C 
ATOM     25  C   UNL     1       9.358   6.399   8.123  0.00  0.00    +0.007 C 
ENDBRANCH  16  19
ENDBRANCH   6  16
BRANCH   4  26
ATOM     26  C   UNL     1       7.689  10.066   0.320  0.00  0.00    +0.148 C 
BRANCH  26  27
ATOM     27  C   UNL     1       6.422   9.571  -0.314  0.00  0.00    -0.013 C 
ATOM     28  C   UNL     1       5.243   9.520   0.316  0.00  0.00    +0.005 C 
ENDBRANCH  26  27
ENDBRANCH   4  26
TORSDOF 6
ENDMDL
MODEL 10
REMARK VINA RESULT:      -5.8     17.101     19.609
REMARK  Name = 51138121
REMARK  8 active torsions:
REMARK  status: ('A' for Active; 'I' for Inactive)
REMARK    1  A    between atoms: N_3  and  C_5
REMARK    2  A    between atoms: N_4  and  C_26
REMARK    3  A    between atoms: C_6  and  C_16
REMARK    4  A    between atoms: C_7  and  C_17
REMARK    5  A    between atoms: C_16  and  C_19
REMARK    6  A    between atoms: C_19  and  C_24
REMARK    7  A    between atoms: C_19  and  C_25
REMARK    8  A    between atoms: C_26  and  C_27
REMARK                            x       y       z     vdW  Elec       q    Type
REMARK                         _______ _______ _______ _____ _____    ______ ____
ROOT
ATOM      2  N   UNL     1      11.046   6.236   2.099  0.00  0.00    -0.299 NA
ATOM      4  N   UNL     1       9.600   6.250   6.938  0.00  0.00    -0.343 N 
ATOM      6  C   UNL     1      11.347   7.585   2.600  0.00  0.00    +0.085 C 
ATOM      7  C   UNL     1      11.665   5.155   2.852  0.00  0.00    +0.145 C 
ATOM     10  C   UNL     1      10.701   4.561   3.878  0.00  0.00    +0.065 C 
ATOM     11  C   UNL     1      10.830   7.906   4.006  0.00  0.00    -0.021 A 
ATOM     14  C   UNL     1      10.403   6.941   4.964  0.00  0.00    +0.008 A 
ATOM     15  C   UNL     1      10.324   5.505   4.970  0.00  0.00    -0.020 A 
ATOM     18  C   UNL     1       9.965   7.367   6.223  0.00  0.00    +0.050 A 
ATOM     20  C   UNL     1       9.817   5.126   6.197  0.00  0.00    +0.090 A 
ATOM     21  C   UNL     1      10.838   9.255   4.440  0.00  0.00    +0.006 A 
ATOM     22  C   UNL     1       9.936   8.706   6.616  0.00  0.00    +0.026 A 
ATOM     23  C   UNL     1      10.395   9.646   5.703  0.00  0.00    +0.002 A 
ATOM     29  H   UNL     1      10.041   6.096   2.012  0.00  0.00    +0.123 HD
ENDROOT
BRANCH   7  17
ATOM      1  O   UNL     1      12.282   2.958   2.156  0.00  0.00    -0.274 OA
ATOM      3  N   UNL     1      11.983   4.610   0.543  0.00  0.00    -0.311 N 
ATOM     17  C   UNL     1      12.004   4.111   1.834  0.00  0.00    +0.231 C 
ATOM     30  H   UNL     1      11.682   5.568   0.392  0.00  0.00    +0.149 HD
BRANCH   3   5
ATOM      5  C   UNL     1      12.295   3.811  -0.617  0.00  0.00    +0.073 C 
ATOM      8  C   UNL     1      13.336   4.486  -1.500  0.00  0.00    +0.022 C 
ATOM      9  C   UNL     1      11.098   3.674  -1.552  0.00  0.00    +0.022 C 
ATOM     12  C   UNL     1      12.542   5.486  -2.336  0.00  0.00    +0.002 C 
ATOM     13  C   UNL     1      11.115   4.942  -2.403  0.00  0.00    +0.002 C 
ENDBRANCH   3   5
ENDBRANCH   7  17
BRANCH   6  16
ATOM     16  C   UNL     1      10.776   8.534   1.531  0.00  0.00    +0.026 C 
BRANCH  16  19
ATOM     19  C   UNL     1       9.402   8.095   1.014  0.00  0.00    -0.015 C 
ATOM     24  C   UNL     1       9.418   8.088  -0.517  0.00  0.00    +0.007 C 
ATOM     25  C   UNL     1       8.269   8.991   1.515  0.00  0.00    +0.007 C 
ENDBRANCH  16  19
ENDBRANCH   6  16
BRANCH   4  26
ATOM     26  C   UNL     1       9.079   6.246   8.287  0.00  0.00    +0.148 C 
BRANCH  26  27
ATOM     27  C   UNL     1       9.693   5.172   9.137  0.00  0.00    -0.013 C 
ATOM     28  C   UNL     1       9.050   4.549  10.131  0.00  0.00    +0.005 C 
ENDBRANCH  26  27
ENDBRANCH   4  26
TORSDOF 6
ENDMDL
