MODEL 1
REMARK VINA RESULT:      -7.6      0.000      0.000
REMARK  Name = 7155460
REMARK  5 active torsions:
REMARK  status: ('A' for Active; 'I' for Inactive)
REMARK    1  A    between atoms: O_3  and  C_28
REMARK    2  A    between atoms: N_4  and  C_13
REMARK    3  A    between atoms: C_13  and  C_18
REMARK    4  A    between atoms: C_14  and  C_19
REMARK    5  A    between atoms: C_23  and  C_28
REMARK                            x       y       z     vdW  Elec       q    Type
REMARK                         _______ _______ _______ _____ _____    ______ ____
ROOT
ATOM      1  O   UNL     1      11.085   8.834  17.074  0.00  0.00    -0.268 OA
ATOM      4  N   UNL     1      12.170   9.940  21.804  0.00  0.00    -0.294 NA
ATOM      5  N   UNL     1      12.158   8.294  19.085  0.00  0.00    -0.311 N 
ATOM      6  C   UNL     1      10.835   7.900  21.248  0.00  0.00    +0.024 C 
ATOM      7  C   UNL     1      13.277   7.761  21.270  0.00  0.00    +0.051 C 
ATOM      8  C   UNL     1      12.001   7.000  21.619  0.00  0.00    +0.017 C 
ATOM      9  C   UNL     1      10.910   9.225  22.033  0.00  0.00    +0.090 C 
ATOM     10  C   UNL     1      13.328   9.078  22.079  0.00  0.00    +0.094 C 
ATOM     11  C   UNL     1      10.851   8.117  19.734  0.00  0.00    +0.130 C 
ATOM     12  C   UNL     1      13.367   8.042  19.764  0.00  0.00    +0.034 A 
ATOM     14  C   UNL     1      14.545   8.073  19.084  0.00  0.00    +0.002 A 
ATOM     15  C   UNL     1      12.112   8.618  17.717  0.00  0.00    +0.252 A 
ATOM     16  C   UNL     1      14.534   8.411  17.672  0.00  0.00    +0.015 A 
ATOM     17  C   UNL     1      13.410   8.683  17.010  0.00  0.00    +0.071 A 
ENDROOT
BRANCH  14  19
ATOM     19  C   UNL     1      15.787   7.797  19.750  0.00  0.00    -0.016 A 
ATOM     21  C   UNL     1      16.357   6.531  19.655  0.00  0.00    +0.008 A 
ATOM     22  C   UNL     1      16.415   8.798  20.487  0.00  0.00    +0.008 A 
ATOM     25  C   UNL     1      17.564   6.263  20.301  0.00  0.00    +0.001 A 
ATOM     26  C   UNL     1      17.621   8.530  21.133  0.00  0.00    +0.001 A 
ATOM     27  C   UNL     1      18.195   7.262  21.040  0.00  0.00    +0.000 A 
ENDBRANCH  14  19
BRANCH   4  13
ATOM     13  C   UNL     1      12.229  11.165  22.596  0.00  0.00    +0.158 C 
BRANCH  13  18
ATOM      2  O   UNL     1      10.708  12.977  22.176  0.00  0.00    -0.461 OA
ATOM     18  C   UNL     1      11.844  12.376  21.787  0.00  0.00    +0.119 A 
ATOM     20  C   UNL     1      12.429  12.981  20.730  0.00  0.00    +0.046 A 
ATOM     23  C   UNL     1      10.550  14.026  21.326  0.00  0.00    +0.131 A 
ATOM     24  C   UNL     1      11.583  14.072  20.419  0.00  0.00    +0.047 A 
BRANCH  23  28
ATOM     28  C   UNL     1       9.361  14.863  21.540  0.00  0.00    +0.230 C 
BRANCH  28   3
ATOM      3  O   UNL     1       8.657  14.354  22.673  0.00  0.00    -0.387 OA
ATOM     29  H   UNL     1       7.763  14.108  22.376  0.00  0.00    +0.210 HD
ENDBRANCH  28   3
ENDBRANCH  23  28
ENDBRANCH  13  18
ENDBRANCH   4  13
TORSDOF 5
ENDMDL
MODEL 2
REMARK VINA RESULT:      -7.1      2.052      2.759
REMARK  Name = 7155460
REMARK  5 active torsions:
REMARK  status: ('A' for Active; 'I' for Inactive)
REMARK    1  A    between atoms: O_3  and  C_28
REMARK    2  A    between atoms: N_4  and  C_13
REMARK    3  A    between atoms: C_13  and  C_18
REMARK    4  A    between atoms: C_14  and  C_19
REMARK    5  A    between atoms: C_23  and  C_28
REMARK                            x       y       z     vdW  Elec       q    Type
REMARK                         _______ _______ _______ _____ _____    ______ ____
ROOT
ATOM      1  O   UNL     1      12.256   9.228  16.602  0.00  0.00    -0.268 OA
ATOM      4  N   UNL     1      11.912   8.477  21.511  0.00  0.00    -0.294 NA
ATOM      5  N   UNL     1      13.272   8.702  18.646  0.00  0.00    -0.311 N 
ATOM      6  C   UNL     1      12.595   6.619  19.983  0.00  0.00    +0.024 C 
ATOM      7  C   UNL     1      14.304   8.132  20.864  0.00  0.00    +0.051 C 
ATOM      8  C   UNL     1      14.021   6.676  20.504  0.00  0.00    +0.017 C 
ATOM      9  C   UNL     1      11.610   7.113  21.062  0.00  0.00    +0.090 C 
ATOM     10  C   UNL     1      13.308   8.595  21.953  0.00  0.00    +0.094 C 
ATOM     11  C   UNL     1      12.514   7.443  18.697  0.00  0.00    +0.130 C 
ATOM     12  C   UNL     1      14.224   9.039  19.630  0.00  0.00    +0.034 A 
ATOM     14  C   UNL     1      15.006  10.139  19.465  0.00  0.00    +0.002 A 
ATOM     15  C   UNL     1      13.063   9.484  17.496  0.00  0.00    +0.252 A 
ATOM     16  C   UNL     1      14.813  10.972  18.292  0.00  0.00    +0.015 A 
ATOM     17  C   UNL     1      13.901  10.696  17.361  0.00  0.00    +0.071 A 
ENDROOT
BRANCH  14  19
ATOM     19  C   UNL     1      15.999  10.489  20.443  0.00  0.00    -0.016 A 
ATOM     21  C   UNL     1      17.161   9.731  20.552  0.00  0.00    +0.008 A 
ATOM     22  C   UNL     1      15.794  11.587  21.275  0.00  0.00    +0.008 A 
ATOM     25  C   UNL     1      18.125  10.071  21.501  0.00  0.00    +0.001 A 
ATOM     26  C   UNL     1      16.757  11.927  22.223  0.00  0.00    +0.001 A 
ATOM     27  C   UNL     1      17.923  11.169  22.336  0.00  0.00    +0.000 A 
ENDBRANCH  14  19
BRANCH   4  13
ATOM     13  C   UNL     1      10.991   8.898  22.563  0.00  0.00    +0.158 C 
BRANCH  13  18
ATOM      2  O   UNL     1      10.834  10.787  24.039  0.00  0.00    -0.461 OA
ATOM     18  C   UNL     1      11.019  10.389  22.770  0.00  0.00    +0.119 A 
ATOM     20  C   UNL     1      11.198  11.419  21.913  0.00  0.00    +0.046 A 
ATOM     23  C   UNL     1      10.895  12.144  24.001  0.00  0.00    +0.131 A 
ATOM     24  C   UNL     1      11.118  12.581  22.716  0.00  0.00    +0.047 A 
BRANCH  23  28
ATOM     28  C   UNL     1      10.721  12.840  25.284  0.00  0.00    +0.230 C 
BRANCH  28   3
ATOM      3  O   UNL     1      11.886  12.609  26.077  0.00  0.00    -0.387 OA
ATOM     29  H   UNL     1      12.157  13.464  26.454  0.00  0.00    +0.210 HD
ENDBRANCH  28   3
ENDBRANCH  23  28
ENDBRANCH  13  18
ENDBRANCH   4  13
TORSDOF 5
ENDMDL
MODEL 3
REMARK VINA RESULT:      -7.1      2.699      7.067
REMARK  Name = 7155460
REMARK  5 active torsions:
REMARK  status: ('A' for Active; 'I' for Inactive)
REMARK    1  A    between atoms: O_3  and  C_28
REMARK    2  A    between atoms: N_4  and  C_13
REMARK    3  A    between atoms: C_13  and  C_18
REMARK    4  A    between atoms: C_14  and  C_19
REMARK    5  A    between atoms: C_23  and  C_28
REMARK                            x       y       z     vdW  Elec       q    Type
REMARK                         _______ _______ _______ _____ _____    ______ ____
ROOT
ATOM      1  O   UNL     1      11.687   6.457  19.905  0.00  0.00    -0.268 OA
ATOM      4  N   UNL     1      15.174   9.865  20.905  0.00  0.00    -0.294 NA
ATOM      5  N   UNL     1      12.287   8.689  20.283  0.00  0.00    -0.311 N 
ATOM      6  C   UNL     1      13.927   9.918  18.738  0.00  0.00    +0.024 C 
ATOM      7  C   UNL     1      12.991  11.067  20.685  0.00  0.00    +0.051 C 
ATOM      8  C   UNL     1      13.168  11.161  19.172  0.00  0.00    +0.017 C 
ATOM      9  C   UNL     1      15.297   9.853  19.443  0.00  0.00    +0.090 C 
ATOM     10  C   UNL     1      14.380  11.014  21.363  0.00  0.00    +0.094 C 
ATOM     11  C   UNL     1      13.060   8.692  19.033  0.00  0.00    +0.130 C 
ATOM     12  C   UNL     1      12.146   9.847  21.075  0.00  0.00    +0.034 A 
ATOM     14  C   UNL     1      11.302   9.839  22.141  0.00  0.00    +0.002 A 
ATOM     15  C   UNL     1      11.610   7.491  20.569  0.00  0.00    +0.252 A 
ATOM     16  C   UNL     1      10.592   8.616  22.469  0.00  0.00    +0.015 A 
ATOM     17  C   UNL     1      10.728   7.498  21.757  0.00  0.00    +0.071 A 
ENDROOT
BRANCH  14  19
ATOM     19  C   UNL     1      11.124  11.015  22.948  0.00  0.00    -0.016 A 
ATOM     21  C   UNL     1      10.918  12.248  22.339  0.00  0.00    +0.008 A 
ATOM     22  C   UNL     1      11.159  10.912  24.337  0.00  0.00    +0.008 A 
ATOM     25  C   UNL     1      10.745  13.389  23.123  0.00  0.00    +0.001 A 
ATOM     26  C   UNL     1      10.986  12.052  25.120  0.00  0.00    +0.001 A 
ATOM     27  C   UNL     1      10.779  13.291  24.513  0.00  0.00    +0.000 A 
ENDBRANCH  14  19
BRANCH   4  13
ATOM     13  C   UNL     1      16.489   9.850  21.541  0.00  0.00    +0.158 C 
BRANCH  13  18
ATOM      2  O   UNL     1      16.638   7.763  20.358  0.00  0.00    -0.461 OA
ATOM     18  C   UNL     1      17.264   8.606  21.195  0.00  0.00    +0.119 A 
ATOM     20  C   UNL     1      18.487   8.168  21.571  0.00  0.00    +0.046 A 
ATOM     23  C   UNL     1      17.499   6.727  20.184  0.00  0.00    +0.131 A 
ATOM     24  C   UNL     1      18.651   6.929  20.908  0.00  0.00    +0.047 A 
BRANCH  23  28
ATOM     28  C   UNL     1      17.047   5.648  19.294  0.00  0.00    +0.230 C 
BRANCH  28   3
ATOM      3  O   UNL     1      18.043   5.453  18.289  0.00  0.00    -0.387 OA
ATOM     29  H   UNL     1      17.757   4.706  17.735  0.00  0.00    +0.210 HD
ENDBRANCH  28   3
ENDBRANCH  23  28
ENDBRANCH  13  18
ENDBRANCH   4  13
TORSDOF 5
ENDMDL
MODEL 4
REMARK VINA RESULT:      -6.9     26.163     29.213
REMARK  Name = 7155460
REMARK  5 active torsions:
REMARK  status: ('A' for Active; 'I' for Inactive)
REMARK    1  A    between atoms: O_3  and  C_28
REMARK    2  A    between atoms: N_4  and  C_13
REMARK    3  A    between atoms: C_13  and  C_18
REMARK    4  A    between atoms: C_14  and  C_19
REMARK    5  A    between atoms: C_23  and  C_28
REMARK                            x       y       z     vdW  Elec       q    Type
REMARK                         _______ _______ _______ _____ _____    ______ ____
ROOT
ATOM      1  O   UNL     1      -4.005 -12.826  19.026  0.00  0.00    -0.268 OA
ATOM      4  N   UNL     1      -5.851 -11.574  14.576  0.00  0.00    -0.294 NA
ATOM      5  N   UNL     1      -5.849 -12.465  17.628  0.00  0.00    -0.311 N 
ATOM      6  C   UNL     1      -6.221 -13.865  15.509  0.00  0.00    +0.024 C 
ATOM      7  C   UNL     1      -7.788 -12.075  16.079  0.00  0.00    +0.051 C 
ATOM      8  C   UNL     1      -7.690 -13.562  15.749  0.00  0.00    +0.017 C 
ATOM      9  C   UNL     1      -5.682 -13.013  14.342  0.00  0.00    +0.090 C 
ATOM     10  C   UNL     1      -7.249 -11.248  14.888  0.00  0.00    +0.094 C 
ATOM     11  C   UNL     1      -5.456 -13.623  16.811  0.00  0.00    +0.130 C 
ATOM     12  C   UNL     1      -7.027 -11.736  17.367  0.00  0.00    +0.034 A 
ATOM     14  C   UNL     1      -7.430 -10.768  18.234  0.00  0.00    +0.002 A 
ATOM     15  C   UNL     1      -5.034 -12.212  18.745  0.00  0.00    +0.252 A 
ATOM     16  C   UNL     1      -6.608 -10.477  19.395  0.00  0.00    +0.015 A 
ATOM     17  C   UNL     1      -5.475 -11.129  19.651  0.00  0.00    +0.071 A 
ENDROOT
BRANCH  14  19
ATOM     19  C   UNL     1      -8.639 -10.028  18.002  0.00  0.00    -0.016 A 
ATOM     21  C   UNL     1      -8.596  -8.844  17.274  0.00  0.00    +0.008 A 
ATOM     22  C   UNL     1      -9.848 -10.503  18.505  0.00  0.00    +0.008 A 
ATOM     25  C   UNL     1      -9.771  -8.126  17.048  0.00  0.00    +0.001 A 
ATOM     26  C   UNL     1     -11.022  -9.786  18.279  0.00  0.00    +0.001 A 
ATOM     27  C   UNL     1     -10.983  -8.597  17.550  0.00  0.00    +0.000 A 
ENDBRANCH  14  19
BRANCH   4  13
ATOM     13  C   UNL     1      -5.373 -10.798  13.435  0.00  0.00    +0.158 C 
BRANCH  13  18
ATOM      2  O   UNL     1      -3.331 -10.528  14.671  0.00  0.00    -0.461 OA
ATOM     18  C   UNL     1      -3.876 -10.644  13.449  0.00  0.00    +0.119 A 
ATOM     20  C   UNL     1      -2.961 -10.597  12.456  0.00  0.00    +0.046 A 
ATOM     23  C   UNL     1      -1.995 -10.400  14.457  0.00  0.00    +0.131 A 
ATOM     24  C   UNL     1      -1.717 -10.438  13.111  0.00  0.00    +0.047 A 
BRANCH  23  28
ATOM     28  C   UNL     1      -1.155 -10.256  15.654  0.00  0.00    +0.230 C 
BRANCH  28   3
ATOM      3  O   UNL     1      -1.644 -11.155  16.651  0.00  0.00    -0.387 OA
ATOM     29  H   UNL     1      -0.980 -11.194  17.361  0.00  0.00    +0.210 HD
ENDBRANCH  28   3
ENDBRANCH  23  28
ENDBRANCH  13  18
ENDBRANCH   4  13
TORSDOF 5
ENDMDL
MODEL 5
REMARK VINA RESULT:      -6.7     14.078     17.173
REMARK  Name = 7155460
REMARK  5 active torsions:
REMARK  status: ('A' for Active; 'I' for Inactive)
REMARK    1  A    between atoms: O_3  and  C_28
REMARK    2  A    between atoms: N_4  and  C_13
REMARK    3  A    between atoms: C_13  and  C_18
REMARK    4  A    between atoms: C_14  and  C_19
REMARK    5  A    between atoms: C_23  and  C_28
REMARK                            x       y       z     vdW  Elec       q    Type
REMARK                         _______ _______ _______ _____ _____    ______ ____
ROOT
ATOM      1  O   UNL     1       8.686  10.458   3.171  0.00  0.00    -0.268 OA
ATOM      4  N   UNL     1      12.991   8.332   4.484  0.00  0.00    -0.294 NA
ATOM      5  N   UNL     1      10.026   9.437   4.798  0.00  0.00    -0.311 N 
ATOM      6  C   UNL     1      12.253  10.472   5.546  0.00  0.00    +0.024 C 
ATOM      7  C   UNL     1      11.514   8.346   6.504  0.00  0.00    +0.051 C 
ATOM      8  C   UNL     1      11.970   9.759   6.857  0.00  0.00    +0.017 C 
ATOM      9  C   UNL     1      13.348   9.728   4.756  0.00  0.00    +0.090 C 
ATOM     10  C   UNL     1      12.636   7.624   5.722  0.00  0.00    +0.094 C 
ATOM     11  C   UNL     1      10.943  10.586   4.762  0.00  0.00    +0.130 C 
ATOM     12  C   UNL     1      10.210   8.365   5.695  0.00  0.00    +0.034 A 
ATOM     14  C   UNL     1       9.259   7.398   5.798  0.00  0.00    +0.002 A 
ATOM     15  C   UNL     1       8.901   9.538   3.961  0.00  0.00    +0.252 A 
ATOM     16  C   UNL     1       8.087   7.469   4.944  0.00  0.00    +0.015 A 
ATOM     17  C   UNL     1       7.901   8.453   4.066  0.00  0.00    +0.071 A 
ENDROOT
BRANCH  14  19
ATOM     19  C   UNL     1       9.413   6.308   6.722  0.00  0.00    -0.016 A 
ATOM     21  C   UNL     1       9.777   5.050   6.254  0.00  0.00    +0.008 A 
ATOM     22  C   UNL     1       9.199   6.520   8.082  0.00  0.00    +0.008 A 
ATOM     25  C   UNL     1       9.928   3.993   7.152  0.00  0.00    +0.001 A 
ATOM     26  C   UNL     1       9.349   5.464   8.979  0.00  0.00    +0.001 A 
ATOM     27  C   UNL     1       9.714   4.200   8.514  0.00  0.00    +0.000 A 
ENDBRANCH  14  19
BRANCH   4  13
ATOM     13  C   UNL     1      14.067   7.643   3.777  0.00  0.00    +0.158 C 
BRANCH  13  18
ATOM      2  O   UNL     1      14.416   5.603   2.557  0.00  0.00    -0.461 OA
ATOM     18  C   UNL     1      13.540   6.576   2.855  0.00  0.00    +0.119 A 
ATOM     20  C   UNL     1      12.338   6.406   2.261  0.00  0.00    +0.046 A 
ATOM     23  C   UNL     1      13.746   4.760   1.728  0.00  0.00    +0.131 A 
ATOM     24  C   UNL     1      12.464   5.210   1.516  0.00  0.00    +0.047 A 
BRANCH  23  28
ATOM     28  C   UNL     1      14.494   3.590   1.248  0.00  0.00    +0.230 C 
BRANCH  28   3
ATOM      3  O   UNL     1      15.424   3.209   2.263  0.00  0.00    -0.387 OA
ATOM     29  H   UNL     1      16.270   3.008   1.825  0.00  0.00    +0.210 HD
ENDBRANCH  28   3
ENDBRANCH  23  28
ENDBRANCH  13  18
ENDBRANCH   4  13
TORSDOF 5
ENDMDL
MODEL 6
REMARK VINA RESULT:      -6.4     13.941     16.828
REMARK  Name = 7155460
REMARK  5 active torsions:
REMARK  status: ('A' for Active; 'I' for Inactive)
REMARK    1  A    between atoms: O_3  and  C_28
REMARK    2  A    between atoms: N_4  and  C_13
REMARK    3  A    between atoms: C_13  and  C_18
REMARK    4  A    between atoms: C_14  and  C_19
REMARK    5  A    between atoms: C_23  and  C_28
REMARK                            x       y       z     vdW  Elec       q    Type
REMARK                         _______ _______ _______ _____ _____    ______ ____
ROOT
ATOM      1  O   UNL     1       7.253   9.082   4.181  0.00  0.00    -0.268 OA
ATOM      4  N   UNL     1      11.374   7.802   6.663  0.00  0.00    -0.294 NA
ATOM      5  N   UNL     1       8.843   7.465   4.769  0.00  0.00    -0.311 N 
ATOM      6  C   UNL     1       9.178   6.738   7.208  0.00  0.00    +0.024 C 
ATOM      7  C   UNL     1      10.570   5.770   5.444  0.00  0.00    +0.051 C 
ATOM      8  C   UNL     1       9.630   5.423   6.594  0.00  0.00    +0.017 C 
ATOM      9  C   UNL     1      10.394   7.535   7.721  0.00  0.00    +0.090 C 
ATOM     10  C   UNL     1      11.782   6.561   5.991  0.00  0.00    +0.094 C 
ATOM     11  C   UNL     1       8.372   7.510   6.161  0.00  0.00    +0.130 C 
ATOM     12  C   UNL     1       9.847   6.568   4.351  0.00  0.00    +0.034 A 
ATOM     14  C   UNL     1      10.147   6.457   3.029  0.00  0.00    +0.002 A 
ATOM     15  C   UNL     1       8.146   8.293   3.872  0.00  0.00    +0.252 A 
ATOM     16  C   UNL     1       9.450   7.301   2.075  0.00  0.00    +0.015 A 
ATOM     17  C   UNL     1       8.518   8.179   2.444  0.00  0.00    +0.071 A 
ENDROOT
BRANCH  14  19
ATOM     19  C   UNL     1      11.150   5.533   2.577  0.00  0.00    -0.016 A 
ATOM     21  C   UNL     1      10.847   4.178   2.475  0.00  0.00    +0.008 A 
ATOM     22  C   UNL     1      12.418   5.998   2.242  0.00  0.00    +0.008 A 
ATOM     25  C   UNL     1      11.821   3.282   2.036  0.00  0.00    +0.001 A 
ATOM     26  C   UNL     1      13.392   5.102   1.803  0.00  0.00    +0.001 A 
ATOM     27  C   UNL     1      13.093   3.743   1.700  0.00  0.00    +0.000 A 
ENDBRANCH  14  19
BRANCH   4  13
ATOM     13  C   UNL     1      12.532   8.518   7.191  0.00  0.00    +0.158 C 
BRANCH  13  18
ATOM      2  O   UNL     1      14.694   8.402   6.148  0.00  0.00    -0.461 OA
ATOM     18  C   UNL     1      13.470   8.952   6.096  0.00  0.00    +0.119 A 
ATOM     20  C   UNL     1      13.316   9.802   5.056  0.00  0.00    +0.046 A 
ATOM     23  C   UNL     1      15.366   8.922   5.088  0.00  0.00    +0.131 A 
ATOM     24  C   UNL     1      14.561   9.788   4.385  0.00  0.00    +0.047 A 
BRANCH  23  28
ATOM     28  C   UNL     1      16.754   8.473   4.914  0.00  0.00    +0.230 C 
BRANCH  28   3
ATOM      3  O   UNL     1      16.755   7.376   3.999  0.00  0.00    -0.387 OA
ATOM     29  H   UNL     1      16.899   6.564   4.516  0.00  0.00    +0.210 HD
ENDBRANCH  28   3
ENDBRANCH  23  28
ENDBRANCH  13  18
ENDBRANCH   4  13
TORSDOF 5
ENDMDL
MODEL 7
REMARK VINA RESULT:      -6.4     26.388     28.721
REMARK  Name = 7155460
REMARK  5 active torsions:
REMARK  status: ('A' for Active; 'I' for Inactive)
REMARK    1  A    between atoms: O_3  and  C_28
REMARK    2  A    between atoms: N_4  and  C_13
REMARK    3  A    between atoms: C_13  and  C_18
REMARK    4  A    between atoms: C_14  and  C_19
REMARK    5  A    between atoms: C_23  and  C_28
REMARK                            x       y       z     vdW  Elec       q    Type
REMARK                         _______ _______ _______ _____ _____    ______ ____
ROOT
ATOM      1  O   UNL     1      -0.915 -12.373  13.656  0.00  0.00    -0.268 OA
ATOM      4  N   UNL     1      -5.863 -12.529  13.135  0.00  0.00    -0.294 NA
ATOM      5  N   UNL     1      -3.034 -12.789  14.563  0.00  0.00    -0.311 N 
ATOM      6  C   UNL     1      -4.567 -14.614  13.609  0.00  0.00    +0.024 C 
ATOM      7  C   UNL     1      -5.332 -13.231  15.477  0.00  0.00    +0.051 C 
ATOM      8  C   UNL     1      -5.122 -14.673  15.022  0.00  0.00    +0.017 C 
ATOM      9  C   UNL     1      -5.555 -13.887  12.675  0.00  0.00    +0.090 C 
ATOM     10  C   UNL     1      -6.333 -12.533  14.527  0.00  0.00    +0.094 C 
ATOM     11  C   UNL     1      -3.197 -13.934  13.654  0.00  0.00    +0.130 C 
ATOM     12  C   UNL     1      -4.005 -12.463  15.531  0.00  0.00    +0.034 A 
ATOM     14  C   UNL     1      -3.747 -11.491  16.447  0.00  0.00    +0.002 A 
ATOM     15  C   UNL     1      -1.801 -12.120  14.472  0.00  0.00    +0.252 A 
ATOM     16  C   UNL     1      -2.486 -10.776  16.379  0.00  0.00    +0.015 A 
ATOM     17  C   UNL     1      -1.562 -11.041  15.456  0.00  0.00    +0.071 A 
ENDROOT
BRANCH  14  19
ATOM     19  C   UNL     1      -4.712 -11.158  17.458  0.00  0.00    -0.016 A 
ATOM     21  C   UNL     1      -4.627 -11.745  18.717  0.00  0.00    +0.008 A 
ATOM     22  C   UNL     1      -5.726 -10.247  17.173  0.00  0.00    +0.008 A 
ATOM     25  C   UNL     1      -5.563 -11.421  19.698  0.00  0.00    +0.001 A 
ATOM     26  C   UNL     1      -6.662  -9.923  18.154  0.00  0.00    +0.001 A 
ATOM     27  C   UNL     1      -6.581 -10.510  19.417  0.00  0.00    +0.000 A 
ENDBRANCH  14  19
BRANCH   4  13
ATOM     13  C   UNL     1      -6.835 -11.886  12.255  0.00  0.00    +0.158 C 
BRANCH  13  18
ATOM      2  O   UNL     1      -5.313 -10.542  10.968  0.00  0.00    -0.461 OA
ATOM     18  C   UNL     1      -6.368 -10.528  11.800  0.00  0.00    +0.119 A 
ATOM     20  C   UNL     1      -6.811  -9.281  12.072  0.00  0.00    +0.046 A 
ATOM     23  C   UNL     1      -5.062  -9.237  10.688  0.00  0.00    +0.131 A 
ATOM     24  C   UNL     1      -5.956  -8.422  11.342  0.00  0.00    +0.047 A 
BRANCH  23  28
ATOM     28  C   UNL     1      -3.935  -8.972   9.782  0.00  0.00    +0.230 C 
BRANCH  28   3
ATOM      3  O   UNL     1      -4.458  -8.797   8.464  0.00  0.00    -0.387 OA
ATOM     29  H   UNL     1      -3.806  -9.163   7.840  0.00  0.00    +0.210 HD
ENDBRANCH  28   3
ENDBRANCH  23  28
ENDBRANCH  13  18
ENDBRANCH   4  13
TORSDOF 5
ENDMDL
MODEL 8
REMARK VINA RESULT:      -6.3     27.049     28.950
REMARK  Name = 7155460
REMARK  5 active torsions:
REMARK  status: ('A' for Active; 'I' for Inactive)
REMARK    1  A    between atoms: O_3  and  C_28
REMARK    2  A    between atoms: N_4  and  C_13
REMARK    3  A    between atoms: C_13  and  C_18
REMARK    4  A    between atoms: C_14  and  C_19
REMARK    5  A    between atoms: C_23  and  C_28
REMARK                            x       y       z     vdW  Elec       q    Type
REMARK                         _______ _______ _______ _____ _____    ______ ____
ROOT
ATOM      1  O   UNL     1      -5.718 -15.367  16.714  0.00  0.00    -0.268 OA
ATOM      4  N   UNL     1      -6.246 -10.420  16.880  0.00  0.00    -0.294 NA
ATOM      5  N   UNL     1      -4.850 -13.224  16.337  0.00  0.00    -0.311 N 
ATOM      6  C   UNL     1      -4.501 -11.561  18.261  0.00  0.00    +0.024 C 
ATOM      7  C   UNL     1      -3.967 -10.902  15.966  0.00  0.00    +0.051 C 
ATOM      8  C   UNL     1      -3.396 -11.005  17.377  0.00  0.00    +0.017 C 
ATOM      9  C   UNL     1      -5.728 -10.627  18.237  0.00  0.00    +0.090 C 
ATOM     10  C   UNL     1      -5.189  -9.953  15.973  0.00  0.00    +0.094 C 
ATOM     11  C   UNL     1      -4.835 -12.977  17.787  0.00  0.00    +0.130 C 
ATOM     12  C   UNL     1      -4.351 -12.281  15.416  0.00  0.00    +0.034 A 
ATOM     14  C   UNL     1      -4.247 -12.611  14.100  0.00  0.00    +0.002 A 
ATOM     15  C   UNL     1      -5.287 -14.503  15.950  0.00  0.00    +0.252 A 
ATOM     16  C   UNL     1      -4.696 -13.922  13.665  0.00  0.00    +0.015 A 
ATOM     17  C   UNL     1      -5.199 -14.822  14.508  0.00  0.00    +0.071 A 
ENDROOT
BRANCH  14  19
ATOM     19  C   UNL     1      -3.720 -11.675  13.146  0.00  0.00    -0.016 A 
ATOM     21  C   UNL     1      -2.344 -11.564  12.973  0.00  0.00    +0.008 A 
ATOM     22  C   UNL     1      -4.590 -10.886  12.398  0.00  0.00    +0.008 A 
ATOM     25  C   UNL     1      -1.833 -10.655  12.046  0.00  0.00    +0.001 A 
ATOM     26  C   UNL     1      -4.079  -9.978  11.472  0.00  0.00    +0.001 A 
ATOM     27  C   UNL     1      -2.700  -9.862  11.296  0.00  0.00    +0.000 A 
ENDBRANCH  14  19
BRANCH   4  13
ATOM     13  C   UNL     1      -7.377  -9.496  16.887  0.00  0.00    +0.158 C 
BRANCH  13  18
ATOM      2  O   UNL     1      -9.119  -9.931  18.483  0.00  0.00    -0.461 OA
ATOM     18  C   UNL     1      -8.665 -10.189  17.246  0.00  0.00    +0.119 A 
ATOM     20  C   UNL     1      -9.462 -11.032  16.554  0.00  0.00    +0.046 A 
ATOM     23  C   UNL     1     -10.270 -10.645  18.597  0.00  0.00    +0.131 A 
ATOM     24  C   UNL     1     -10.525 -11.338  17.437  0.00  0.00    +0.047 A 
BRANCH  23  28
ATOM     28  C   UNL     1     -10.979 -10.535  19.880  0.00  0.00    +0.230 C 
BRANCH  28   3
ATOM      3  O   UNL     1     -10.081  -9.971  20.837  0.00  0.00    -0.387 OA
ATOM     29  H   UNL     1     -10.616  -9.631  21.575  0.00  0.00    +0.210 HD
ENDBRANCH  28   3
ENDBRANCH  23  28
ENDBRANCH  13  18
ENDBRANCH   4  13
TORSDOF 5
ENDMDL
MODEL 9
REMARK VINA RESULT:      -6.3     16.879     20.860
REMARK  Name = 7155460
REMARK  5 active torsions:
REMARK  status: ('A' for Active; 'I' for Inactive)
REMARK    1  A    between atoms: O_3  and  C_28
REMARK    2  A    between atoms: N_4  and  C_13
REMARK    3  A    between atoms: C_13  and  C_18
REMARK    4  A    between atoms: C_14  and  C_19
REMARK    5  A    between atoms: C_23  and  C_28
REMARK                            x       y       z     vdW  Elec       q    Type
REMARK                         _______ _______ _______ _____ _____    ______ ____
ROOT
ATOM      1  O   UNL     1      15.485   6.678   2.098  0.00  0.00    -0.268 OA
ATOM      4  N   UNL     1      11.189   5.253   0.027  0.00  0.00    -0.294 NA
ATOM      5  N   UNL     1      13.393   5.642   2.286  0.00  0.00    -0.311 N 
ATOM      6  C   UNL     1      12.800   3.557   0.912  0.00  0.00    +0.024 C 
ATOM      7  C   UNL     1      11.142   4.534   2.424  0.00  0.00    +0.051 C 
ATOM      8  C   UNL     1      11.874   3.240   2.075  0.00  0.00    +0.017 C 
ATOM      9  C   UNL     1      11.989   4.066  -0.296  0.00  0.00    +0.090 C 
ATOM     10  C   UNL     1      10.332   5.013   1.196  0.00  0.00    +0.094 C 
ATOM     11  C   UNL     1      13.843   4.571   1.385  0.00  0.00    +0.130 C 
ATOM     12  C   UNL     1      12.119   5.620   2.891  0.00  0.00    +0.034 A 
ATOM     14  C   UNL     1      11.801   6.551   3.831  0.00  0.00    +0.002 A 
ATOM     15  C   UNL     1      14.356   6.621   2.587  0.00  0.00    +0.252 A 
ATOM     16  C   UNL     1      12.771   7.579   4.161  0.00  0.00    +0.015 A 
ATOM     17  C   UNL     1      13.970   7.643   3.584  0.00  0.00    +0.071 A 
ENDROOT
BRANCH  14  19
ATOM     19  C   UNL     1      10.518   6.534   4.478  0.00  0.00    -0.016 A 
ATOM     21  C   UNL     1      10.323   5.746   5.608  0.00  0.00    +0.008 A 
ATOM     22  C   UNL     1       9.478   7.308   3.971  0.00  0.00    +0.008 A 
ATOM     25  C   UNL     1       9.078   5.730   6.236  0.00  0.00    +0.001 A 
ATOM     26  C   UNL     1       8.233   7.293   4.599  0.00  0.00    +0.001 A 
ATOM     27  C   UNL     1       8.033   6.503   5.732  0.00  0.00    +0.000 A 
ENDBRANCH  14  19
BRANCH   4  13
ATOM     13  C   UNL     1      10.399   5.681  -1.123  0.00  0.00    +0.158 C 
BRANCH  13  18
ATOM      2  O   UNL     1       9.762   3.782  -2.450  0.00  0.00    -0.461 OA
ATOM     18  C   UNL     1      10.629   4.800  -2.322  0.00  0.00    +0.119 A 
ATOM     20  C   UNL     1      11.553   4.835  -3.308  0.00  0.00    +0.046 A 
ATOM     23  C   UNL     1      10.146   3.125  -3.576  0.00  0.00    +0.131 A 
ATOM     24  C   UNL     1      11.242   3.735  -4.141  0.00  0.00    +0.047 A 
BRANCH  23  28
ATOM     28  C   UNL     1       9.346   1.949  -3.948  0.00  0.00    +0.230 C 
BRANCH  28   3
ATOM      3  O   UNL     1       9.350   1.042  -2.844  0.00  0.00    -0.387 OA
ATOM     29  H   UNL     1       9.622   0.172  -3.182  0.00  0.00    +0.210 HD
ENDBRANCH  28   3
ENDBRANCH  23  28
ENDBRANCH  13  18
ENDBRANCH   4  13
TORSDOF 5
ENDMDL
MODEL 10
REMARK VINA RESULT:      -6.3     27.020     28.786
REMARK  Name = 7155460
REMARK  5 active torsions:
REMARK  status: ('A' for Active; 'I' for Inactive)
REMARK    1  A    between atoms: O_3  and  C_28
REMARK    2  A    between atoms: N_4  and  C_13
REMARK    3  A    between atoms: C_13  and  C_18
REMARK    4  A    between atoms: C_14  and  C_19
REMARK    5  A    between atoms: C_23  and  C_28
REMARK                            x       y       z     vdW  Elec       q    Type
REMARK                         _______ _______ _______ _____ _____    ______ ____
ROOT
ATOM      1  O   UNL     1      -5.600 -15.071  16.553  0.00  0.00    -0.268 OA
ATOM      4  N   UNL     1      -6.915 -10.349  17.422  0.00  0.00    -0.294 NA
ATOM      5  N   UNL     1      -5.271 -12.780  16.198  0.00  0.00    -0.311 N 
ATOM      6  C   UNL     1      -4.669 -11.196  18.125  0.00  0.00    +0.024 C 
ATOM      7  C   UNL     1      -4.958 -10.309  15.863  0.00  0.00    +0.051 C 
ATOM      8  C   UNL     1      -3.988 -10.378  17.040  0.00  0.00    +0.017 C 
ATOM      9  C   UNL     1      -5.992 -10.528  18.549  0.00  0.00    +0.090 C 
ATOM     10  C   UNL     1      -6.270  -9.627  16.317  0.00  0.00    +0.094 C 
ATOM     11  C   UNL     1      -4.874 -12.620  17.604  0.00  0.00    +0.130 C 
ATOM     12  C   UNL     1      -5.239 -11.703  15.288  0.00  0.00    +0.034 A 
ATOM     14  C   UNL     1      -5.470 -11.928  13.966  0.00  0.00    +0.002 A 
ATOM     15  C   UNL     1      -5.572 -14.095  15.803  0.00  0.00    +0.252 A 
ATOM     16  C   UNL     1      -5.790 -13.274  13.525  0.00  0.00    +0.015 A 
ATOM     17  C   UNL     1      -5.857 -14.305  14.367  0.00  0.00    +0.071 A 
ENDROOT
BRANCH  14  19
ATOM     19  C   UNL     1      -5.419 -10.851  13.017  0.00  0.00    -0.016 A 
ATOM     21  C   UNL     1      -4.262 -10.636  12.275  0.00  0.00    +0.008 A 
ATOM     22  C   UNL     1      -6.530 -10.028  12.844  0.00  0.00    +0.008 A 
ATOM     25  C   UNL     1      -4.214  -9.591  11.353  0.00  0.00    +0.001 A 
ATOM     26  C   UNL     1      -6.482  -8.984  11.922  0.00  0.00    +0.001 A 
ATOM     27  C   UNL     1      -5.323  -8.764  11.176  0.00  0.00    +0.000 A 
ENDBRANCH  14  19
BRANCH   4  13
ATOM     13  C   UNL     1      -8.137  -9.674  17.848  0.00  0.00    +0.158 C 
BRANCH  13  18
ATOM      2  O   UNL     1      -9.333  -7.871  16.803  0.00  0.00    -0.461 OA
ATOM     18  C   UNL     1      -8.921  -9.143  16.677  0.00  0.00    +0.119 A 
ATOM     20  C   UNL     1      -9.296  -9.707  15.508  0.00  0.00    +0.046 A 
ATOM     23  C   UNL     1     -10.010  -7.599  15.656  0.00  0.00    +0.131 A 
ATOM     24  C   UNL     1     -10.014  -8.696  14.827  0.00  0.00    +0.047 A 
BRANCH  23  28
ATOM     28  C   UNL     1     -10.573  -6.247  15.538  0.00  0.00    +0.230 C 
BRANCH  28   3
ATOM      3  O   UNL     1     -11.027  -5.840  16.830  0.00  0.00    -0.387 OA
ATOM     29  H   UNL     1     -11.995  -5.942  16.845  0.00  0.00    +0.210 HD
ENDBRANCH  28   3
ENDBRANCH  23  28
ENDBRANCH  13  18
ENDBRANCH   4  13
TORSDOF 5
ENDMDL
