REMARK  Name = 45360494
REMARK  13 active torsions:
REMARK  status: ('A' for Active; 'I' for Inactive)
REMARK    1  A    between atoms: O_4  and  C_24
REMARK    2  A    between atoms: O_4  and  C_27
REMARK    3  A    between atoms: O_7  and  C_41
REMARK    4  A    between atoms: O_7  and  C_42
REMARK    5  A    between atoms: N_9  and  C_20
REMARK    6  A    between atoms: N_11  and  C_29
REMARK    7  A    between atoms: C_13  and  C_17
REMARK    8  A    between atoms: C_14  and  C_19
REMARK    9  A    between atoms: C_17  and  C_20
REMARK   10  A    between atoms: C_19  and  C_24
REMARK   11  A    between atoms: C_27  and  C_30
REMARK   12  A    between atoms: C_27  and  C_31
REMARK   13  A    between atoms: C_27  and  C_32
REMARK                            x       y       z     vdW  Elec       q    Type
REMARK                         _______ _______ _______ _____ _____    ______ ____
ROOT
ATOM      5  O   UNL     1      -1.026   4.025  -0.752  0.00  0.00    -0.252 OA
ATOM      8  N   UNL     1      -2.300   2.742   0.690  0.00  0.00    -0.285 N 
ATOM     11  N   UNL     1       0.004   3.070   1.092  0.00  0.00    -0.269 N 
ATOM     13  C   UNL     1      -3.024   0.471   1.397  0.00  0.00    +0.011 C 
ATOM     14  C   UNL     1      -4.314   0.658   0.560  0.00  0.00    +0.006 C 
ATOM     15  C   UNL     1      -2.477   1.842   1.842  0.00  0.00    +0.113 C 
ATOM     16  C   UNL     1      -4.097   1.647  -0.597  0.00  0.00    +0.023 C 
ATOM     18  C   UNL     1      -3.518   2.965  -0.092  0.00  0.00    +0.109 C 
ATOM     23  C   UNL     1      -1.088   3.328   0.264  0.00  0.00    +0.306 C 
ATOM     43  H   UNL     1      -0.170   2.907   2.078  0.00  0.00    +0.156 HD
ENDROOT
BRANCH  11  29
ATOM     29  C   UNL     1       1.366   2.977   0.711  0.00  0.00    +0.035 A 
ATOM     34  C   UNL     1       2.342   2.710   1.671  0.00  0.00    +0.027 A 
ATOM     35  C   UNL     1       1.730   3.151  -0.624  0.00  0.00    +0.027 A 
ATOM     39  C   UNL     1       3.682   2.619   1.296  0.00  0.00    +0.048 A 
ATOM     40  C   UNL     1       3.071   3.060  -0.999  0.00  0.00    +0.048 A 
ATOM     41  C   UNL     1       4.046   2.793  -0.038  0.00  0.00    +0.130 A 
BRANCH  41   7
ATOM      7  O   UNL     1       5.355   2.704  -0.404  0.00  0.00    -0.406 OA
BRANCH   7  42
ATOM      1  F   UNL     1       6.985   1.302  -1.090  0.00  0.00    -0.133 F 
ATOM      2  F   UNL     1       4.913   0.633  -1.268  0.00  0.00    -0.133 F 
ATOM      3  F   UNL     1       5.699   2.203  -2.609  0.00  0.00    -0.133 F 
ATOM     42  C   UNL     1       5.723   1.709  -1.353  0.00  0.00    +0.575 C 
ENDBRANCH   7  42
ENDBRANCH  41   7
ENDBRANCH  11  29
BRANCH  13  17
ATOM     17  C   UNL     1      -1.929  -0.331   0.681  0.00  0.00    +0.020 C 
BRANCH  17  20
ATOM     20  C   UNL     1      -1.012  -1.015   1.685  0.00  0.00    +0.085 C 
BRANCH  20   9
ATOM      9  N   UNL     1       0.032  -1.757   0.979  0.00  0.00    -0.299 NA
ATOM     10  N   UNL     1       2.685  -2.696   0.487  0.00  0.00    -0.313 N 
ATOM     12  N   UNL     1       4.015  -4.547  -0.150  0.00  0.00    -0.240 NA
ATOM     21  C   UNL     1       0.642  -2.757   1.864  0.00  0.00    +0.103 C 
ATOM     22  C   UNL     1       1.063  -0.842   0.475  0.00  0.00    +0.103 C 
ATOM     25  C   UNL     1       1.697  -3.579   1.120  0.00  0.00    +0.122 C 
ATOM     26  C   UNL     1       2.134  -1.599  -0.314  0.00  0.00    +0.122 C 
ATOM     28  C   UNL     1       3.934  -3.234   0.161  0.00  0.00    +0.121 A 
ATOM     33  C   UNL     1       5.020  -2.373   0.180  0.00  0.00    +0.043 A 
ATOM     36  C   UNL     1       6.269  -2.894  -0.142  0.00  0.00    +0.005 A 
ATOM     37  C   UNL     1       5.245  -5.017  -0.458  0.00  0.00    +0.113 A 
ATOM     38  C   UNL     1       6.392  -4.240  -0.468  0.00  0.00    +0.020 A 
ENDBRANCH  20   9
ENDBRANCH  17  20
ENDBRANCH  13  17
BRANCH  14  19
ATOM     19  C   UNL     1      -4.893  -0.659   0.043  0.00  0.00    +0.124 C 
BRANCH  19  24
ATOM      6  O   UNL     1      -7.037   0.473  -0.142  0.00  0.00    -0.251 OA
ATOM     24  C   UNL     1      -6.361  -0.538  -0.275  0.00  0.00    +0.308 C 
BRANCH  24   4
ATOM      4  O   UNL     1      -6.807  -1.744  -0.735  0.00  0.00    -0.459 OA
BRANCH   4  27
ATOM     27  C   UNL     1      -8.194  -1.797  -1.084  0.00  0.00    +0.105 C 
ATOM     30  C   UNL     1      -9.021  -1.477   0.161  0.00  0.00    +0.055 C 
ATOM     31  C   UNL     1      -8.491  -3.211  -1.577  0.00  0.00    +0.055 C 
ATOM     32  C   UNL     1      -8.456  -0.775  -2.189  0.00  0.00    +0.055 C 
ENDBRANCH   4  27
ENDBRANCH  24   4
ENDBRANCH  19  24
ENDBRANCH  14  19
TORSDOF 10
