REMARK  Name = 11941671
REMARK  5 active torsions:
REMARK  status: ('A' for Active; 'I' for Inactive)
REMARK    1  A    between atoms: N_5  and  C_12
REMARK    2  A    between atoms: N_6  and  C_13
REMARK    3  A    between atoms: C_17  and  C_18
REMARK    4  A    between atoms: C_19  and  C_23
REMARK    5  A    between atoms: C_28  and  C_31
REMARK                            x       y       z     vdW  Elec       q    Type
REMARK                         _______ _______ _______ _____ _____    ______ ____
ROOT
ATOM      1  O   UNL     1      -1.999   2.977   1.531  0.00  0.00    -0.370 OA
ATOM      2  O   UNL     1      -0.770   0.150   2.020  0.00  0.00    -0.370 OA
ATOM     10  C   UNL     1      -0.735   1.060   0.907  0.00  0.00    +0.171 C 
ATOM     11  C   UNL     1      -2.095   1.727   0.828  0.00  0.00    +0.171 C 
ATOM     12  C   UNL     1       0.218   2.197   1.189  0.00  0.00    +0.130 C 
ATOM     13  C   UNL     1      -3.013   0.778   1.564  0.00  0.00    +0.130 C 
ATOM     14  C   UNL     1      -0.646   3.171   1.969  0.00  0.00    +0.185 C 
ATOM     15  C   UNL     1      -2.084   0.162   2.596  0.00  0.00    +0.185 C 
ENDROOT
BRANCH  12   5
ATOM      5  N   UNL     1       0.654   2.798  -0.053  0.00  0.00    -0.306 N 
ATOM      7  N   UNL     1       2.376   1.230  -0.335  0.00  0.00    -0.214 NA
ATOM      8  N   UNL     1       2.018   2.980  -1.953  0.00  0.00    -0.223 NA
ATOM     16  C   UNL     1       1.714   2.322  -0.803  0.00  0.00    +0.216 A 
ATOM     19  C   UNL     1       3.405   0.793  -1.091  0.00  0.00    +0.076 A 
ATOM     21  C   UNL     1       3.057   2.489  -2.659  0.00  0.00    +0.116 A 
ATOM     22  C   UNL     1       3.794   1.388  -2.274  0.00  0.00    +0.048 A 
ATOM     32  H   UNL     1       0.135   3.580  -0.437  0.00  0.00    +0.149 HD
BRANCH  19  23
ATOM     23  C   UNL     1       4.093  -0.367  -0.578  0.00  0.00    +0.002 A 
ATOM     26  C   UNL     1       3.404  -1.309   0.190  0.00  0.00    +0.029 A 
ATOM     27  C   UNL     1       5.451  -0.551  -0.846  0.00  0.00    +0.010 A 
ATOM     28  C   UNL     1       4.070  -2.430   0.686  0.00  0.00    +0.052 A 
ATOM     29  C   UNL     1       6.117  -1.672  -0.350  0.00  0.00    +0.002 A 
ATOM     30  C   UNL     1       5.427  -2.611   0.416  0.00  0.00    +0.019 A 
BRANCH  28  31
ATOM      9  N   UNL     1       2.789  -4.175   2.109  0.00  0.00    -0.191 NA
ATOM     31  C   UNL     1       3.364  -3.393   1.471  0.00  0.00    +0.099 C 
ENDBRANCH  28  31
ENDBRANCH  19  23
ENDBRANCH  12   5
BRANCH  13   6
ATOM      3  O   UNL     1      -5.494   0.910   0.230  0.00  0.00    -0.267 OA
ATOM      6  N   UNL     1      -3.547  -0.226   0.676  0.00  0.00    -0.301 N 
ATOM     17  C   UNL     1      -4.787  -0.084   0.053  0.00  0.00    +0.280 C 
ATOM     33  H   UNL     1      -2.976  -1.039   0.461  0.00  0.00    +0.150 HD
BRANCH  17  18
ATOM      4  O   UNL     1      -4.306  -2.182  -0.970  0.00  0.00    -0.458 OA
ATOM     18  C   UNL     1      -5.179  -1.177  -0.848  0.00  0.00    +0.189 A 
ATOM     20  C   UNL     1      -6.294  -1.333  -1.584  0.00  0.00    +0.054 A 
ATOM     24  C   UNL     1      -6.114  -2.571  -2.248  0.00  0.00    +0.042 A 
ATOM     25  C   UNL     1      -4.890  -3.047  -1.841  0.00  0.00    +0.196 A 
ENDBRANCH  17  18
ENDBRANCH  13   6
TORSDOF 5
