MODEL 1
REMARK VINA RESULT:      -7.6      0.000      0.000
REMARK  Name = 7114631
REMARK  12 active torsions:
REMARK  status: ('A' for Active; 'I' for Inactive)
REMARK    1  A    between atoms: O_3  and  C_22
REMARK    2  A    between atoms: O_3  and  C_31
REMARK    3  A    between atoms: O_5  and  C_25
REMARK    4  A    between atoms: O_5  and  C_34
REMARK    5  A    between atoms: N_8  and  C_12
REMARK    6  A    between atoms: N_9  and  C_19
REMARK    7  A    between atoms: C_13  and  C_17
REMARK    8  A    between atoms: C_18  and  C_22
REMARK    9  A    between atoms: C_19  and  C_21
REMARK   10  A    between atoms: C_19  and  C_24
REMARK   11  A    between atoms: C_20  and  C_25
REMARK   12  A    between atoms: C_21  and  C_23
REMARK                            x       y       z     vdW  Elec       q    Type
REMARK                         _______ _______ _______ _____ _____    ______ ____
ROOT
ATOM      1  O   UNL     1      14.564   9.178  22.319  0.00  0.00    -0.274 OA
ATOM      9  N   UNL     1      15.328   9.130  20.121  0.00  0.00    -0.302 N 
ATOM     17  C   UNL     1      14.362   9.220  21.109  0.00  0.00    +0.234 C 
ATOM     36  H   UNL     1      15.039   9.115  19.148  0.00  0.00    +0.150 HD
ENDROOT
BRANCH  17  13
ATOM      2  O   UNL     1      11.720   6.002  19.958  0.00  0.00    -0.273 OA
ATOM      7  N   UNL     1      12.272   8.131  20.722  0.00  0.00    -0.288 N 
ATOM     12  C   UNL     1      11.747  10.317  22.586  0.00  0.00    +0.077 C 
ATOM     13  C   UNL     1      12.985   9.406  20.541  0.00  0.00    +0.164 C 
ATOM     14  C   UNL     1      12.260  10.597  21.170  0.00  0.00    +0.054 C 
ATOM     15  C   UNL     1      10.929   9.026  22.606  0.00  0.00    +0.041 C 
ATOM     16  C   UNL     1      11.744   7.859  22.064  0.00  0.00    +0.110 C 
ATOM     18  C   UNL     1      12.202   7.121  19.756  0.00  0.00    +0.242 C 
BRANCH  12   8
ATOM      4  O   UNL     1      11.896  11.550  25.203  0.00  0.00    -0.273 OA
ATOM      8  N   UNL     1      10.961  11.423  23.076  0.00  0.00    -0.310 N 
ATOM     20  C   UNL     1      11.105  11.949  24.352  0.00  0.00    +0.239 C 
ATOM     35  H   UNL     1      10.314  11.870  22.433  0.00  0.00    +0.149 HD
BRANCH  20  25
ATOM     25  C   UNL     1      10.154  13.101  24.593  0.00  0.00    +0.255 C 
BRANCH  25   5
ATOM      5  O   UNL     1      10.247  14.050  23.552  0.00  0.00    -0.374 OA
ATOM     34  C   UNL     1      11.323  14.960  23.756  0.00  0.00    +0.194 C 
ENDBRANCH  25   5
ENDBRANCH  20  25
ENDBRANCH  12   8
BRANCH  18  22
ATOM     22  C   UNL     1      12.747   7.449  18.388  0.00  0.00    +0.255 C 
BRANCH  22   3
ATOM      3  O   UNL     1      11.644   7.488  17.516  0.00  0.00    -0.374 OA
ATOM     31  C   UNL     1      11.516   8.754  16.871  0.00  0.00    +0.194 C 
ENDBRANCH  22   3
ENDBRANCH  18  22
ENDBRANCH  17  13
BRANCH   9  19
ATOM     19  C   UNL     1      16.736   8.971  20.405  0.00  0.00    +0.163 C 
BRANCH  19  24
ATOM      6  O   UNL     1      17.185  11.357  20.519  0.00  0.00    -0.274 OA
ATOM     11  N   UNL     1      17.613  10.068  22.372  0.00  0.00    -0.328 N 
ATOM     24  C   UNL     1      17.206  10.258  21.068  0.00  0.00    +0.231 C 
ATOM     38  H   UNL     1      17.938  10.849  22.933  0.00  0.00    +0.145 HD
ATOM     39  H   UNL     1      17.603   9.158  22.820  0.00  0.00    +0.145 HD
ENDBRANCH  19  24
BRANCH  19  21
ATOM     21  C   UNL     1      17.013   7.768  21.315  0.00  0.00    +0.069 C 
BRANCH  21  23
ATOM     10  N   UNL     1      18.616   5.199  19.231  0.00  0.00    -0.360 N 
ATOM     23  C   UNL     1      17.873   6.722  20.664  0.00  0.00    -0.020 A 
ATOM     26  C   UNL     1      19.114   6.222  21.150  0.00  0.00    +0.003 A 
ATOM     27  C   UNL     1      17.593   6.074  19.483  0.00  0.00    +0.087 A 
ATOM     28  C   UNL     1      19.559   5.268  20.232  0.00  0.00    +0.047 A 
ATOM     29  C   UNL     1      19.904   6.491  22.285  0.00  0.00    +0.010 A 
ATOM     30  C   UNL     1      20.759   4.567  20.393  0.00  0.00    +0.026 A 
ATOM     32  C   UNL     1      21.107   5.797  22.460  0.00  0.00    +0.001 A 
ATOM     33  C   UNL     1      21.526   4.850  21.527  0.00  0.00    +0.002 A 
ATOM     37  H   UNL     1      18.672   4.589  18.427  0.00  0.00    +0.165 HD
ENDBRANCH  21  23
ENDBRANCH  19  21
ENDBRANCH   9  19
TORSDOF 10
ENDMDL
MODEL 2
REMARK VINA RESULT:      -7.2      2.296      8.534
REMARK  Name = 7114631
REMARK  12 active torsions:
REMARK  status: ('A' for Active; 'I' for Inactive)
REMARK    1  A    between atoms: O_3  and  C_22
REMARK    2  A    between atoms: O_3  and  C_31
REMARK    3  A    between atoms: O_5  and  C_25
REMARK    4  A    between atoms: O_5  and  C_34
REMARK    5  A    between atoms: N_8  and  C_12
REMARK    6  A    between atoms: N_9  and  C_19
REMARK    7  A    between atoms: C_13  and  C_17
REMARK    8  A    between atoms: C_18  and  C_22
REMARK    9  A    between atoms: C_19  and  C_21
REMARK   10  A    between atoms: C_19  and  C_24
REMARK   11  A    between atoms: C_20  and  C_25
REMARK   12  A    between atoms: C_21  and  C_23
REMARK                            x       y       z     vdW  Elec       q    Type
REMARK                         _______ _______ _______ _____ _____    ______ ____
ROOT
ATOM      1  O   UNL     1      15.752   9.211  22.032  0.00  0.00    -0.274 OA
ATOM      9  N   UNL     1      13.595   9.331  21.166  0.00  0.00    -0.302 N 
ATOM     17  C   UNL     1      14.761   8.683  21.537  0.00  0.00    +0.234 C 
ATOM     36  H   UNL     1      12.861   8.801  20.707  0.00  0.00    +0.150 HD
ENDROOT
BRANCH  17  13
ATOM      2  O   UNL     1      12.114   6.785  18.700  0.00  0.00    -0.273 OA
ATOM      7  N   UNL     1      14.044   7.020  19.979  0.00  0.00    -0.288 N 
ATOM     12  C   UNL     1      16.951   6.806  20.155  0.00  0.00    +0.077 C 
ATOM     13  C   UNL     1      14.693   7.204  21.288  0.00  0.00    +0.164 C 
ATOM     14  C   UNL     1      16.069   6.541  21.378  0.00  0.00    +0.054 C 
ATOM     15  C   UNL     1      16.194   6.465  18.873  0.00  0.00    +0.041 C 
ATOM     16  C   UNL     1      14.884   7.237  18.795  0.00  0.00    +0.110 C 
ATOM     18  C   UNL     1      12.673   6.805  19.800  0.00  0.00    +0.242 C 
BRANCH  12   8
ATOM      4  O   UNL     1      19.445   7.640  21.371  0.00  0.00    -0.273 OA
ATOM      8  N   UNL     1      18.179   6.053  20.235  0.00  0.00    -0.310 N 
ATOM     20  C   UNL     1      19.329   6.538  20.841  0.00  0.00    +0.239 C 
ATOM     35  H   UNL     1      18.179   5.101  19.880  0.00  0.00    +0.149 HD
BRANCH  20  25
ATOM     25  C   UNL     1      20.462   5.536  20.779  0.00  0.00    +0.255 C 
BRANCH  25   5
ATOM      5  O   UNL     1      21.641   6.083  21.328  0.00  0.00    -0.374 OA
ATOM     34  C   UNL     1      22.806   5.624  20.649  0.00  0.00    +0.194 C 
ENDBRANCH  25   5
ENDBRANCH  20  25
ENDBRANCH  12   8
BRANCH  18  22
ATOM     22  C   UNL     1      11.852   6.575  21.045  0.00  0.00    +0.255 C 
BRANCH  22   3
ATOM      3  O   UNL     1      10.920   7.627  21.110  0.00  0.00    -0.374 OA
ATOM     31  C   UNL     1      10.631   8.003  22.455  0.00  0.00    +0.194 C 
ENDBRANCH  22   3
ENDBRANCH  18  22
ENDBRANCH  17  13
BRANCH   9  19
ATOM     19  C   UNL     1      13.398  10.754  21.324  0.00  0.00    +0.163 C 
BRANCH  19  24
ATOM      6  O   UNL     1      14.450  11.327  19.209  0.00  0.00    -0.274 OA
ATOM     11  N   UNL     1      15.270  12.271  21.137  0.00  0.00    -0.328 N 
ATOM     24  C   UNL     1      14.416  11.448  20.432  0.00  0.00    +0.231 C 
ATOM     38  H   UNL     1      15.990  12.804  20.660  0.00  0.00    +0.145 HD
ATOM     39  H   UNL     1      15.216  12.379  22.144  0.00  0.00    +0.145 HD
ENDBRANCH  19  24
BRANCH  19  21
ATOM     21  C   UNL     1      11.975  11.188  20.951  0.00  0.00    +0.069 C 
BRANCH  21  23
ATOM     10  N   UNL     1      10.943  14.538  22.057  0.00  0.00    -0.360 N 
ATOM     23  C   UNL     1      11.533  12.435  21.662  0.00  0.00    -0.020 A 
ATOM     26  C   UNL     1      11.240  12.562  23.049  0.00  0.00    +0.003 A 
ATOM     27  C   UNL     1      11.342  13.667  21.079  0.00  0.00    +0.087 A 
ATOM     28  C   UNL     1      10.872  13.891  23.270  0.00  0.00    +0.047 A 
ATOM     29  C   UNL     1      11.252  11.671  24.140  0.00  0.00    +0.010 A 
ATOM     30  C   UNL     1      10.514  14.375  24.534  0.00  0.00    +0.026 A 
ATOM     32  C   UNL     1      10.896  12.140  25.409  0.00  0.00    +0.001 A 
ATOM     33  C   UNL     1      10.533  13.472  25.601  0.00  0.00    +0.002 A 
ATOM     37  H   UNL     1      10.732  15.516  21.912  0.00  0.00    +0.165 HD
ENDBRANCH  21  23
ENDBRANCH  19  21
ENDBRANCH   9  19
TORSDOF 10
ENDMDL
MODEL 3
REMARK VINA RESULT:      -7.1      2.264      8.375
REMARK  Name = 7114631
REMARK  12 active torsions:
REMARK  status: ('A' for Active; 'I' for Inactive)
REMARK    1  A    between atoms: O_3  and  C_22
REMARK    2  A    between atoms: O_3  and  C_31
REMARK    3  A    between atoms: O_5  and  C_25
REMARK    4  A    between atoms: O_5  and  C_34
REMARK    5  A    between atoms: N_8  and  C_12
REMARK    6  A    between atoms: N_9  and  C_19
REMARK    7  A    between atoms: C_13  and  C_17
REMARK    8  A    between atoms: C_18  and  C_22
REMARK    9  A    between atoms: C_19  and  C_21
REMARK   10  A    between atoms: C_19  and  C_24
REMARK   11  A    between atoms: C_20  and  C_25
REMARK   12  A    between atoms: C_21  and  C_23
REMARK                            x       y       z     vdW  Elec       q    Type
REMARK                         _______ _______ _______ _____ _____    ______ ____
ROOT
ATOM      1  O   UNL     1      13.875   9.624  20.681  0.00  0.00    -0.274 OA
ATOM      9  N   UNL     1      14.893   9.320  22.752  0.00  0.00    -0.302 N 
ATOM     17  C   UNL     1      14.347   8.899  21.552  0.00  0.00    +0.234 C 
ATOM     36  H   UNL     1      15.199   8.626  23.427  0.00  0.00    +0.150 HD
ENDROOT
BRANCH  17  13
ATOM      2  O   UNL     1      12.036   6.632  18.692  0.00  0.00    -0.273 OA
ATOM      7  N   UNL     1      13.859   7.096  20.063  0.00  0.00    -0.288 N 
ATOM     12  C   UNL     1      16.757   7.128  20.420  0.00  0.00    +0.077 C 
ATOM     13  C   UNL     1      14.408   7.407  21.393  0.00  0.00    +0.164 C 
ATOM     14  C   UNL     1      15.823   6.864  21.604  0.00  0.00    +0.054 C 
ATOM     15  C   UNL     1      16.110   6.654  19.120  0.00  0.00    +0.041 C 
ATOM     16  C   UNL     1      14.751   7.311  18.918  0.00  0.00    +0.110 C 
ATOM     18  C   UNL     1      12.522   6.761  19.819  0.00  0.00    +0.242 C 
BRANCH  12   8
ATOM      4  O   UNL     1      19.067   8.194  21.807  0.00  0.00    -0.273 OA
ATOM      8  N   UNL     1      18.032   6.482  20.617  0.00  0.00    -0.310 N 
ATOM     20  C   UNL     1      19.085   7.075  21.299  0.00  0.00    +0.239 C 
ATOM     35  H   UNL     1      18.139   5.526  20.289  0.00  0.00    +0.149 HD
BRANCH  20  25
ATOM     25  C   UNL     1      20.297   6.170  21.354  0.00  0.00    +0.255 C 
BRANCH  25   5
ATOM      5  O   UNL     1      21.231   6.527  20.357  0.00  0.00    -0.374 OA
ATOM     34  C   UNL     1      22.390   7.143  20.911  0.00  0.00    +0.194 C 
ENDBRANCH  25   5
ENDBRANCH  20  25
ENDBRANCH  12   8
BRANCH  18  22
ATOM     22  C   UNL     1      11.646   6.538  21.027  0.00  0.00    +0.255 C 
BRANCH  22   3
ATOM      3  O   UNL     1      10.646   7.527  20.984  0.00  0.00    -0.374 OA
ATOM     31  C   UNL     1      10.654   8.348  22.150  0.00  0.00    +0.194 C 
ENDBRANCH  22   3
ENDBRANCH  18  22
ENDBRANCH  17  13
BRANCH   9  19
ATOM     19  C   UNL     1      14.977  10.712  23.136  0.00  0.00    +0.163 C 
BRANCH  19  24
ATOM      6  O   UNL     1      16.084  12.316  21.684  0.00  0.00    -0.274 OA
ATOM     11  N   UNL     1      17.338  10.636  22.625  0.00  0.00    -0.328 N 
ATOM     24  C   UNL     1      16.159  11.311  22.389  0.00  0.00    +0.231 C 
ATOM     38  H   UNL     1      18.206  10.941  22.197  0.00  0.00    +0.145 HD
ATOM     39  H   UNL     1      17.389   9.821  23.227  0.00  0.00    +0.145 HD
ENDBRANCH  19  24
BRANCH  19  21
ATOM     21  C   UNL     1      13.691  11.482  22.811  0.00  0.00    +0.069 C 
BRANCH  21  23
ATOM     10  N   UNL     1      12.649  12.698  26.120  0.00  0.00    -0.360 N 
ATOM     23  C   UNL     1      13.075  12.136  24.016  0.00  0.00    -0.020 A 
ATOM     26  C   UNL     1      12.011  13.080  24.017  0.00  0.00    +0.003 A 
ATOM     27  C   UNL     1      13.447  11.921  25.323  0.00  0.00    +0.087 A 
ATOM     28  C   UNL     1      11.763  13.416  25.350  0.00  0.00    +0.047 A 
ATOM     29  C   UNL     1      11.232  13.682  23.010  0.00  0.00    +0.010 A 
ATOM     30  C   UNL     1      10.772  14.330  25.726  0.00  0.00    +0.026 A 
ATOM     32  C   UNL     1      10.236  14.597  23.371  0.00  0.00    +0.001 A 
ATOM     33  C   UNL     1      10.012  14.914  24.710  0.00  0.00    +0.002 A 
ATOM     37  H   UNL     1      12.702  12.740  27.129  0.00  0.00    +0.165 HD
ENDBRANCH  21  23
ENDBRANCH  19  21
ENDBRANCH   9  19
TORSDOF 10
ENDMDL
MODEL 4
REMARK VINA RESULT:      -6.7     26.245     29.164
REMARK  Name = 7114631
REMARK  12 active torsions:
REMARK  status: ('A' for Active; 'I' for Inactive)
REMARK    1  A    between atoms: O_3  and  C_22
REMARK    2  A    between atoms: O_3  and  C_31
REMARK    3  A    between atoms: O_5  and  C_25
REMARK    4  A    between atoms: O_5  and  C_34
REMARK    5  A    between atoms: N_8  and  C_12
REMARK    6  A    between atoms: N_9  and  C_19
REMARK    7  A    between atoms: C_13  and  C_17
REMARK    8  A    between atoms: C_18  and  C_22
REMARK    9  A    between atoms: C_19  and  C_21
REMARK   10  A    between atoms: C_19  and  C_24
REMARK   11  A    between atoms: C_20  and  C_25
REMARK   12  A    between atoms: C_21  and  C_23
REMARK                            x       y       z     vdW  Elec       q    Type
REMARK                         _______ _______ _______ _____ _____    ______ ____
ROOT
ATOM      1  O   UNL     1      -5.231  -9.932  13.768  0.00  0.00    -0.274 OA
ATOM      9  N   UNL     1      -3.805 -11.302  14.994  0.00  0.00    -0.302 N 
ATOM     17  C   UNL     1      -5.037 -10.794  14.620  0.00  0.00    +0.234 C 
ATOM     36  H   UNL     1      -3.758 -11.971  15.757  0.00  0.00    +0.150 HD
ENDROOT
BRANCH  17  13
ATOM      2  O   UNL     1      -4.568 -13.311  18.099  0.00  0.00    -0.273 OA
ATOM      7  N   UNL     1      -5.650 -11.800  16.698  0.00  0.00    -0.288 N 
ATOM     12  C   UNL     1      -7.272  -9.387  16.423  0.00  0.00    +0.077 C 
ATOM     13  C   UNL     1      -6.168 -11.439  15.368  0.00  0.00    +0.164 C 
ATOM     14  C   UNL     1      -7.406 -10.541  15.425  0.00  0.00    +0.054 C 
ATOM     15  C   UNL     1      -6.840  -9.917  17.789  0.00  0.00    +0.041 C 
ATOM     16  C   UNL     1      -5.547 -10.713  17.679  0.00  0.00    +0.110 C 
ATOM     18  C   UNL     1      -5.122 -13.053  17.026  0.00  0.00    +0.242 C 
BRANCH  12   8
ATOM      4  O   UNL     1      -9.822 -10.384  17.371  0.00  0.00    -0.273 OA
ATOM      8  N   UNL     1      -8.511  -8.656  16.531  0.00  0.00    -0.310 N 
ATOM     20  C   UNL     1      -9.688  -9.221  16.999  0.00  0.00    +0.239 C 
ATOM     35  H   UNL     1      -8.500  -7.665  16.305  0.00  0.00    +0.149 HD
BRANCH  20  25
ATOM     25  C   UNL     1     -10.826  -8.223  17.004  0.00  0.00    +0.255 C 
BRANCH  25   5
ATOM      5  O   UNL     1     -10.809  -7.442  15.829  0.00  0.00    -0.374 OA
ATOM     34  C   UNL     1     -11.190  -6.093  16.081  0.00  0.00    +0.194 C 
ENDBRANCH  25   5
ENDBRANCH  20  25
ENDBRANCH  12   8
BRANCH  18  22
ATOM     22  C   UNL     1      -5.261 -14.143  15.992  0.00  0.00    +0.255 C 
BRANCH  22   3
ATOM      3  O   UNL     1      -4.025 -14.223  15.325  0.00  0.00    -0.374 OA
ATOM     31  C   UNL     1      -3.714 -15.558  14.931  0.00  0.00    +0.194 C 
ENDBRANCH  22   3
ENDBRANCH  18  22
ENDBRANCH  17  13
BRANCH   9  19
ATOM     19  C   UNL     1      -2.558 -10.865  14.407  0.00  0.00    +0.163 C 
BRANCH  19  24
ATOM      6  O   UNL     1      -0.720  -9.680  15.466  0.00  0.00    -0.274 OA
ATOM     11  N   UNL     1      -1.935 -11.172  16.721  0.00  0.00    -0.328 N 
ATOM     24  C   UNL     1      -1.625 -10.506  15.554  0.00  0.00    +0.231 C 
ATOM     38  H   UNL     1      -1.397 -11.014  17.568  0.00  0.00    +0.145 HD
ATOM     39  H   UNL     1      -2.700 -11.835  16.785  0.00  0.00    +0.145 HD
ENDBRANCH  19  24
BRANCH  19  21
ATOM     21  C   UNL     1      -1.925 -11.943  13.519  0.00  0.00    +0.069 C 
BRANCH  21  23
ATOM     10  N   UNL     1      -3.834 -13.245  10.659  0.00  0.00    -0.360 N 
ATOM     23  C   UNL     1      -2.704 -12.203  12.260  0.00  0.00    -0.020 A 
ATOM     26  C   UNL     1      -3.079 -11.240  11.281  0.00  0.00    +0.003 A 
ATOM     27  C   UNL     1      -3.182 -13.426  11.850  0.00  0.00    +0.087 A 
ATOM     28  C   UNL     1      -3.786 -11.920  10.288  0.00  0.00    +0.047 A 
ATOM     29  C   UNL     1      -2.884  -9.852  11.145  0.00  0.00    +0.010 A 
ATOM     30  C   UNL     1      -4.312 -11.278   9.161  0.00  0.00    +0.026 A 
ATOM     32  C   UNL     1      -3.403  -9.196  10.023  0.00  0.00    +0.001 A 
ATOM     33  C   UNL     1      -4.105  -9.901   9.047  0.00  0.00    +0.002 A 
ATOM     37  H   UNL     1      -4.284 -13.978  10.128  0.00  0.00    +0.165 HD
ENDBRANCH  21  23
ENDBRANCH  19  21
ENDBRANCH   9  19
TORSDOF 10
ENDMDL
MODEL 5
REMARK VINA RESULT:      -6.6     15.505     19.777
REMARK  Name = 7114631
REMARK  12 active torsions:
REMARK  status: ('A' for Active; 'I' for Inactive)
REMARK    1  A    between atoms: O_3  and  C_22
REMARK    2  A    between atoms: O_3  and  C_31
REMARK    3  A    between atoms: O_5  and  C_25
REMARK    4  A    between atoms: O_5  and  C_34
REMARK    5  A    between atoms: N_8  and  C_12
REMARK    6  A    between atoms: N_9  and  C_19
REMARK    7  A    between atoms: C_13  and  C_17
REMARK    8  A    between atoms: C_18  and  C_22
REMARK    9  A    between atoms: C_19  and  C_21
REMARK   10  A    between atoms: C_19  and  C_24
REMARK   11  A    between atoms: C_20  and  C_25
REMARK   12  A    between atoms: C_21  and  C_23
REMARK                            x       y       z     vdW  Elec       q    Type
REMARK                         _______ _______ _______ _____ _____    ______ ____
ROOT
ATOM      1  O   UNL     1      11.654   7.546   1.833  0.00  0.00    -0.274 OA
ATOM      9  N   UNL     1      12.654   5.715   2.865  0.00  0.00    -0.302 N 
ATOM     17  C   UNL     1      12.034   6.953   2.838  0.00  0.00    +0.234 C 
ATOM     36  H   UNL     1      12.982   5.346   3.752  0.00  0.00    +0.150 HD
ENDROOT
BRANCH  17  13
ATOM      2  O   UNL     1       9.939  10.628   3.711  0.00  0.00    -0.273 OA
ATOM      7  N   UNL     1      10.723   8.476   4.128  0.00  0.00    -0.288 N 
ATOM     12  C   UNL     1      10.214   5.810   5.207  0.00  0.00    +0.077 C 
ATOM     13  C   UNL     1      11.839   7.520   4.215  0.00  0.00    +0.164 C 
ATOM     14  C   UNL     1      11.616   6.425   5.261  0.00  0.00    +0.054 C 
ATOM     15  C   UNL     1       9.153   6.909   5.239  0.00  0.00    +0.041 C 
ATOM     16  C   UNL     1       9.371   7.907   4.110  0.00  0.00    +0.110 C 
ATOM     18  C   UNL     1      10.876   9.851   3.916  0.00  0.00    +0.242 C 
BRANCH  12   8
ATOM      4  O   UNL     1      10.294   6.391   8.044  0.00  0.00    -0.273 OA
ATOM      8  N   UNL     1      10.018   4.883   6.295  0.00  0.00    -0.310 N 
ATOM     20  C   UNL     1      10.075   5.256   7.630  0.00  0.00    +0.239 C 
ATOM     35  H   UNL     1       9.771   3.924   6.065  0.00  0.00    +0.149 HD
BRANCH  20  25
ATOM     25  C   UNL     1       9.831   4.080   8.551  0.00  0.00    +0.255 C 
BRANCH  25   5
ATOM      5  O   UNL     1       9.941   4.475   9.902  0.00  0.00    -0.374 OA
ATOM     34  C   UNL     1       8.666   4.619  10.519  0.00  0.00    +0.194 C 
ENDBRANCH  25   5
ENDBRANCH  20  25
ENDBRANCH  12   8
BRANCH  18  22
ATOM     22  C   UNL     1      12.283  10.393   3.956  0.00  0.00    +0.255 C 
BRANCH  22   3
ATOM      3  O   UNL     1      12.544  10.733   5.296  0.00  0.00    -0.374 OA
ATOM     31  C   UNL     1      12.810  12.125   5.453  0.00  0.00    +0.194 C 
ENDBRANCH  22   3
ENDBRANCH  18  22
ENDBRANCH  17  13
BRANCH   9  19
ATOM     19  C   UNL     1      12.935   4.947   1.673  0.00  0.00    +0.163 C 
BRANCH  19  24
ATOM      6  O   UNL     1      14.499   3.089   1.571  0.00  0.00    -0.274 OA
ATOM     11  N   UNL     1      15.219   5.085   2.451  0.00  0.00    -0.328 N 
ATOM     24  C   UNL     1      14.271   4.253   1.894  0.00  0.00    +0.231 C 
ATOM     38  H   UNL     1      16.159   4.751   2.639  0.00  0.00    +0.145 HD
ATOM     39  H   UNL     1      15.023   6.051   2.692  0.00  0.00    +0.145 HD
ENDBRANCH  19  24
BRANCH  19  21
ATOM     21  C   UNL     1      11.840   3.915   1.375  0.00  0.00    +0.069 C 
BRANCH  21  23
ATOM     10  N   UNL     1       9.594   5.043  -1.308  0.00  0.00    -0.360 N 
ATOM     23  C   UNL     1      11.083   4.209   0.110  0.00  0.00    -0.020 A 
ATOM     26  C   UNL     1      11.355   3.680  -1.183  0.00  0.00    +0.003 A 
ATOM     27  C   UNL     1       9.994   5.043   0.001  0.00  0.00    +0.087 A 
ATOM     28  C   UNL     1      10.406   4.219  -2.054  0.00  0.00    +0.047 A 
ATOM     29  C   UNL     1      12.320   2.792  -1.697  0.00  0.00    +0.010 A 
ATOM     30  C   UNL     1      10.375   3.914  -3.420  0.00  0.00    +0.026 A 
ATOM     32  C   UNL     1      12.301   2.477  -3.060  0.00  0.00    +0.001 A 
ATOM     33  C   UNL     1      11.342   3.030  -3.907  0.00  0.00    +0.002 A 
ATOM     37  H   UNL     1       8.814   5.571  -1.676  0.00  0.00    +0.165 HD
ENDBRANCH  21  23
ENDBRANCH  19  21
ENDBRANCH   9  19
TORSDOF 10
ENDMDL
MODEL 6
REMARK VINA RESULT:      -6.5     14.552     17.616
REMARK  Name = 7114631
REMARK  12 active torsions:
REMARK  status: ('A' for Active; 'I' for Inactive)
REMARK    1  A    between atoms: O_3  and  C_22
REMARK    2  A    between atoms: O_3  and  C_31
REMARK    3  A    between atoms: O_5  and  C_25
REMARK    4  A    between atoms: O_5  and  C_34
REMARK    5  A    between atoms: N_8  and  C_12
REMARK    6  A    between atoms: N_9  and  C_19
REMARK    7  A    between atoms: C_13  and  C_17
REMARK    8  A    between atoms: C_18  and  C_22
REMARK    9  A    between atoms: C_19  and  C_21
REMARK   10  A    between atoms: C_19  and  C_24
REMARK   11  A    between atoms: C_20  and  C_25
REMARK   12  A    between atoms: C_21  and  C_23
REMARK                            x       y       z     vdW  Elec       q    Type
REMARK                         _______ _______ _______ _____ _____    ______ ____
ROOT
ATOM      1  O   UNL     1       9.400   4.703   4.864  0.00  0.00    -0.274 OA
ATOM      9  N   UNL     1      10.409   6.123   6.407  0.00  0.00    -0.302 N 
ATOM     17  C   UNL     1      10.293   5.481   5.187  0.00  0.00    +0.234 C 
ATOM     36  H   UNL     1      11.226   6.699   6.586  0.00  0.00    +0.150 HD
ENDROOT
BRANCH  17  13
ATOM      2  O   UNL     1       9.906   5.607   0.886  0.00  0.00    -0.273 OA
ATOM      7  N   UNL     1      10.756   6.222   2.964  0.00  0.00    -0.288 N 
ATOM     12  C   UNL     1      11.636   8.352   4.758  0.00  0.00    +0.077 C 
ATOM     13  C   UNL     1      11.395   5.858   4.239  0.00  0.00    +0.164 C 
ATOM     14  C   UNL     1      12.286   6.966   4.806  0.00  0.00    +0.054 C 
ATOM     15  C   UNL     1      11.119   8.646   3.351  0.00  0.00    +0.041 C 
ATOM     16  C   UNL     1      10.157   7.560   2.888  0.00  0.00    +0.110 C 
ATOM     18  C   UNL     1      10.559   5.337   1.899  0.00  0.00    +0.242 C 
BRANCH  12   8
ATOM      4  O   UNL     1      12.966   8.557   7.324  0.00  0.00    -0.273 OA
ATOM      8  N   UNL     1      12.566   9.370   5.181  0.00  0.00    -0.310 N 
ATOM     20  C   UNL     1      13.156   9.386   6.437  0.00  0.00    +0.239 C 
ATOM     35  H   UNL     1      12.841  10.076   4.502  0.00  0.00    +0.149 HD
BRANCH  20  25
ATOM     25  C   UNL     1      14.087  10.567   6.604  0.00  0.00    +0.255 C 
BRANCH  25   5
ATOM      5  O   UNL     1      15.075  10.569   5.596  0.00  0.00    -0.374 OA
ATOM     34  C   UNL     1      16.214   9.798   5.966  0.00  0.00    +0.194 C 
ENDBRANCH  25   5
ENDBRANCH  20  25
ENDBRANCH  12   8
BRANCH  18  22
ATOM     22  C   UNL     1      11.203   3.978   2.015  0.00  0.00    +0.255 C 
BRANCH  22   3
ATOM      3  O   UNL     1      12.230   3.938   1.054  0.00  0.00    -0.374 OA
ATOM     31  C   UNL     1      13.397   3.280   1.545  0.00  0.00    +0.194 C 
ENDBRANCH  22   3
ENDBRANCH  18  22
ENDBRANCH  17  13
BRANCH   9  19
ATOM     19  C   UNL     1       9.462   5.949   7.485  0.00  0.00    +0.163 C 
BRANCH  19  24
ATOM      6  O   UNL     1      10.473   5.336   9.608  0.00  0.00    -0.274 OA
ATOM     11  N   UNL     1      10.157   3.699   8.027  0.00  0.00    -0.328 N 
ATOM     24  C   UNL     1      10.096   4.997   8.489  0.00  0.00    +0.231 C 
ATOM     38  H   UNL     1      10.546   2.960   8.604  0.00  0.00    +0.145 HD
ATOM     39  H   UNL     1       9.820   3.429   7.109  0.00  0.00    +0.145 HD
ENDBRANCH  19  24
BRANCH  19  21
ATOM     21  C   UNL     1       9.101   7.277   8.161  0.00  0.00    +0.069 C 
BRANCH  21  23
ATOM     10  N   UNL     1       8.166   9.537   5.417  0.00  0.00    -0.360 N 
ATOM     23  C   UNL     1       8.875   8.395   7.183  0.00  0.00    -0.020 A 
ATOM     26  C   UNL     1       9.390   9.718   7.273  0.00  0.00    +0.003 A 
ATOM     27  C   UNL     1       8.127   8.313   6.031  0.00  0.00    +0.087 A 
ATOM     28  C   UNL     1       8.931  10.414   6.152  0.00  0.00    +0.047 A 
ATOM     29  C   UNL     1      10.205  10.393   8.203  0.00  0.00    +0.010 A 
ATOM     30  C   UNL     1       9.247  11.756   5.915  0.00  0.00    +0.026 A 
ATOM     32  C   UNL     1      10.530  11.735   7.979  0.00  0.00    +0.001 A 
ATOM     33  C   UNL     1      10.057  12.405   6.851  0.00  0.00    +0.002 A 
ATOM     37  H   UNL     1       7.702   9.764   4.548  0.00  0.00    +0.165 HD
ENDBRANCH  21  23
ENDBRANCH  19  21
ENDBRANCH   9  19
TORSDOF 10
ENDMDL
MODEL 7
REMARK VINA RESULT:      -6.4      2.691      6.824
REMARK  Name = 7114631
REMARK  12 active torsions:
REMARK  status: ('A' for Active; 'I' for Inactive)
REMARK    1  A    between atoms: O_3  and  C_22
REMARK    2  A    between atoms: O_3  and  C_31
REMARK    3  A    between atoms: O_5  and  C_25
REMARK    4  A    between atoms: O_5  and  C_34
REMARK    5  A    between atoms: N_8  and  C_12
REMARK    6  A    between atoms: N_9  and  C_19
REMARK    7  A    between atoms: C_13  and  C_17
REMARK    8  A    between atoms: C_18  and  C_22
REMARK    9  A    between atoms: C_19  and  C_21
REMARK   10  A    between atoms: C_19  and  C_24
REMARK   11  A    between atoms: C_20  and  C_25
REMARK   12  A    between atoms: C_21  and  C_23
REMARK                            x       y       z     vdW  Elec       q    Type
REMARK                         _______ _______ _______ _____ _____    ______ ____
ROOT
ATOM      1  O   UNL     1      14.332   9.694  20.422  0.00  0.00    -0.274 OA
ATOM      9  N   UNL     1      14.926   9.660  22.672  0.00  0.00    -0.302 N 
ATOM     17  C   UNL     1      14.583   9.088  21.460  0.00  0.00    +0.234 C 
ATOM     36  H   UNL     1      15.053   9.062  23.483  0.00  0.00    +0.150 HD
ENDROOT
BRANCH  17  13
ATOM      2  O   UNL     1      12.016   6.549  19.088  0.00  0.00    -0.273 OA
ATOM      7  N   UNL     1      13.932   7.114  20.284  0.00  0.00    -0.288 N 
ATOM     12  C   UNL     1      16.844   7.044  20.490  0.00  0.00    +0.077 C 
ATOM     13  C   UNL     1      14.568   7.588  21.524  0.00  0.00    +0.164 C 
ATOM     14  C   UNL     1      15.967   7.007  21.745  0.00  0.00    +0.054 C 
ATOM     15  C   UNL     1      16.104   6.418  19.309  0.00  0.00    +0.041 C 
ATOM     16  C   UNL     1      14.768   7.109  19.077  0.00  0.00    +0.110 C 
ATOM     18  C   UNL     1      12.570   6.817  20.158  0.00  0.00    +0.242 C 
BRANCH  12   8
ATOM      4  O   UNL     1      19.239   8.150  21.687  0.00  0.00    -0.273 OA
ATOM      8  N   UNL     1      18.098   6.368  20.720  0.00  0.00    -0.310 N 
ATOM     20  C   UNL     1      19.196   6.983  21.303  0.00  0.00    +0.239 C 
ATOM     35  H   UNL     1      18.154   5.378  20.494  0.00  0.00    +0.149 HD
BRANCH  20  25
ATOM     25  C   UNL     1      20.371   6.037  21.422  0.00  0.00    +0.255 C 
BRANCH  25   5
ATOM      5  O   UNL     1      21.177   6.097  20.264  0.00  0.00    -0.374 OA
ATOM     34  C   UNL     1      22.375   6.835  20.488  0.00  0.00    +0.194 C 
ENDBRANCH  25   5
ENDBRANCH  20  25
ENDBRANCH  12   8
BRANCH  18  22
ATOM     22  C   UNL     1      11.753   6.822  21.426  0.00  0.00    +0.255 C 
BRANCH  22   3
ATOM      3  O   UNL     1      10.874   7.916  21.333  0.00  0.00    -0.374 OA
ATOM     31  C   UNL     1      10.946   8.761  22.480  0.00  0.00    +0.194 C 
ENDBRANCH  22   3
ENDBRANCH  18  22
ENDBRANCH  17  13
BRANCH   9  19
ATOM     19  C   UNL     1      15.035  11.088  22.869  0.00  0.00    +0.163 C 
BRANCH  19  24
ATOM      6  O   UNL     1      13.344  11.560  24.550  0.00  0.00    -0.274 OA
ATOM     11  N   UNL     1      15.538  11.390  25.213  0.00  0.00    -0.328 N 
ATOM     24  C   UNL     1      14.529  11.386  24.273  0.00  0.00    +0.231 C 
ATOM     38  H   UNL     1      15.334  11.563  26.193  0.00  0.00    +0.145 HD
ATOM     39  H   UNL     1      16.509  11.222  24.973  0.00  0.00    +0.145 HD
ENDBRANCH  19  24
BRANCH  19  21
ATOM     21  C   UNL     1      16.475  11.589  22.701  0.00  0.00    +0.069 C 
BRANCH  21  23
ATOM     10  N   UNL     1      16.460  13.205  19.400  0.00  0.00    -0.360 N 
ATOM     23  C   UNL     1      16.744  12.167  21.341  0.00  0.00    -0.020 A 
ATOM     26  C   UNL     1      17.972  12.115  20.625  0.00  0.00    +0.003 A 
ATOM     27  C   UNL     1      15.833  12.843  20.562  0.00  0.00    +0.087 A 
ATOM     28  C   UNL     1      17.767  12.774  19.410  0.00  0.00    +0.047 A 
ATOM     29  C   UNL     1      19.243  11.570  20.894  0.00  0.00    +0.010 A 
ATOM     30  C   UNL     1      18.774  12.915  18.449  0.00  0.00    +0.026 A 
ATOM     32  C   UNL     1      20.260  11.703  19.942  0.00  0.00    +0.001 A 
ATOM     33  C   UNL     1      20.026  12.366  18.738  0.00  0.00    +0.002 A 
ATOM     37  H   UNL     1      16.027  13.715  18.642  0.00  0.00    +0.165 HD
ENDBRANCH  21  23
ENDBRANCH  19  21
ENDBRANCH   9  19
TORSDOF 10
ENDMDL
MODEL 8
REMARK VINA RESULT:      -6.4     14.172     18.526
REMARK  Name = 7114631
REMARK  12 active torsions:
REMARK  status: ('A' for Active; 'I' for Inactive)
REMARK    1  A    between atoms: O_3  and  C_22
REMARK    2  A    between atoms: O_3  and  C_31
REMARK    3  A    between atoms: O_5  and  C_25
REMARK    4  A    between atoms: O_5  and  C_34
REMARK    5  A    between atoms: N_8  and  C_12
REMARK    6  A    between atoms: N_9  and  C_19
REMARK    7  A    between atoms: C_13  and  C_17
REMARK    8  A    between atoms: C_18  and  C_22
REMARK    9  A    between atoms: C_19  and  C_21
REMARK   10  A    between atoms: C_19  and  C_24
REMARK   11  A    between atoms: C_20  and  C_25
REMARK   12  A    between atoms: C_21  and  C_23
REMARK                            x       y       z     vdW  Elec       q    Type
REMARK                         _______ _______ _______ _____ _____    ______ ____
ROOT
ATOM      1  O   UNL     1      12.987   8.717   3.249  0.00  0.00    -0.274 OA
ATOM      9  N   UNL     1      12.822   6.427   3.626  0.00  0.00    -0.302 N 
ATOM     17  C   UNL     1      13.077   7.739   3.985  0.00  0.00    +0.234 C 
ATOM     36  H   UNL     1      12.990   5.689   4.303  0.00  0.00    +0.150 HD
ENDROOT
BRANCH  17  13
ATOM      2  O   UNL     1      13.633  11.487   6.060  0.00  0.00    -0.273 OA
ATOM      7  N   UNL     1      13.104   9.230   5.851  0.00  0.00    -0.288 N 
ATOM     12  C   UNL     1      11.349   7.010   6.575  0.00  0.00    +0.077 C 
ATOM     13  C   UNL     1      13.470   7.868   5.429  0.00  0.00    +0.164 C 
ATOM     14  C   UNL     1      12.837   6.777   6.295  0.00  0.00    +0.054 C 
ATOM     15  C   UNL     1      11.128   8.422   7.115  0.00  0.00    +0.041 C 
ATOM     16  C   UNL     1      11.688   9.464   6.157  0.00  0.00    +0.110 C 
ATOM     18  C   UNL     1      13.977  10.323   5.833  0.00  0.00    +0.242 C 
BRANCH  12   8
ATOM      4  O   UNL     1       9.803   4.644   5.944  0.00  0.00    -0.273 OA
ATOM      8  N   UNL     1      10.840   6.027   7.500  0.00  0.00    -0.310 N 
ATOM     20  C   UNL     1      10.105   4.920   7.102  0.00  0.00    +0.239 C 
ATOM     35  H   UNL     1      11.083   6.126   8.482  0.00  0.00    +0.149 HD
BRANCH  20  25
ATOM     25  C   UNL     1       9.703   4.061   8.281  0.00  0.00    +0.255 C 
BRANCH  25   5
ATOM      5  O   UNL     1       9.994   4.716   9.497  0.00  0.00    -0.374 OA
ATOM     34  C   UNL     1       8.902   4.651  10.410  0.00  0.00    +0.194 C 
ENDBRANCH  25   5
ENDBRANCH  20  25
ENDBRANCH  12   8
BRANCH  18  22
ATOM     22  C   UNL     1      15.425  10.033   5.526  0.00  0.00    +0.255 C 
BRANCH  22   3
ATOM      3  O   UNL     1      15.657  10.489   4.216  0.00  0.00    -0.374 OA
ATOM     31  C   UNL     1      16.451   9.575   3.463  0.00  0.00    +0.194 C 
ENDBRANCH  22   3
ENDBRANCH  18  22
ENDBRANCH  17  13
BRANCH   9  19
ATOM     19  C   UNL     1      12.404   6.038   2.298  0.00  0.00    +0.163 C 
BRANCH  19  24
ATOM      6  O   UNL     1      14.394   4.950   1.423  0.00  0.00    -0.274 OA
ATOM     11  N   UNL     1      12.652   3.639   2.147  0.00  0.00    -0.328 N 
ATOM     24  C   UNL     1      13.262   4.849   1.890  0.00  0.00    +0.231 C 
ATOM     38  H   UNL     1      13.122   2.765   1.934  0.00  0.00    +0.145 HD
ATOM     39  H   UNL     1      11.726   3.570   2.554  0.00  0.00    +0.145 HD
ENDBRANCH  19  24
BRANCH  19  21
ATOM     21  C   UNL     1      10.916   5.669   2.242  0.00  0.00    +0.069 C 
BRANCH  21  23
ATOM     10  N   UNL     1       9.064   8.394   0.613  0.00  0.00    -0.360 N 
ATOM     23  C   UNL     1      10.039   6.819   1.835  0.00  0.00    -0.020 A 
ATOM     26  C   UNL     1       9.131   7.530   2.668  0.00  0.00    +0.003 A 
ATOM     27  C   UNL     1       9.976   7.374   0.577  0.00  0.00    +0.087 A 
ATOM     28  C   UNL     1       8.532   8.513   1.878  0.00  0.00    +0.047 A 
ATOM     29  C   UNL     1       8.759   7.431   4.024  0.00  0.00    +0.010 A 
ATOM     30  C   UNL     1       7.576   9.405   2.376  0.00  0.00    +0.026 A 
ATOM     32  C   UNL     1       7.805   8.316   4.537  0.00  0.00    +0.001 A 
ATOM     33  C   UNL     1       7.224   9.287   3.723  0.00  0.00    +0.002 A 
ATOM     37  H   UNL     1       8.817   8.979  -0.174  0.00  0.00    +0.165 HD
ENDBRANCH  21  23
ENDBRANCH  19  21
ENDBRANCH   9  19
TORSDOF 10
ENDMDL
MODEL 9
REMARK VINA RESULT:      -6.3     15.516     19.731
REMARK  Name = 7114631
REMARK  12 active torsions:
REMARK  status: ('A' for Active; 'I' for Inactive)
REMARK    1  A    between atoms: O_3  and  C_22
REMARK    2  A    between atoms: O_3  and  C_31
REMARK    3  A    between atoms: O_5  and  C_25
REMARK    4  A    between atoms: O_5  and  C_34
REMARK    5  A    between atoms: N_8  and  C_12
REMARK    6  A    between atoms: N_9  and  C_19
REMARK    7  A    between atoms: C_13  and  C_17
REMARK    8  A    between atoms: C_18  and  C_22
REMARK    9  A    between atoms: C_19  and  C_21
REMARK   10  A    between atoms: C_19  and  C_24
REMARK   11  A    between atoms: C_20  and  C_25
REMARK   12  A    between atoms: C_21  and  C_23
REMARK                            x       y       z     vdW  Elec       q    Type
REMARK                         _______ _______ _______ _____ _____    ______ ____
ROOT
ATOM      1  O   UNL     1      15.508   7.765   2.048  0.00  0.00    -0.274 OA
ATOM      9  N   UNL     1      14.566   5.839   2.954  0.00  0.00    -0.302 N 
ATOM     17  C   UNL     1      15.246   7.044   3.006  0.00  0.00    +0.234 C 
ATOM     36  H   UNL     1      14.460   5.295   3.804  0.00  0.00    +0.150 HD
ENDROOT
BRANCH  17  13
ATOM      2  O   UNL     1      17.496  10.571   4.081  0.00  0.00    -0.273 OA
ATOM      7  N   UNL     1      15.955   8.854   4.393  0.00  0.00    -0.288 N 
ATOM     12  C   UNL     1      13.344   8.007   5.390  0.00  0.00    +0.077 C 
ATOM     13  C   UNL     1      15.632   7.418   4.408  0.00  0.00    +0.164 C 
ATOM     14  C   UNL     1      14.543   7.055   5.420  0.00  0.00    +0.054 C 
ATOM     15  C   UNL     1      13.817   9.456   5.497  0.00  0.00    +0.041 C 
ATOM     16  C   UNL     1      14.819   9.783   4.399  0.00  0.00    +0.110 C 
ATOM     18  C   UNL     1      17.245   9.371   4.227  0.00  0.00    +0.242 C 
BRANCH  12   8
ATOM      4  O   UNL     1      11.301   5.953   5.384  0.00  0.00    -0.273 OA
ATOM      8  N   UNL     1      12.415   7.696   6.449  0.00  0.00    -0.310 N 
ATOM     20  C   UNL     1      11.466   6.688   6.354  0.00  0.00    +0.239 C 
ATOM     35  H   UNL     1      12.502   8.206   7.324  0.00  0.00    +0.149 HD
BRANCH  20  25
ATOM     25  C   UNL     1      10.630   6.586   7.611  0.00  0.00    +0.255 C 
BRANCH  25   5
ATOM      5  O   UNL     1      10.942   5.408   8.323  0.00  0.00    -0.374 OA
ATOM     34  C   UNL     1       9.802   4.571   8.492  0.00  0.00    +0.194 C 
ENDBRANCH  25   5
ENDBRANCH  20  25
ENDBRANCH  12   8
BRANCH  18  22
ATOM     22  C   UNL     1      18.383   8.381   4.240  0.00  0.00    +0.255 C 
BRANCH  22   3
ATOM      3  O   UNL     1      19.492   9.052   4.785  0.00  0.00    -0.374 OA
ATOM     31  C   UNL     1      20.181   8.256   5.747  0.00  0.00    +0.194 C 
ENDBRANCH  22   3
ENDBRANCH  18  22
ENDBRANCH  17  13
BRANCH   9  19
ATOM     19  C   UNL     1      14.065   5.268   1.724  0.00  0.00    +0.163 C 
BRANCH  19  24
ATOM      6  O   UNL     1      15.618   4.303   0.123  0.00  0.00    -0.274 OA
ATOM     11  N   UNL     1      15.449   3.346   2.205  0.00  0.00    -0.328 N 
ATOM     24  C   UNL     1      15.105   4.268   1.239  0.00  0.00    +0.231 C 
ATOM     38  H   UNL     1      16.142   2.630   2.016  0.00  0.00    +0.145 HD
ATOM     39  H   UNL     1      15.033   3.344   3.131  0.00  0.00    +0.145 HD
ENDBRANCH  19  24
BRANCH  19  21
ATOM     21  C   UNL     1      12.708   4.579   1.915  0.00  0.00    +0.069 C 
BRANCH  21  23
ATOM     10  N   UNL     1      10.150   5.606  -0.518  0.00  0.00    -0.360 N 
ATOM     23  C   UNL     1      11.772   4.790   0.758  0.00  0.00    -0.020 A 
ATOM     26  C   UNL     1      11.750   4.053  -0.460  0.00  0.00    +0.003 A 
ATOM     27  C   UNL     1      10.777   5.737   0.693  0.00  0.00    +0.087 A 
ATOM     28  C   UNL     1      10.724   4.586  -1.242  0.00  0.00    +0.047 A 
ATOM     29  C   UNL     1      12.508   2.982  -0.973  0.00  0.00    +0.010 A 
ATOM     30  C   UNL     1      10.416   4.099  -2.518  0.00  0.00    +0.026 A 
ATOM     32  C   UNL     1      12.212   2.485  -2.247  0.00  0.00    +0.001 A 
ATOM     33  C   UNL     1      11.181   3.036  -3.006  0.00  0.00    +0.002 A 
ATOM     37  H   UNL     1       9.377   6.175  -0.835  0.00  0.00    +0.165 HD
ENDBRANCH  21  23
ENDBRANCH  19  21
ENDBRANCH   9  19
TORSDOF 10
ENDMDL
MODEL 10
REMARK VINA RESULT:      -6.3     14.792     19.029
REMARK  Name = 7114631
REMARK  12 active torsions:
REMARK  status: ('A' for Active; 'I' for Inactive)
REMARK    1  A    between atoms: O_3  and  C_22
REMARK    2  A    between atoms: O_3  and  C_31
REMARK    3  A    between atoms: O_5  and  C_25
REMARK    4  A    between atoms: O_5  and  C_34
REMARK    5  A    between atoms: N_8  and  C_12
REMARK    6  A    between atoms: N_9  and  C_19
REMARK    7  A    between atoms: C_13  and  C_17
REMARK    8  A    between atoms: C_18  and  C_22
REMARK    9  A    between atoms: C_19  and  C_21
REMARK   10  A    between atoms: C_19  and  C_24
REMARK   11  A    between atoms: C_20  and  C_25
REMARK   12  A    between atoms: C_21  and  C_23
REMARK                            x       y       z     vdW  Elec       q    Type
REMARK                         _______ _______ _______ _____ _____    ______ ____
ROOT
ATOM      1  O   UNL     1      11.835   8.536   5.593  0.00  0.00    -0.274 OA
ATOM      9  N   UNL     1      13.292   6.891   4.825  0.00  0.00    -0.302 N 
ATOM     17  C   UNL     1      12.067   7.382   5.246  0.00  0.00    +0.234 C 
ATOM     36  H   UNL     1      13.382   5.901   4.619  0.00  0.00    +0.150 HD
ENDROOT
BRANCH  17  13
ATOM      2  O   UNL     1       8.466   7.472   7.629  0.00  0.00    -0.273 OA
ATOM      7  N   UNL     1       9.782   6.944   5.783  0.00  0.00    -0.288 N 
ATOM     12  C   UNL     1      10.018   6.720   2.881  0.00  0.00    +0.077 C 
ATOM     13  C   UNL     1      10.994   6.332   5.214  0.00  0.00    +0.164 C 
ATOM     14  C   UNL     1      10.782   5.769   3.807  0.00  0.00    +0.054 C 
ATOM     15  C   UNL     1       8.727   7.188   3.551  0.00  0.00    +0.041 C 
ATOM     16  C   UNL     1       9.018   7.832   4.899  0.00  0.00    +0.110 C 
ATOM     18  C   UNL     1       9.407   6.850   7.128  0.00  0.00    +0.242 C 
BRANCH  12   8
ATOM      4  O   UNL     1      11.031   7.477   0.274  0.00  0.00    -0.273 OA
ATOM      8  N   UNL     1       9.734   6.088   1.616  0.00  0.00    -0.310 N 
ATOM     20  C   UNL     1      10.269   6.524   0.412  0.00  0.00    +0.239 C 
ATOM     35  H   UNL     1       9.160   5.249   1.621  0.00  0.00    +0.149 HD
BRANCH  20  25
ATOM     25  C   UNL     1       9.801   5.674  -0.750  0.00  0.00    +0.255 C 
BRANCH  25   5
ATOM      5  O   UNL     1      10.363   4.381  -0.680  0.00  0.00    -0.374 OA
ATOM     34  C   UNL     1      10.729   3.890  -1.965  0.00  0.00    +0.194 C 
ENDBRANCH  25   5
ENDBRANCH  20  25
ENDBRANCH  12   8
BRANCH  18  22
ATOM     22  C   UNL     1      10.213   5.916   7.995  0.00  0.00    +0.255 C 
BRANCH  22   3
ATOM      3  O   UNL     1       9.368   4.838   8.317  0.00  0.00    -0.374 OA
ATOM     31  C   UNL     1       9.248   4.654   9.726  0.00  0.00    +0.194 C 
ENDBRANCH  22   3
ENDBRANCH  18  22
ENDBRANCH  17  13
BRANCH   9  19
ATOM     19  C   UNL     1      14.482   7.706   4.742  0.00  0.00    +0.163 C 
BRANCH  19  24
ATOM      6  O   UNL     1      15.851   8.643   6.518  0.00  0.00    -0.274 OA
ATOM     11  N   UNL     1      14.646   6.734   6.948  0.00  0.00    -0.328 N 
ATOM     24  C   UNL     1      15.087   7.759   6.137  0.00  0.00    +0.231 C 
ATOM     38  H   UNL     1      14.963   6.660   7.910  0.00  0.00    +0.145 HD
ATOM     39  H   UNL     1      13.997   6.024   6.627  0.00  0.00    +0.145 HD
ENDBRANCH  19  24
BRANCH  19  21
ATOM     21  C   UNL     1      15.499   7.148   3.738  0.00  0.00    +0.069 C 
BRANCH  21  23
ATOM     10  N   UNL     1      14.149   7.567   0.346  0.00  0.00    -0.360 N 
ATOM     23  C   UNL     1      14.950   7.032   2.345  0.00  0.00    -0.020 A 
ATOM     26  C   UNL     1      14.688   5.828   1.634  0.00  0.00    +0.003 A 
ATOM     27  C   UNL     1      14.608   8.085   1.527  0.00  0.00    +0.087 A 
ATOM     28  C   UNL     1      14.186   6.192   0.382  0.00  0.00    +0.047 A 
ATOM     29  C   UNL     1      14.830   4.459   1.935  0.00  0.00    +0.010 A 
ATOM     30  C   UNL     1      13.818   5.251  -0.587  0.00  0.00    +0.026 A 
ATOM     32  C   UNL     1      14.466   3.507   0.977  0.00  0.00    +0.001 A 
ATOM     33  C   UNL     1      13.968   3.899  -0.265  0.00  0.00    +0.002 A 
ATOM     37  H   UNL     1      13.827   8.115  -0.441  0.00  0.00    +0.165 HD
ENDBRANCH  21  23
ENDBRANCH  19  21
ENDBRANCH   9  19
TORSDOF 10
ENDMDL
