MODEL 1
REMARK VINA RESULT:      -7.4      0.000      0.000
REMARK  Name = 40777141
REMARK  6 active torsions:
REMARK  status: ('A' for Active; 'I' for Inactive)
REMARK    1  A    between atoms: N_4  and  C_15
REMARK    2  A    between atoms: N_6  and  C_18
REMARK    3  A    between atoms: C_9  and  C_16
REMARK    4  A    between atoms: C_10  and  C_15
REMARK    5  A    between atoms: C_20  and  C_27
REMARK    6  A    between atoms: C_23  and  C_28
REMARK                            x       y       z     vdW  Elec       q    Type
REMARK                         _______ _______ _______ _____ _____    ______ ____
ROOT
ATOM      3  N   UNL     1      -2.255 -16.714  13.927  0.00  0.00    -0.297 NA
ATOM      8  C   UNL     1      -2.237 -15.199  11.808  0.00  0.00    +0.002 C 
ATOM      9  C   UNL     1      -1.556 -14.474  13.001  0.00  0.00    +0.055 C 
ATOM     10  C   UNL     1      -3.618 -16.651  13.336  0.00  0.00    +0.074 C 
ATOM     11  C   UNL     1      -3.674 -15.599  12.207  0.00  0.00    +0.024 C 
ATOM     12  C   UNL     1      -1.451 -16.507  11.576  0.00  0.00    +0.019 C 
ATOM     13  C   UNL     1      -1.785 -15.347  14.268  0.00  0.00    +0.094 C 
ATOM     14  C   UNL     1      -1.341 -17.277  12.904  0.00  0.00    +0.085 C 
ENDROOT
BRANCH   9  16
ATOM      5  N   UNL     1      -1.446 -12.460  14.387  0.00  0.00    -0.237 NA
ATOM      7  N   UNL     1      -2.479 -10.387  13.723  0.00  0.00    -0.232 NA
ATOM     16  C   UNL     1      -1.898 -13.009  13.240  0.00  0.00    +0.050 A 
ATOM     17  C   UNL     1      -2.636 -12.320  12.299  0.00  0.00    +0.052 A 
ATOM     20  C   UNL     1      -2.899 -11.000  12.597  0.00  0.00    +0.076 A 
ATOM     23  C   UNL     1      -1.768 -11.164  14.562  0.00  0.00    +0.127 A 
ATOM     28  C   UNL     1      -1.288 -10.524  15.820  0.00  0.00    +0.088 C 
BRANCH  20  27
ATOM      1 BR   UNL     1      -5.898 -10.388  13.527  0.00  0.00    -0.050 Br
ATOM     27  C   UNL     1      -3.664 -10.170  11.696  0.00  0.00    +0.014 A 
ATOM     29  C   UNL     1      -4.986  -9.814  11.960  0.00  0.00    +0.027 A 
ATOM     30  C   UNL     1      -3.041  -9.722  10.532  0.00  0.00    +0.011 A 
ATOM     31  C   UNL     1      -5.685  -9.010  11.060  0.00  0.00    +0.016 A 
ATOM     32  C   UNL     1      -3.739  -8.918   9.631  0.00  0.00    +0.001 A 
ATOM     33  C   UNL     1      -5.062  -8.562   9.895  0.00  0.00    +0.001 A 
ENDBRANCH  20  27
ENDBRANCH   9  16
BRANCH  10  15
ATOM     15  C   UNL     1      -4.700 -16.413  14.391  0.00  0.00    +0.124 C 
BRANCH  15   4
ATOM      2  O   UNL     1      -5.068 -15.631  17.133  0.00  0.00    -0.253 OA
ATOM      4  N   UNL     1      -4.613 -15.087  14.922  0.00  0.00    -0.298 N 
ATOM      6  N   UNL     1      -4.667 -13.425  16.526  0.00  0.00    -0.297 N 
ATOM     19  C   UNL     1      -4.807 -14.787  16.275  0.00  0.00    +0.300 C 
ATOM     34  H   UNL     1      -4.406 -14.324  14.285  0.00  0.00    +0.150 HD
ATOM     35  H   UNL     1      -4.525 -12.808  15.733  0.00  0.00    +0.151 HD
BRANCH   6  18
ATOM     18  C   UNL     1      -4.817 -12.843  17.842  0.00  0.00    +0.074 C 
ATOM     21  C   UNL     1      -4.066 -11.511  17.944  0.00  0.00    +0.022 C 
ATOM     22  C   UNL     1      -6.296 -12.677  18.206  0.00  0.00    +0.022 C 
ATOM     24  C   UNL     1      -4.746 -10.396  17.150  0.00  0.00    +0.002 C 
ATOM     25  C   UNL     1      -6.971 -11.558  17.412  0.00  0.00    +0.002 C 
ATOM     26  C   UNL     1      -6.213 -10.241  17.538  0.00  0.00    +0.000 C 
ENDBRANCH   6  18
ENDBRANCH  15   4
ENDBRANCH  10  15
TORSDOF 5
ENDMDL
MODEL 2
REMARK VINA RESULT:      -7.3      2.314      5.666
REMARK  Name = 40777141
REMARK  6 active torsions:
REMARK  status: ('A' for Active; 'I' for Inactive)
REMARK    1  A    between atoms: N_4  and  C_15
REMARK    2  A    between atoms: N_6  and  C_18
REMARK    3  A    between atoms: C_9  and  C_16
REMARK    4  A    between atoms: C_10  and  C_15
REMARK    5  A    between atoms: C_20  and  C_27
REMARK    6  A    between atoms: C_23  and  C_28
REMARK                            x       y       z     vdW  Elec       q    Type
REMARK                         _______ _______ _______ _____ _____    ______ ____
ROOT
ATOM      3  N   UNL     1      -5.558 -10.852   9.560  0.00  0.00    -0.297 NA
ATOM      8  C   UNL     1      -3.867  -9.245  10.719  0.00  0.00    +0.002 C 
ATOM      9  C   UNL     1      -3.335 -10.705  10.743  0.00  0.00    +0.055 C 
ATOM     10  C   UNL     1      -6.264 -10.006  10.557  0.00  0.00    +0.074 C 
ATOM     11  C   UNL     1      -5.252  -9.196  11.398  0.00  0.00    +0.024 C 
ATOM     12  C   UNL     1      -4.076  -8.873   9.235  0.00  0.00    +0.019 C 
ATOM     13  C   UNL     1      -4.477 -11.624  10.222  0.00  0.00    +0.094 C 
ATOM     14  C   UNL     1      -4.938  -9.953   8.557  0.00  0.00    +0.085 C 
ENDROOT
BRANCH   9  16
ATOM      5  N   UNL     1      -2.326 -10.297  12.934  0.00  0.00    -0.237 NA
ATOM      7  N   UNL     1      -1.610 -12.093  14.372  0.00  0.00    -0.232 NA
ATOM     16  C   UNL     1      -2.720 -11.223  12.036  0.00  0.00    +0.050 A 
ATOM     17  C   UNL     1      -2.594 -12.584  12.232  0.00  0.00    +0.052 A 
ATOM     20  C   UNL     1      -2.026 -12.964  13.430  0.00  0.00    +0.076 A 
ATOM     23  C   UNL     1      -1.787 -10.794  14.064  0.00  0.00    +0.127 A 
ATOM     28  C   UNL     1      -1.337  -9.800  15.080  0.00  0.00    +0.088 C 
BRANCH  20  27
ATOM      1 BR   UNL     1      -4.421 -14.316  15.064  0.00  0.00    -0.050 Br
ATOM     27  C   UNL     1      -1.836 -14.358  13.756  0.00  0.00    +0.014 A 
ATOM     29  C   UNL     1      -2.790 -15.088  14.465  0.00  0.00    +0.027 A 
ATOM     30  C   UNL     1      -0.656 -14.972  13.339  0.00  0.00    +0.011 A 
ATOM     31  C   UNL     1      -2.563 -16.433  14.756  0.00  0.00    +0.016 A 
ATOM     32  C   UNL     1      -0.429 -16.317  13.630  0.00  0.00    +0.001 A 
ATOM     33  C   UNL     1      -1.382 -17.048  14.339  0.00  0.00    +0.001 A 
ENDBRANCH  20  27
ENDBRANCH   9  16
BRANCH  10  15
ATOM     15  C   UNL     1      -7.219 -10.815  11.437  0.00  0.00    +0.124 C 
BRANCH  15   4
ATOM      2  O   UNL     1      -7.915  -9.523  13.909  0.00  0.00    -0.253 OA
ATOM      4  N   UNL     1      -6.643 -11.061  12.723  0.00  0.00    -0.298 N 
ATOM      6  N   UNL     1      -6.321 -10.814  14.998  0.00  0.00    -0.297 N 
ATOM     19  C   UNL     1      -7.038 -10.387  13.884  0.00  0.00    +0.300 C 
ATOM     34  H   UNL     1      -5.907 -11.757  12.798  0.00  0.00    +0.150 HD
ATOM     35  H   UNL     1      -5.568 -11.480  14.851  0.00  0.00    +0.151 HD
BRANCH   6  18
ATOM     18  C   UNL     1      -6.530 -10.281  16.326  0.00  0.00    +0.074 C 
ATOM     21  C   UNL     1      -7.335 -11.257  17.191  0.00  0.00    +0.022 C 
ATOM     22  C   UNL     1      -5.198  -9.919  16.990  0.00  0.00    +0.022 C 
ATOM     24  C   UNL     1      -6.524 -12.489  17.592  0.00  0.00    +0.002 C 
ATOM     25  C   UNL     1      -4.390 -11.154  17.392  0.00  0.00    +0.002 C 
ATOM     26  C   UNL     1      -5.208 -12.104  18.261  0.00  0.00    +0.000 C 
ENDBRANCH   6  18
ENDBRANCH  15   4
ENDBRANCH  10  15
TORSDOF 5
ENDMDL
MODEL 3
REMARK VINA RESULT:      -7.2     24.029     27.120
REMARK  Name = 40777141
REMARK  6 active torsions:
REMARK  status: ('A' for Active; 'I' for Inactive)
REMARK    1  A    between atoms: N_4  and  C_15
REMARK    2  A    between atoms: N_6  and  C_18
REMARK    3  A    between atoms: C_9  and  C_16
REMARK    4  A    between atoms: C_10  and  C_15
REMARK    5  A    between atoms: C_20  and  C_27
REMARK    6  A    between atoms: C_23  and  C_28
REMARK                            x       y       z     vdW  Elec       q    Type
REMARK                         _______ _______ _______ _____ _____    ______ ____
ROOT
ATOM      3  N   UNL     1      18.656  -2.792  31.485  0.00  0.00    -0.297 NA
ATOM      8  C   UNL     1      16.160  -2.284  30.939  0.00  0.00    +0.002 C 
ATOM      9  C   UNL     1      16.322  -3.746  31.443  0.00  0.00    +0.055 C 
ATOM     10  C   UNL     1      18.546  -2.183  30.133  0.00  0.00    +0.074 C 
ATOM     11  C   UNL     1      17.065  -2.067  29.708  0.00  0.00    +0.024 C 
ATOM     12  C   UNL     1      16.693  -1.367  32.060  0.00  0.00    +0.019 C 
ATOM     13  C   UNL     1      17.846  -4.034  31.551  0.00  0.00    +0.094 C 
ATOM     14  C   UNL     1      18.105  -1.825  32.465  0.00  0.00    +0.085 C 
ENDROOT
BRANCH   9  16
ATOM      5  N   UNL     1      14.315  -5.103  31.103  0.00  0.00    -0.237 NA
ATOM      7  N   UNL     1      14.192  -6.811  29.408  0.00  0.00    -0.232 NA
ATOM     16  C   UNL     1      15.577  -4.847  30.701  0.00  0.00    +0.050 A 
ATOM     17  C   UNL     1      16.206  -5.521  29.674  0.00  0.00    +0.052 A 
ATOM     20  C   UNL     1      15.458  -6.502  29.058  0.00  0.00    +0.076 A 
ATOM     23  C   UNL     1      13.690  -6.083  30.423  0.00  0.00    +0.127 A 
ATOM     28  C   UNL     1      12.294  -6.396  30.841  0.00  0.00    +0.088 C 
BRANCH  20  27
ATOM      1 BR   UNL     1      16.926  -9.208  29.928  0.00  0.00    -0.050 Br
ATOM     27  C   UNL     1      16.002  -7.282  27.970  0.00  0.00    +0.014 A 
ATOM     29  C   UNL     1      16.671  -8.487  28.186  0.00  0.00    +0.027 A 
ATOM     30  C   UNL     1      15.841  -6.797  26.673  0.00  0.00    +0.011 A 
ATOM     31  C   UNL     1      17.179  -9.206  27.105  0.00  0.00    +0.016 A 
ATOM     32  C   UNL     1      16.349  -7.516  25.591  0.00  0.00    +0.001 A 
ATOM     33  C   UNL     1      17.018  -8.721  25.807  0.00  0.00    +0.001 A 
ENDBRANCH  20  27
ENDBRANCH   9  16
BRANCH  10  15
ATOM     15  C   UNL     1      19.382  -2.926  29.088  0.00  0.00    +0.124 C 
BRANCH  15   4
ATOM      2  O   UNL     1      18.895  -4.691  26.871  0.00  0.00    -0.253 OA
ATOM      4  N   UNL     1      18.997  -2.549  27.764  0.00  0.00    -0.298 N 
ATOM      6  N   UNL     1      18.414  -2.844  25.547  0.00  0.00    -0.297 N 
ATOM     19  C   UNL     1      18.778  -3.473  26.734  0.00  0.00    +0.300 C 
ATOM     34  H   UNL     1      18.880  -1.561  27.556  0.00  0.00    +0.150 HD
ATOM     35  H   UNL     1      18.420  -1.829  25.525  0.00  0.00    +0.151 HD
BRANCH   6  18
ATOM     18  C   UNL     1      18.130  -3.565  24.326  0.00  0.00    +0.074 C 
ATOM     21  C   UNL     1      16.662  -4.003  24.273  0.00  0.00    +0.022 C 
ATOM     22  C   UNL     1      18.506  -2.733  23.095  0.00  0.00    +0.022 C 
ATOM     24  C   UNL     1      15.711  -2.829  24.042  0.00  0.00    +0.002 C 
ATOM     25  C   UNL     1      17.550  -1.562  22.866  0.00  0.00    +0.002 C 
ATOM     26  C   UNL     1      16.098  -2.023  22.806  0.00  0.00    +0.000 C 
ENDBRANCH   6  18
ENDBRANCH  15   4
ENDBRANCH  10  15
TORSDOF 5
ENDMDL
MODEL 4
REMARK VINA RESULT:      -7.2     23.862     26.836
REMARK  Name = 40777141
REMARK  6 active torsions:
REMARK  status: ('A' for Active; 'I' for Inactive)
REMARK    1  A    between atoms: N_4  and  C_15
REMARK    2  A    between atoms: N_6  and  C_18
REMARK    3  A    between atoms: C_9  and  C_16
REMARK    4  A    between atoms: C_10  and  C_15
REMARK    5  A    between atoms: C_20  and  C_27
REMARK    6  A    between atoms: C_23  and  C_28
REMARK                            x       y       z     vdW  Elec       q    Type
REMARK                         _______ _______ _______ _____ _____    ______ ____
ROOT
ATOM      3  N   UNL     1      10.007   6.935   7.569  0.00  0.00    -0.297 NA
ATOM      8  C   UNL     1       9.709   5.139   5.706  0.00  0.00    +0.002 C 
ATOM      9  C   UNL     1      11.093   5.833   5.577  0.00  0.00    +0.055 C 
ATOM     10  C   UNL     1       8.701   7.126   6.884  0.00  0.00    +0.074 C 
ATOM     11  C   UNL     1       8.596   6.207   5.647  0.00  0.00    +0.024 C 
ATOM     12  C   UNL     1       9.658   4.509   7.115  0.00  0.00    +0.019 C 
ATOM     13  C   UNL     1      11.114   7.019   6.584  0.00  0.00    +0.094 C 
ATOM     14  C   UNL     1      10.016   5.577   8.163  0.00  0.00    +0.085 C 
ENDROOT
BRANCH   9  16
ATOM      5  N   UNL     1      12.091   7.481   4.069  0.00  0.00    -0.237 NA
ATOM      7  N   UNL     1      12.421   7.040   1.724  0.00  0.00    -0.232 NA
ATOM     16  C   UNL     1      11.563   6.245   4.189  0.00  0.00    +0.050 A 
ATOM     17  C   UNL     1      11.433   5.362   3.136  0.00  0.00    +0.052 A 
ATOM     20  C   UNL     1      11.883   5.818   1.915  0.00  0.00    +0.076 A 
ATOM     23  C   UNL     1      12.494   7.809   2.826  0.00  0.00    +0.127 A 
ATOM     28  C   UNL     1      13.081   9.168   2.654  0.00  0.00    +0.088 C 
BRANCH  20  27
ATOM      1 BR   UNL     1      14.316   3.780   1.513  0.00  0.00    -0.050 Br
ATOM     27  C   UNL     1      11.802   4.991   0.734  0.00  0.00    +0.014 A 
ATOM     29  C   UNL     1      12.785   4.053   0.419  0.00  0.00    +0.027 A 
ATOM     30  C   UNL     1      10.698   5.152  -0.102  0.00  0.00    +0.011 A 
ATOM     31  C   UNL     1      12.663   3.276  -0.733  0.00  0.00    +0.016 A 
ATOM     32  C   UNL     1      10.576   4.375  -1.254  0.00  0.00    +0.001 A 
ATOM     33  C   UNL     1      11.559   3.437  -1.570  0.00  0.00    +0.001 A 
ENDBRANCH  20  27
ENDBRANCH   9  16
BRANCH  10  15
ATOM     15  C   UNL     1       8.436   8.590   6.531  0.00  0.00    +0.124 C 
BRANCH  15   4
ATOM      2  O   UNL     1       7.854  10.954   5.001  0.00  0.00    -0.253 OA
ATOM      4  N   UNL     1       7.534   8.694   5.426  0.00  0.00    -0.298 N 
ATOM      6  N   UNL     1       6.383   9.714   3.701  0.00  0.00    -0.297 N 
ATOM     19  C   UNL     1       7.304   9.887   4.730  0.00  0.00    +0.300 C 
ATOM     34  H   UNL     1       7.030   7.862   5.132  0.00  0.00    +0.150 HD
ATOM     35  H   UNL     1       5.934   8.808   3.612  0.00  0.00    +0.151 HD
BRANCH   6  18
ATOM     18  C   UNL     1       5.965  10.786   2.825  0.00  0.00    +0.074 C 
ATOM     21  C   UNL     1       6.815  10.819   1.550  0.00  0.00    +0.022 C 
ATOM     22  C   UNL     1       4.473  10.679   2.496  0.00  0.00    +0.022 C 
ATOM     24  C   UNL     1       6.501   9.655   0.609  0.00  0.00    +0.002 C 
ATOM     25  C   UNL     1       4.164   9.515   1.553  0.00  0.00    +0.002 C 
ATOM     26  C   UNL     1       5.012   9.575   0.287  0.00  0.00    +0.000 C 
ENDBRANCH   6  18
ENDBRANCH  15   4
ENDBRANCH  10  15
TORSDOF 5
ENDMDL
MODEL 5
REMARK VINA RESULT:      -7.1     23.822     27.065
REMARK  Name = 40777141
REMARK  6 active torsions:
REMARK  status: ('A' for Active; 'I' for Inactive)
REMARK    1  A    between atoms: N_4  and  C_15
REMARK    2  A    between atoms: N_6  and  C_18
REMARK    3  A    between atoms: C_9  and  C_16
REMARK    4  A    between atoms: C_10  and  C_15
REMARK    5  A    between atoms: C_20  and  C_27
REMARK    6  A    between atoms: C_23  and  C_28
REMARK                            x       y       z     vdW  Elec       q    Type
REMARK                         _______ _______ _______ _____ _____    ______ ____
ROOT
ATOM      3  N   UNL     1       9.335   5.234   6.206  0.00  0.00    -0.297 NA
ATOM      8  C   UNL     1      10.404   7.481   6.976  0.00  0.00    +0.002 C 
ATOM      9  C   UNL     1       8.893   7.674   6.668  0.00  0.00    +0.055 C 
ATOM     10  C   UNL     1      10.577   5.497   5.432  0.00  0.00    +0.074 C 
ATOM     11  C   UNL     1      11.110   6.917   5.725  0.00  0.00    +0.024 C 
ATOM     12  C   UNL     1      10.499   6.402   8.076  0.00  0.00    +0.019 C 
ATOM     13  C   UNL     1       8.377   6.354   6.027  0.00  0.00    +0.094 C 
ATOM     14  C   UNL     1       9.700   5.161   7.641  0.00  0.00    +0.085 C 
ENDROOT
BRANCH   9  16
ATOM      5  N   UNL     1       8.944  10.094   6.306  0.00  0.00    -0.237 NA
ATOM      7  N   UNL     1       7.755  11.145   4.494  0.00  0.00    -0.232 NA
ATOM     16  C   UNL     1       8.473   8.905   5.875  0.00  0.00    +0.050 A 
ATOM     17  C   UNL     1       7.651   8.758   4.776  0.00  0.00    +0.052 A 
ATOM     20  C   UNL     1       7.321   9.924   4.118  0.00  0.00    +0.076 A 
ATOM     23  C   UNL     1       8.550  11.157   5.580  0.00  0.00    +0.127 A 
ATOM     28  C   UNL     1       9.048  12.489   6.028  0.00  0.00    +0.088 C 
BRANCH  20  27
ATOM      1 BR   UNL     1       8.748   9.040   1.395  0.00  0.00    -0.050 Br
ATOM     27  C   UNL     1       6.466   9.908   2.955  0.00  0.00    +0.014 A 
ATOM     29  C   UNL     1       6.939   9.545   1.694  0.00  0.00    +0.027 A 
ATOM     30  C   UNL     1       5.129  10.269   3.120  0.00  0.00    +0.011 A 
ATOM     31  C   UNL     1       6.075   9.543   0.599  0.00  0.00    +0.016 A 
ATOM     32  C   UNL     1       4.265  10.267   2.025  0.00  0.00    +0.001 A 
ATOM     33  C   UNL     1       4.738   9.904   0.764  0.00  0.00    +0.001 A 
ENDBRANCH  20  27
ENDBRANCH   9  16
BRANCH  10  15
ATOM     15  C   UNL     1      10.392   5.257   3.932  0.00  0.00    +0.124 C 
BRANCH  15   4
ATOM      2  O   UNL     1      11.381   3.149   2.246  0.00  0.00    -0.253 OA
ATOM      4  N   UNL     1      11.654   5.219   3.261  0.00  0.00    -0.298 N 
ATOM      6  N   UNL     1      13.332   4.365   1.921  0.00  0.00    -0.297 N 
ATOM     19  C   UNL     1      12.064   4.151   2.454  0.00  0.00    +0.300 C 
ATOM     34  H   UNL     1      12.288   6.004   3.379  0.00  0.00    +0.150 HD
ATOM     35  H   UNL     1      13.839   5.194   2.218  0.00  0.00    +0.151 HD
BRANCH   6  18
ATOM     18  C   UNL     1      13.995   3.419   1.052  0.00  0.00    +0.074 C 
ATOM     21  C   UNL     1      13.335   3.384  -0.331  0.00  0.00    +0.022 C 
ATOM     22  C   UNL     1      15.492   3.723   0.946  0.00  0.00    +0.022 C 
ATOM     24  C   UNL     1      13.623   4.645  -1.147  0.00  0.00    +0.002 C 
ATOM     25  C   UNL     1      15.777   4.983   0.127  0.00  0.00    +0.002 C 
ATOM     26  C   UNL     1      15.119   4.921  -1.248  0.00  0.00    +0.000 C 
ENDBRANCH   6  18
ENDBRANCH  15   4
ENDBRANCH  10  15
TORSDOF 5
ENDMDL
MODEL 6
REMARK VINA RESULT:      -7.1      3.840      7.436
REMARK  Name = 40777141
REMARK  6 active torsions:
REMARK  status: ('A' for Active; 'I' for Inactive)
REMARK    1  A    between atoms: N_4  and  C_15
REMARK    2  A    between atoms: N_6  and  C_18
REMARK    3  A    between atoms: C_9  and  C_16
REMARK    4  A    between atoms: C_10  and  C_15
REMARK    5  A    between atoms: C_20  and  C_27
REMARK    6  A    between atoms: C_23  and  C_28
REMARK                            x       y       z     vdW  Elec       q    Type
REMARK                         _______ _______ _______ _____ _____    ______ ____
ROOT
ATOM      3  N   UNL     1      -5.190 -12.954  17.191  0.00  0.00    -0.297 NA
ATOM      8  C   UNL     1      -5.405 -10.362  17.341  0.00  0.00    +0.002 C 
ATOM      9  C   UNL     1      -6.778 -11.004  16.998  0.00  0.00    +0.055 C 
ATOM     10  C   UNL     1      -4.131 -12.308  16.371  0.00  0.00    +0.074 C 
ATOM     11  C   UNL     1      -4.367 -10.784  16.280  0.00  0.00    +0.024 C 
ATOM     12  C   UNL     1      -4.953 -10.972  18.685  0.00  0.00    +0.019 C 
ATOM     13  C   UNL     1      -6.530 -12.515  16.727  0.00  0.00    +0.094 C 
ATOM     14  C   UNL     1      -5.015 -12.507  18.594  0.00  0.00    +0.085 C 
ENDROOT
BRANCH   9  16
ATOM      5  N   UNL     1      -7.269 -10.605  14.635  0.00  0.00    -0.237 NA
ATOM      7  N   UNL     1      -9.102  -9.213  13.922  0.00  0.00    -0.232 NA
ATOM     16  C   UNL     1      -7.623 -10.353  15.912  0.00  0.00    +0.050 A 
ATOM     17  C   UNL     1      -8.690  -9.552  16.268  0.00  0.00    +0.052 A 
ATOM     20  C   UNL     1      -9.400  -9.003  15.221  0.00  0.00    +0.076 A 
ATOM     23  C   UNL     1      -8.040 -10.011  13.704  0.00  0.00    +0.127 A 
ATOM     28  C   UNL     1      -7.678 -10.265  12.280  0.00  0.00    +0.088 C 
BRANCH  20  27
ATOM      1 BR   UNL     1     -12.241 -10.471  15.190  0.00  0.00    -0.050 Br
ATOM     27  C   UNL     1     -10.536  -8.145  15.459  0.00  0.00    +0.014 A 
ATOM     29  C   UNL     1     -11.842  -8.634  15.477  0.00  0.00    +0.027 A 
ATOM     30  C   UNL     1     -10.297  -6.788  15.675  0.00  0.00    +0.011 A 
ATOM     31  C   UNL     1     -12.909  -7.767  15.712  0.00  0.00    +0.016 A 
ATOM     32  C   UNL     1     -11.364  -5.920  15.910  0.00  0.00    +0.001 A 
ATOM     33  C   UNL     1     -12.670  -6.410  15.928  0.00  0.00    +0.001 A 
ENDBRANCH  20  27
ENDBRANCH   9  16
BRANCH  10  15
ATOM     15  C   UNL     1      -3.993 -12.946  14.988  0.00  0.00    +0.124 C 
BRANCH  15   4
ATOM      2  O   UNL     1      -2.662 -12.812  12.443  0.00  0.00    -0.253 OA
ATOM      4  N   UNL     1      -4.217 -11.982  13.955  0.00  0.00    -0.298 N 
ATOM      6  N   UNL     1      -3.932 -10.942  11.912  0.00  0.00    -0.297 N 
ATOM     19  C   UNL     1      -3.524 -11.985  12.738  0.00  0.00    +0.300 C 
ATOM     34  H   UNL     1      -4.909 -11.256  14.113  0.00  0.00    +0.150 HD
ATOM     35  H   UNL     1      -4.597 -10.272  12.285  0.00  0.00    +0.151 HD
BRANCH   6  18
ATOM     18  C   UNL     1      -3.377 -10.712  10.596  0.00  0.00    +0.074 C 
ATOM     21  C   UNL     1      -4.203 -11.423   9.519  0.00  0.00    +0.022 C 
ATOM     22  C   UNL     1      -3.255  -9.213  10.303  0.00  0.00    +0.022 C 
ATOM     24  C   UNL     1      -5.558 -10.756   9.287  0.00  0.00    +0.002 C 
ATOM     25  C   UNL     1      -4.613  -8.550  10.070  0.00  0.00    +0.002 C 
ATOM     26  C   UNL     1      -5.411  -9.268   8.986  0.00  0.00    +0.000 C 
ENDBRANCH   6  18
ENDBRANCH  15   4
ENDBRANCH  10  15
TORSDOF 5
ENDMDL
MODEL 7
REMARK VINA RESULT:      -7.0     27.190     30.389
REMARK  Name = 40777141
REMARK  6 active torsions:
REMARK  status: ('A' for Active; 'I' for Inactive)
REMARK    1  A    between atoms: N_4  and  C_15
REMARK    2  A    between atoms: N_6  and  C_18
REMARK    3  A    between atoms: C_9  and  C_16
REMARK    4  A    between atoms: C_10  and  C_15
REMARK    5  A    between atoms: C_20  and  C_27
REMARK    6  A    between atoms: C_23  and  C_28
REMARK                            x       y       z     vdW  Elec       q    Type
REMARK                         _______ _______ _______ _____ _____    ______ ____
ROOT
ATOM      3  N   UNL     1      12.859   6.929  19.503  0.00  0.00    -0.297 NA
ATOM      8  C   UNL     1      12.363   8.076  21.789  0.00  0.00    +0.002 C 
ATOM      9  C   UNL     1      11.832   8.946  20.616  0.00  0.00    +0.055 C 
ATOM     10  C   UNL     1      14.095   6.972  20.328  0.00  0.00    +0.074 C 
ATOM     11  C   UNL     1      13.874   7.828  21.595  0.00  0.00    +0.024 C 
ATOM     12  C   UNL     1      11.662   6.706  21.679  0.00  0.00    +0.019 C 
ATOM     13  C   UNL     1      12.339   8.304  19.294  0.00  0.00    +0.094 C 
ATOM     14  C   UNL     1      11.838   6.157  20.252  0.00  0.00    +0.085 C 
ENDROOT
BRANCH   9  16
ATOM      5  N   UNL     1      13.010  10.934  19.812  0.00  0.00    -0.237 NA
ATOM      7  N   UNL     1      12.580  13.130  20.705  0.00  0.00    -0.232 NA
ATOM     16  C   UNL     1      12.085  10.447  20.664  0.00  0.00    +0.050 A 
ATOM     17  C   UNL     1      11.375  11.228  21.554  0.00  0.00    +0.052 A 
ATOM     20  C   UNL     1      11.668  12.576  21.529  0.00  0.00    +0.076 A 
ATOM     23  C   UNL     1      13.206  12.264  19.885  0.00  0.00    +0.127 A 
ATOM     28  C   UNL     1      14.224  12.839  18.959  0.00  0.00    +0.088 C 
BRANCH  20  27
ATOM      1 BR   UNL     1      12.982  12.882  24.430  0.00  0.00    -0.050 Br
ATOM     27  C   UNL     1      10.997  13.501  22.412  0.00  0.00    +0.014 A 
ATOM     29  C   UNL     1      11.447  13.744  23.710  0.00  0.00    +0.027 A 
ATOM     30  C   UNL     1       9.866  14.160  21.932  0.00  0.00    +0.011 A 
ATOM     31  C   UNL     1      10.767  14.646  24.526  0.00  0.00    +0.016 A 
ATOM     32  C   UNL     1       9.185  15.063  22.749  0.00  0.00    +0.001 A 
ATOM     33  C   UNL     1       9.635  15.306  24.046  0.00  0.00    +0.001 A 
ENDBRANCH  20  27
ENDBRANCH   9  16
BRANCH  10  15
ATOM     15  C   UNL     1      15.313   7.439  19.530  0.00  0.00    +0.124 C 
BRANCH  15   4
ATOM      2  O   UNL     1      17.741   5.902  19.628  0.00  0.00    -0.253 OA
ATOM      4  N   UNL     1      16.433   7.663  20.391  0.00  0.00    -0.298 N 
ATOM      6  N   UNL     1      18.521   7.299  21.312  0.00  0.00    -0.297 N 
ATOM     19  C   UNL     1      17.584   6.866  20.378  0.00  0.00    +0.300 C 
ATOM     34  H   UNL     1      16.391   8.436  21.048  0.00  0.00    +0.150 HD
ATOM     35  H   UNL     1      18.258   8.059  21.931  0.00  0.00    +0.151 HD
BRANCH   6  18
ATOM     18  C   UNL     1      19.800   6.653  21.508  0.00  0.00    +0.074 C 
ATOM     21  C   UNL     1      20.893   7.331  20.674  0.00  0.00    +0.022 C 
ATOM     22  C   UNL     1      20.177   6.615  22.992  0.00  0.00    +0.022 C 
ATOM     24  C   UNL     1      21.275   8.707  21.220  0.00  0.00    +0.002 C 
ATOM     25  C   UNL     1      20.561   7.992  23.534  0.00  0.00    +0.002 C 
ATOM     26  C   UNL     1      21.657   8.642  22.695  0.00  0.00    +0.000 C 
ENDBRANCH   6  18
ENDBRANCH  15   4
ENDBRANCH  10  15
TORSDOF 5
ENDMDL
MODEL 8
REMARK VINA RESULT:      -7.0     24.224     27.429
REMARK  Name = 40777141
REMARK  6 active torsions:
REMARK  status: ('A' for Active; 'I' for Inactive)
REMARK    1  A    between atoms: N_4  and  C_15
REMARK    2  A    between atoms: N_6  and  C_18
REMARK    3  A    between atoms: C_9  and  C_16
REMARK    4  A    between atoms: C_10  and  C_15
REMARK    5  A    between atoms: C_20  and  C_27
REMARK    6  A    between atoms: C_23  and  C_28
REMARK                            x       y       z     vdW  Elec       q    Type
REMARK                         _______ _______ _______ _____ _____    ______ ____
ROOT
ATOM      3  N   UNL     1      10.625   5.610   7.727  0.00  0.00    -0.297 NA
ATOM      8  C   UNL     1       9.392   7.596   6.578  0.00  0.00    +0.002 C 
ATOM      9  C   UNL     1       9.298   6.316   5.701  0.00  0.00    +0.055 C 
ATOM     10  C   UNL     1      11.508   6.806   7.696  0.00  0.00    +0.074 C 
ATOM     11  C   UNL     1      10.877   7.926   6.839  0.00  0.00    +0.024 C 
ATOM     12  C   UNL     1       8.758   7.249   7.941  0.00  0.00    +0.019 C 
ATOM     13  C   UNL     1      10.219   5.242   6.347  0.00  0.00    +0.094 C 
ATOM     14  C   UNL     1       9.405   5.964   8.490  0.00  0.00    +0.085 C 
ENDROOT
BRANCH   9  16
ATOM      5  N   UNL     1       8.899   7.470   3.581  0.00  0.00    -0.237 NA
ATOM      7  N   UNL     1       9.913   6.749   1.517  0.00  0.00    -0.232 NA
ATOM     16  C   UNL     1       9.532   6.453   4.203  0.00  0.00    +0.050 A 
ATOM     17  C   UNL     1      10.361   5.556   3.559  0.00  0.00    +0.052 A 
ATOM     20  C   UNL     1      10.515   5.755   2.203  0.00  0.00    +0.076 A 
ATOM     23  C   UNL     1       9.130   7.557   2.257  0.00  0.00    +0.127 A 
ATOM     28  C   UNL     1       8.446   8.666   1.534  0.00  0.00    +0.088 C 
BRANCH  20  27
ATOM      1 BR   UNL     1       9.798   5.637  -0.912  0.00  0.00    -0.050 Br
ATOM     27  C   UNL     1      11.354   4.884   1.413  0.00  0.00    +0.014 A 
ATOM     29  C   UNL     1      11.168   4.725   0.040  0.00  0.00    +0.027 A 
ATOM     30  C   UNL     1      12.374   4.192   2.064  0.00  0.00    +0.011 A 
ATOM     31  C   UNL     1      12.003   3.873  -0.682  0.00  0.00    +0.016 A 
ATOM     32  C   UNL     1      13.210   3.339   1.342  0.00  0.00    +0.001 A 
ATOM     33  C   UNL     1      13.024   3.180  -0.032  0.00  0.00    +0.001 A 
ENDBRANCH  20  27
ENDBRANCH   9  16
BRANCH  10  15
ATOM     15  C   UNL     1      12.929   6.471   7.240  0.00  0.00    +0.124 C 
BRANCH  15   4
ATOM      2  O   UNL     1      14.628   8.288   5.798  0.00  0.00    -0.253 OA
ATOM      4  N   UNL     1      13.050   6.584   5.819  0.00  0.00    -0.298 N 
ATOM      6  N   UNL     1      13.830   7.403   3.805  0.00  0.00    -0.297 N 
ATOM     19  C   UNL     1      13.903   7.498   5.191  0.00  0.00    +0.300 C 
ATOM     34  H   UNL     1      12.485   5.974   5.236  0.00  0.00    +0.150 HD
ATOM     35  H   UNL     1      13.144   6.768   3.407  0.00  0.00    +0.151 HD
BRANCH   6  18
ATOM     18  C   UNL     1      14.608   8.233   2.912  0.00  0.00    +0.074 C 
ATOM     21  C   UNL     1      15.735   7.429   2.254  0.00  0.00    +0.022 C 
ATOM     22  C   UNL     1      13.715   8.901   1.861  0.00  0.00    +0.022 C 
ATOM     24  C   UNL     1      15.214   6.441   1.210  0.00  0.00    +0.002 C 
ATOM     25  C   UNL     1      13.198   7.910   0.817  0.00  0.00    +0.002 C 
ATOM     26  C   UNL     1      14.338   7.130   0.169  0.00  0.00    +0.000 C 
ENDBRANCH   6  18
ENDBRANCH  15   4
ENDBRANCH  10  15
TORSDOF 5
ENDMDL
MODEL 9
REMARK VINA RESULT:      -6.9      3.780      6.067
REMARK  Name = 40777141
REMARK  6 active torsions:
REMARK  status: ('A' for Active; 'I' for Inactive)
REMARK    1  A    between atoms: N_4  and  C_15
REMARK    2  A    between atoms: N_6  and  C_18
REMARK    3  A    between atoms: C_9  and  C_16
REMARK    4  A    between atoms: C_10  and  C_15
REMARK    5  A    between atoms: C_20  and  C_27
REMARK    6  A    between atoms: C_23  and  C_28
REMARK                            x       y       z     vdW  Elec       q    Type
REMARK                         _______ _______ _______ _____ _____    ______ ____
ROOT
ATOM      3  N   UNL     1      -6.609 -10.464  17.889  0.00  0.00    -0.297 NA
ATOM      8  C   UNL     1      -4.753 -12.292  17.896  0.00  0.00    +0.002 C 
ATOM      9  C   UNL     1      -4.456 -11.218  16.813  0.00  0.00    +0.055 C 
ATOM     10  C   UNL     1      -7.227 -11.816  17.845  0.00  0.00    +0.074 C 
ATOM     11  C   UNL     1      -6.148 -12.902  17.640  0.00  0.00    +0.024 C 
ATOM     12  C   UNL     1      -4.824 -11.552  19.249  0.00  0.00    +0.019 C 
ATOM     13  C   UNL     1      -5.697 -10.284  16.732  0.00  0.00    +0.094 C 
ATOM     14  C   UNL     1      -5.805 -10.372  19.132  0.00  0.00    +0.085 C 
ENDROOT
BRANCH   9  16
ATOM      5  N   UNL     1      -3.492 -12.940  15.366  0.00  0.00    -0.237 NA
ATOM      7  N   UNL     1      -3.159 -12.593  13.005  0.00  0.00    -0.232 NA
ATOM     16  C   UNL     1      -3.998 -11.691  15.440  0.00  0.00    +0.050 A 
ATOM     17  C   UNL     1      -4.114 -10.845  14.355  0.00  0.00    +0.052 A 
ATOM     20  C   UNL     1      -3.674 -11.355  13.152  0.00  0.00    +0.076 A 
ATOM     23  C   UNL     1      -3.097 -13.321  14.136  0.00  0.00    +0.127 A 
ATOM     28  C   UNL     1      -2.531 -14.695  14.015  0.00  0.00    +0.088 C 
BRANCH  20  27
ATOM      1 BR   UNL     1      -6.549 -11.254  11.752  0.00  0.00    -0.050 Br
ATOM     27  C   UNL     1      -3.740 -10.570  11.941  0.00  0.00    +0.014 A 
ATOM     29  C   UNL     1      -4.922 -10.429  11.214  0.00  0.00    +0.027 A 
ATOM     30  C   UNL     1      -2.574  -9.944  11.504  0.00  0.00    +0.011 A 
ATOM     31  C   UNL     1      -4.937  -9.660  10.051  0.00  0.00    +0.016 A 
ATOM     32  C   UNL     1      -2.588  -9.174  10.341  0.00  0.00    +0.001 A 
ATOM     33  C   UNL     1      -3.771  -9.033   9.614  0.00  0.00    +0.001 A 
ENDBRANCH  20  27
ENDBRANCH   9  16
BRANCH  10  15
ATOM     15  C   UNL     1      -8.341 -11.914  16.800  0.00  0.00    +0.124 C 
BRANCH  15   4
ATOM      2  O   UNL     1      -8.766 -10.119  14.595  0.00  0.00    -0.253 OA
ATOM      4  N   UNL     1      -9.148 -10.734  16.802  0.00  0.00    -0.298 N 
ATOM      6  N   UNL     1     -10.141  -8.829  15.950  0.00  0.00    -0.297 N 
ATOM     19  C   UNL     1      -9.305  -9.908  15.682  0.00  0.00    +0.300 C 
ATOM     34  H   UNL     1      -9.629 -10.478  17.659  0.00  0.00    +0.150 HD
ATOM     35  H   UNL     1     -10.473  -8.710  16.902  0.00  0.00    +0.151 HD
BRANCH   6  18
ATOM     18  C   UNL     1     -10.472  -7.821  14.967  0.00  0.00    +0.074 C 
ATOM     21  C   UNL     1     -11.828  -8.112  14.314  0.00  0.00    +0.022 C 
ATOM     22  C   UNL     1     -10.442  -6.419  15.584  0.00  0.00    +0.022 C 
ATOM     24  C   UNL     1     -12.999  -7.862  15.264  0.00  0.00    +0.002 C 
ATOM     25  C   UNL     1     -11.617  -6.172  16.532  0.00  0.00    +0.002 C 
ATOM     26  C   UNL     1     -12.955  -6.457  15.857  0.00  0.00    +0.000 C 
ENDBRANCH   6  18
ENDBRANCH  15   4
ENDBRANCH  10  15
TORSDOF 5
ENDMDL
MODEL 10
REMARK VINA RESULT:      -6.9     23.934     27.421
REMARK  Name = 40777141
REMARK  6 active torsions:
REMARK  status: ('A' for Active; 'I' for Inactive)
REMARK    1  A    between atoms: N_4  and  C_15
REMARK    2  A    between atoms: N_6  and  C_18
REMARK    3  A    between atoms: C_9  and  C_16
REMARK    4  A    between atoms: C_10  and  C_15
REMARK    5  A    between atoms: C_20  and  C_27
REMARK    6  A    between atoms: C_23  and  C_28
REMARK                            x       y       z     vdW  Elec       q    Type
REMARK                         _______ _______ _______ _____ _____    ______ ____
ROOT
ATOM      3  N   UNL     1      15.069   9.776   4.410  0.00  0.00    -0.297 NA
ATOM      8  C   UNL     1      15.011   7.211   3.956  0.00  0.00    +0.002 C 
ATOM      9  C   UNL     1      13.972   7.946   3.064  0.00  0.00    +0.055 C 
ATOM     10  C   UNL     1      14.970   9.035   5.695  0.00  0.00    +0.074 C 
ATOM     11  C   UNL     1      14.726   7.531   5.439  0.00  0.00    +0.024 C 
ATOM     12  C   UNL     1      16.392   7.815   3.620  0.00  0.00    +0.019 C 
ATOM     13  C   UNL     1      13.923   9.428   3.533  0.00  0.00    +0.094 C 
ATOM     14  C   UNL     1      16.317   9.348   3.733  0.00  0.00    +0.085 C 
ENDROOT
BRANCH   9  16
ATOM      5  N   UNL     1      12.516   5.990   2.868  0.00  0.00    -0.237 NA
ATOM      7  N   UNL     1      10.121   6.187   2.686  0.00  0.00    -0.232 NA
ATOM     16  C   UNL     1      12.584   7.337   2.929  0.00  0.00    +0.050 A 
ATOM     17  C   UNL     1      11.480   8.164   2.876  0.00  0.00    +0.052 A 
ATOM     20  C   UNL     1      10.263   7.527   2.753  0.00  0.00    +0.076 A 
ATOM     23  C   UNL     1      11.271   5.489   2.748  0.00  0.00    +0.127 A 
ATOM     28  C   UNL     1      11.156   4.005   2.675  0.00  0.00    +0.088 C 
BRANCH  20  27
ATOM      1 BR   UNL     1       9.377   8.419  -0.189  0.00  0.00    -0.050 Br
ATOM     27  C   UNL     1       9.031   8.278   2.684  0.00  0.00    +0.014 A 
ATOM     29  C   UNL     1       8.512   8.739   1.474  0.00  0.00    +0.027 A 
ATOM     30  C   UNL     1       8.358   8.540   3.876  0.00  0.00    +0.011 A 
ATOM     31  C   UNL     1       7.319   9.461   1.457  0.00  0.00    +0.016 A 
ATOM     32  C   UNL     1       7.164   9.262   3.860  0.00  0.00    +0.001 A 
ATOM     33  C   UNL     1       6.645   9.723   2.650  0.00  0.00    +0.001 A 
ENDBRANCH  20  27
ENDBRANCH   9  16
BRANCH  10  15
ATOM     15  C   UNL     1      13.918   9.631   6.633  0.00  0.00    +0.124 C 
BRANCH  15   4
ATOM      2  O   UNL     1      11.138   9.197   6.040  0.00  0.00    -0.253 OA
ATOM      4  N   UNL     1      13.078   8.608   7.174  0.00  0.00    -0.298 N 
ATOM      6  N   UNL     1      11.141   7.391   7.500  0.00  0.00    -0.297 N 
ATOM     19  C   UNL     1      11.727   8.463   6.834  0.00  0.00    +0.300 C 
ATOM     34  H   UNL     1      13.478   7.956   7.842  0.00  0.00    +0.150 HD
ATOM     35  H   UNL     1      11.699   6.897   8.189  0.00  0.00    +0.151 HD
BRANCH   6  18
ATOM     18  C   UNL     1       9.753   7.019   7.331  0.00  0.00    +0.074 C 
ATOM     21  C   UNL     1       9.589   6.008   6.190  0.00  0.00    +0.022 C 
ATOM     22  C   UNL     1       9.164   6.481   8.639  0.00  0.00    +0.022 C 
ATOM     24  C   UNL     1      10.128   4.625   6.554  0.00  0.00    +0.002 C 
ATOM     25  C   UNL     1       9.704   5.095   8.998  0.00  0.00    +0.002 C 
ATOM     26  C   UNL     1       9.519   4.105   7.852  0.00  0.00    +0.000 C 
ENDBRANCH   6  18
ENDBRANCH  15   4
ENDBRANCH  10  15
TORSDOF 5
ENDMDL
