MODEL 1
REMARK VINA RESULT:      -6.4      0.000      0.000
REMARK  Name = 45784065
REMARK  6 active torsions:
REMARK  status: ('A' for Active; 'I' for Inactive)
REMARK    1  A    between atoms: O_2  and  C_15
REMARK    2  A    between atoms: O_2  and  C_20
REMARK    3  A    between atoms: O_3  and  C_18
REMARK    4  A    between atoms: O_3  and  C_21
REMARK    5  A    between atoms: C_7  and  C_11
REMARK    6  A    between atoms: C_12  and  C_15
REMARK                            x       y       z     vdW  Elec       q    Type
REMARK                         _______ _______ _______ _____ _____    ______ ____
ROOT
ATOM      5  N   UNL     1      15.961   7.730  21.386  0.00  0.00    -0.341 N 
ATOM      6  N   UNL     1      15.337   6.605  19.572  0.00  0.00    -0.232 NA
ATOM     11  C   UNL     1      14.948   7.437  20.514  0.00  0.00    +0.113 A 
ATOM     13  C   UNL     1      17.075   7.042  20.980  0.00  0.00    +0.070 A 
ATOM     14  C   UNL     1      16.660   6.348  19.846  0.00  0.00    +0.089 A 
ATOM     16  C   UNL     1      18.372   6.971  21.491  0.00  0.00    +0.073 A 
ATOM     17  C   UNL     1      17.580   5.528  19.171  0.00  0.00    +0.033 A 
ATOM     18  C   UNL     1      19.273   6.150  20.806  0.00  0.00    +0.122 A 
ATOM     19  C   UNL     1      18.887   5.441  19.667  0.00  0.00    +0.048 A 
ATOM     22  H   UNL     1      15.901   8.346  22.186  0.00  0.00    +0.167 HD
ENDROOT
BRANCH  11   7
ATOM      1  O   UNL     1      11.285   7.352  17.095  0.00  0.00    -0.273 OA
ATOM      4  N   UNL     1      12.562   8.568  18.588  0.00  0.00    -0.299 N 
ATOM      7  C   UNL     1      13.565   8.041  20.678  0.00  0.00    +0.074 C 
ATOM      8  C   UNL     1      13.583   9.563  20.469  0.00  0.00    +0.032 C 
ATOM      9  C   UNL     1      12.497   7.594  19.672  0.00  0.00    +0.119 C 
ATOM     10  C   UNL     1      13.351   9.733  18.972  0.00  0.00    +0.108 C 
ATOM     12  C   UNL     1      11.943   8.357  17.370  0.00  0.00    +0.241 C 
BRANCH  12  15
ATOM     15  C   UNL     1      12.112   9.459  16.355  0.00  0.00    +0.255 C 
BRANCH  15   2
ATOM      2  O   UNL     1      12.836   8.910  15.281  0.00  0.00    -0.374 OA
ATOM     20  C   UNL     1      14.240   8.895  15.532  0.00  0.00    +0.194 C 
ENDBRANCH  15   2
ENDBRANCH  12  15
ENDBRANCH  11   7
BRANCH  18   3
ATOM      3  O   UNL     1      20.555   6.041  21.261  0.00  0.00    -0.495 OA
ATOM     21  C   UNL     1      21.461   5.285  20.461  0.00  0.00    +0.277 C 
ENDBRANCH  18   3
TORSDOF 4
ENDMDL
MODEL 2
REMARK VINA RESULT:      -6.3      3.362      4.589
REMARK  Name = 45784065
REMARK  6 active torsions:
REMARK  status: ('A' for Active; 'I' for Inactive)
REMARK    1  A    between atoms: O_2  and  C_15
REMARK    2  A    between atoms: O_2  and  C_20
REMARK    3  A    between atoms: O_3  and  C_18
REMARK    4  A    between atoms: O_3  and  C_21
REMARK    5  A    between atoms: C_7  and  C_11
REMARK    6  A    between atoms: C_12  and  C_15
REMARK                            x       y       z     vdW  Elec       q    Type
REMARK                         _______ _______ _______ _____ _____    ______ ____
ROOT
ATOM      5  N   UNL     1      14.122   8.172  21.057  0.00  0.00    -0.341 N 
ATOM      6  N   UNL     1      13.880   6.791  19.332  0.00  0.00    -0.232 NA
ATOM     11  C   UNL     1      13.261   7.605  20.158  0.00  0.00    +0.113 A 
ATOM     13  C   UNL     1      15.378   7.693  20.793  0.00  0.00    +0.070 A 
ATOM     14  C   UNL     1      15.202   6.834  19.711  0.00  0.00    +0.089 A 
ATOM     16  C   UNL     1      16.618   7.931  21.387  0.00  0.00    +0.073 A 
ATOM     17  C   UNL     1      16.316   6.162  19.181  0.00  0.00    +0.033 A 
ATOM     18  C   UNL     1      17.716   7.254  20.847  0.00  0.00    +0.122 A 
ATOM     19  C   UNL     1      17.570   6.386  19.763  0.00  0.00    +0.048 A 
ATOM     22  H   UNL     1      13.877   8.830  21.786  0.00  0.00    +0.167 HD
ENDROOT
BRANCH  11   7
ATOM      1  O   UNL     1      11.200  11.860  21.819  0.00  0.00    -0.273 OA
ATOM      4  N   UNL     1      11.229   9.550  21.822  0.00  0.00    -0.299 N 
ATOM      7  C   UNL     1      11.777   7.927  20.175  0.00  0.00    +0.074 C 
ATOM      8  C   UNL     1      11.063   7.243  21.351  0.00  0.00    +0.032 C 
ATOM      9  C   UNL     1      11.396   9.398  20.382  0.00  0.00    +0.119 C 
ATOM     10  C   UNL     1      11.175   8.253  22.487  0.00  0.00    +0.108 C 
ATOM     12  C   UNL     1      11.148  10.791  22.428  0.00  0.00    +0.241 C 
BRANCH  12  15
ATOM     15  C   UNL     1      10.983  10.773  23.926  0.00  0.00    +0.255 C 
BRANCH  15   2
ATOM      2  O   UNL     1      10.226  11.910  24.262  0.00  0.00    -0.374 OA
ATOM     20  C   UNL     1      10.822  12.660  25.318  0.00  0.00    +0.194 C 
ENDBRANCH  15   2
ENDBRANCH  12  15
ENDBRANCH  11   7
BRANCH  18   3
ATOM      3  O   UNL     1      18.953   7.447  21.388  0.00  0.00    -0.495 OA
ATOM     21  C   UNL     1      20.033   6.720  20.808  0.00  0.00    +0.277 C 
ENDBRANCH  18   3
TORSDOF 4
ENDMDL
MODEL 3
REMARK VINA RESULT:      -6.2      1.404      2.106
REMARK  Name = 45784065
REMARK  6 active torsions:
REMARK  status: ('A' for Active; 'I' for Inactive)
REMARK    1  A    between atoms: O_2  and  C_15
REMARK    2  A    between atoms: O_2  and  C_20
REMARK    3  A    between atoms: O_3  and  C_18
REMARK    4  A    between atoms: O_3  and  C_21
REMARK    5  A    between atoms: C_7  and  C_11
REMARK    6  A    between atoms: C_12  and  C_15
REMARK                            x       y       z     vdW  Elec       q    Type
REMARK                         _______ _______ _______ _____ _____    ______ ____
ROOT
ATOM      5  N   UNL     1      15.907   6.273  19.157  0.00  0.00    -0.341 N 
ATOM      6  N   UNL     1      15.792   8.017  20.531  0.00  0.00    -0.232 NA
ATOM     11  C   UNL     1      15.140   7.295  19.647  0.00  0.00    +0.113 A 
ATOM     13  C   UNL     1      17.133   6.342  19.765  0.00  0.00    +0.070 A 
ATOM     14  C   UNL     1      17.037   7.438  20.619  0.00  0.00    +0.089 A 
ATOM     16  C   UNL     1      18.284   5.562  19.647  0.00  0.00    +0.073 A 
ATOM     17  C   UNL     1      18.145   7.792  21.406  0.00  0.00    +0.033 A 
ATOM     18  C   UNL     1      19.377   5.929  20.439  0.00  0.00    +0.122 A 
ATOM     19  C   UNL     1      19.311   7.023  21.304  0.00  0.00    +0.048 A 
ATOM     22  H   UNL     1      15.621   5.587  18.470  0.00  0.00    +0.167 HD
ENDROOT
BRANCH  11   7
ATOM      1  O   UNL     1      13.731   8.506  14.993  0.00  0.00    -0.273 OA
ATOM      4  N   UNL     1      13.594   8.910  17.264  0.00  0.00    -0.299 N 
ATOM      7  C   UNL     1      13.711   7.505  19.177  0.00  0.00    +0.074 C 
ATOM      8  C   UNL     1      13.179   8.887  19.587  0.00  0.00    +0.032 C 
ATOM      9  C   UNL     1      13.482   7.512  17.661  0.00  0.00    +0.119 C 
ATOM     10  C   UNL     1      13.571   9.793  18.425  0.00  0.00    +0.108 C 
ATOM     12  C   UNL     1      13.716   9.293  15.940  0.00  0.00    +0.241 C 
BRANCH  12  15
ATOM     15  C   UNL     1      13.829  10.777  15.701  0.00  0.00    +0.255 C 
BRANCH  15   2
ATOM      2  O   UNL     1      13.951  10.953  14.310  0.00  0.00    -0.374 OA
ATOM     20  C   UNL     1      14.596  12.181  13.979  0.00  0.00    +0.194 C 
ENDBRANCH  15   2
ENDBRANCH  12  15
ENDBRANCH  11   7
BRANCH  18   3
ATOM      3  O   UNL     1      20.530   5.203  20.364  0.00  0.00    -0.495 OA
ATOM     21  C   UNL     1      21.754   5.917  20.523  0.00  0.00    +0.277 C 
ENDBRANCH  18   3
TORSDOF 4
ENDMDL
MODEL 4
REMARK VINA RESULT:      -5.9      0.941      1.577
REMARK  Name = 45784065
REMARK  6 active torsions:
REMARK  status: ('A' for Active; 'I' for Inactive)
REMARK    1  A    between atoms: O_2  and  C_15
REMARK    2  A    between atoms: O_2  and  C_20
REMARK    3  A    between atoms: O_3  and  C_18
REMARK    4  A    between atoms: O_3  and  C_21
REMARK    5  A    between atoms: C_7  and  C_11
REMARK    6  A    between atoms: C_12  and  C_15
REMARK                            x       y       z     vdW  Elec       q    Type
REMARK                         _______ _______ _______ _____ _____    ______ ____
ROOT
ATOM      5  N   UNL     1      15.877   6.599  20.704  0.00  0.00    -0.341 N 
ATOM      6  N   UNL     1      16.178   8.562  21.703  0.00  0.00    -0.232 NA
ATOM     11  C   UNL     1      15.289   7.699  21.264  0.00  0.00    +0.113 A 
ATOM     13  C   UNL     1      17.235   6.762  20.787  0.00  0.00    +0.070 A 
ATOM     14  C   UNL     1      17.399   7.994  21.416  0.00  0.00    +0.089 A 
ATOM     16  C   UNL     1      18.304   5.962  20.381  0.00  0.00    +0.073 A 
ATOM     17  C   UNL     1      18.697   8.472  21.658  0.00  0.00    +0.033 A 
ATOM     18  C   UNL     1      19.589   6.453  20.631  0.00  0.00    +0.122 A 
ATOM     19  C   UNL     1      19.785   7.685  21.259  0.00  0.00    +0.048 A 
ATOM     22  H   UNL     1      15.397   5.804  20.301  0.00  0.00    +0.167 HD
ENDROOT
BRANCH  11   7
ATOM      1  O   UNL     1      12.092   6.928  17.482  0.00  0.00    -0.273 OA
ATOM      4  N   UNL     1      12.818   8.284  19.206  0.00  0.00    -0.299 N 
ATOM      7  C   UNL     1      13.778   7.838  21.334  0.00  0.00    +0.074 C 
ATOM      8  C   UNL     1      13.341   9.309  21.267  0.00  0.00    +0.032 C 
ATOM      9  C   UNL     1      12.978   7.214  20.184  0.00  0.00    +0.119 C 
ATOM     10  C   UNL     1      13.178   9.578  19.776  0.00  0.00    +0.108 C 
ATOM     12  C   UNL     1      12.385   8.044  17.915  0.00  0.00    +0.241 C 
BRANCH  12  15
ATOM     15  C   UNL     1      12.280   9.258  17.028  0.00  0.00    +0.255 C 
BRANCH  15   2
ATOM      2  O   UNL     1      12.895   8.921  15.808  0.00  0.00    -0.374 OA
ATOM     20  C   UNL     1      14.198   9.489  15.689  0.00  0.00    +0.194 C 
ENDBRANCH  15   2
ENDBRANCH  12  15
ENDBRANCH  11   7
BRANCH  18   3
ATOM      3  O   UNL     1      20.672   5.714  20.255  0.00  0.00    -0.495 OA
ATOM     21  C   UNL     1      21.275   4.897  21.256  0.00  0.00    +0.277 C 
ENDBRANCH  18   3
TORSDOF 4
ENDMDL
MODEL 5
REMARK VINA RESULT:      -5.8     13.128     16.698
REMARK  Name = 45784065
REMARK  6 active torsions:
REMARK  status: ('A' for Active; 'I' for Inactive)
REMARK    1  A    between atoms: O_2  and  C_15
REMARK    2  A    between atoms: O_2  and  C_20
REMARK    3  A    between atoms: O_3  and  C_18
REMARK    4  A    between atoms: O_3  and  C_21
REMARK    5  A    between atoms: C_7  and  C_11
REMARK    6  A    between atoms: C_12  and  C_15
REMARK                            x       y       z     vdW  Elec       q    Type
REMARK                         _______ _______ _______ _____ _____    ______ ____
ROOT
ATOM      5  N   UNL     1      10.527   5.138   4.689  0.00  0.00    -0.341 N 
ATOM      6  N   UNL     1       9.209   6.906   4.404  0.00  0.00    -0.232 NA
ATOM     11  C   UNL     1       9.953   6.006   3.801  0.00  0.00    +0.113 A 
ATOM     13  C   UNL     1      10.126   5.503   5.949  0.00  0.00    +0.070 A 
ATOM     14  C   UNL     1       9.304   6.608   5.745  0.00  0.00    +0.089 A 
ATOM     16  C   UNL     1      10.403   4.977   7.211  0.00  0.00    +0.073 A 
ATOM     17  C   UNL     1       8.717   7.239   6.854  0.00  0.00    +0.033 A 
ATOM     18  C   UNL     1       9.810   5.617   8.304  0.00  0.00    +0.122 A 
ATOM     19  C   UNL     1       8.980   6.727   8.131  0.00  0.00    +0.048 A 
ATOM     22  H   UNL     1      11.137   4.364   4.461  0.00  0.00    +0.167 HD
ENDROOT
BRANCH  11   7
ATOM      1  O   UNL     1      13.045   2.738   1.592  0.00  0.00    -0.273 OA
ATOM      4  N   UNL     1      12.312   4.918   1.817  0.00  0.00    -0.299 N 
ATOM      7  C   UNL     1      10.194   5.880   2.307  0.00  0.00    +0.074 C 
ATOM      8  C   UNL     1      11.147   6.971   1.794  0.00  0.00    +0.032 C 
ATOM      9  C   UNL     1      10.889   4.599   1.829  0.00  0.00    +0.119 C 
ATOM     10  C   UNL     1      12.532   6.354   1.950  0.00  0.00    +0.108 C 
ATOM     12  C   UNL     1      13.285   3.942   1.702  0.00  0.00    +0.241 C 
BRANCH  12  15
ATOM     15  C   UNL     1      14.708   4.438   1.713  0.00  0.00    +0.255 C 
BRANCH  15   2
ATOM      2  O   UNL     1      15.421   3.639   0.801  0.00  0.00    -0.374 OA
ATOM     20  C   UNL     1      15.487   4.233  -0.494  0.00  0.00    +0.194 C 
ENDBRANCH  15   2
ENDBRANCH  12  15
ENDBRANCH  11   7
BRANCH  18   3
ATOM      3  O   UNL     1      10.045   5.146   9.562  0.00  0.00    -0.495 OA
ATOM     21  C   UNL     1       8.933   4.597  10.265  0.00  0.00    +0.277 C 
ENDBRANCH  18   3
TORSDOF 4
ENDMDL
MODEL 6
REMARK VINA RESULT:      -5.7      4.381      7.418
REMARK  Name = 45784065
REMARK  6 active torsions:
REMARK  status: ('A' for Active; 'I' for Inactive)
REMARK    1  A    between atoms: O_2  and  C_15
REMARK    2  A    between atoms: O_2  and  C_20
REMARK    3  A    between atoms: O_3  and  C_18
REMARK    4  A    between atoms: O_3  and  C_21
REMARK    5  A    between atoms: C_7  and  C_11
REMARK    6  A    between atoms: C_12  and  C_15
REMARK                            x       y       z     vdW  Elec       q    Type
REMARK                         _______ _______ _______ _____ _____    ______ ____
ROOT
ATOM      5  N   UNL     1      11.460   9.683  23.479  0.00  0.00    -0.341 N 
ATOM      6  N   UNL     1      11.805  10.283  21.366  0.00  0.00    -0.232 NA
ATOM     11  C   UNL     1      11.848   9.291  22.227  0.00  0.00    +0.113 A 
ATOM     13  C   UNL     1      11.146  11.017  23.420  0.00  0.00    +0.070 A 
ATOM     14  C   UNL     1      11.369  11.368  22.091  0.00  0.00    +0.089 A 
ATOM     16  C   UNL     1      10.699  11.919  24.386  0.00  0.00    +0.073 A 
ATOM     17  C   UNL     1      11.139  12.693  21.685  0.00  0.00    +0.033 A 
ATOM     18  C   UNL     1      10.475  13.233  23.964  0.00  0.00    +0.122 A 
ATOM     19  C   UNL     1      10.689  13.615  22.638  0.00  0.00    +0.048 A 
ATOM     22  H   UNL     1      11.410   9.096  24.301  0.00  0.00    +0.167 HD
ENDROOT
BRANCH  11   7
ATOM      1  O   UNL     1      15.772   7.874  19.451  0.00  0.00    -0.273 OA
ATOM      4  N   UNL     1      13.522   7.672  19.934  0.00  0.00    -0.299 N 
ATOM      7  C   UNL     1      12.265   7.858  21.943  0.00  0.00    +0.074 C 
ATOM      8  C   UNL     1      11.393   7.222  20.849  0.00  0.00    +0.032 C 
ATOM      9  C   UNL     1      13.678   7.654  21.384  0.00  0.00    +0.119 C 
ATOM     10  C   UNL     1      12.117   7.566  19.553  0.00  0.00    +0.108 C 
ATOM     12  C   UNL     1      14.601   7.787  19.078  0.00  0.00    +0.241 C 
BRANCH  12  15
ATOM     15  C   UNL     1      14.267   7.797  17.607  0.00  0.00    +0.255 C 
BRANCH  15   2
ATOM      2  O   UNL     1      14.320   9.140  17.191  0.00  0.00    -0.374 OA
ATOM     20  C   UNL     1      13.630   9.348  15.961  0.00  0.00    +0.194 C 
ENDBRANCH  15   2
ENDBRANCH  12  15
ENDBRANCH  11   7
BRANCH  18   3
ATOM      3  O   UNL     1      10.038  14.159  24.866  0.00  0.00    -0.495 OA
ATOM     21  C   UNL     1      10.863  14.391  26.005  0.00  0.00    +0.277 C 
ENDBRANCH  18   3
TORSDOF 4
ENDMDL
MODEL 7
REMARK VINA RESULT:      -5.7     13.704     17.282
REMARK  Name = 45784065
REMARK  6 active torsions:
REMARK  status: ('A' for Active; 'I' for Inactive)
REMARK    1  A    between atoms: O_2  and  C_15
REMARK    2  A    between atoms: O_2  and  C_20
REMARK    3  A    between atoms: O_3  and  C_18
REMARK    4  A    between atoms: O_3  and  C_21
REMARK    5  A    between atoms: C_7  and  C_11
REMARK    6  A    between atoms: C_12  and  C_15
REMARK                            x       y       z     vdW  Elec       q    Type
REMARK                         _______ _______ _______ _____ _____    ______ ____
ROOT
ATOM      5  N   UNL     1      10.320   4.092   4.488  0.00  0.00    -0.341 N 
ATOM      6  N   UNL     1      10.225   6.067   3.470  0.00  0.00    -0.232 NA
ATOM     11  C   UNL     1      10.440   4.779   3.312  0.00  0.00    +0.113 A 
ATOM     13  C   UNL     1      10.007   4.997   5.470  0.00  0.00    +0.070 A 
ATOM     14  C   UNL     1       9.953   6.221   4.810  0.00  0.00    +0.089 A 
ATOM     16  C   UNL     1       9.772   4.853   6.838  0.00  0.00    +0.073 A 
ATOM     17  C   UNL     1       9.651   7.381   5.542  0.00  0.00    +0.033 A 
ATOM     18  C   UNL     1       9.473   6.018   7.551  0.00  0.00    +0.122 A 
ATOM     19  C   UNL     1       9.412   7.261   6.917  0.00  0.00    +0.048 A 
ATOM     22  H   UNL     1      10.438   3.096   4.614  0.00  0.00    +0.167 HD
ENDROOT
BRANCH  11   7
ATOM      1  O   UNL     1      14.987   3.157   1.968  0.00  0.00    -0.273 OA
ATOM      4  N   UNL     1      13.071   4.329   1.426  0.00  0.00    -0.299 N 
ATOM      7  C   UNL     1      10.783   4.069   2.014  0.00  0.00    +0.074 C 
ATOM      8  C   UNL     1      10.903   5.056   0.843  0.00  0.00    +0.032 C 
ATOM      9  C   UNL     1      12.136   3.348   1.963  0.00  0.00    +0.119 C 
ATOM     10  C   UNL     1      12.368   5.476   0.863  0.00  0.00    +0.108 C 
ATOM     12  C   UNL     1      14.441   4.148   1.479  0.00  0.00    +0.241 C 
BRANCH  12  15
ATOM     15  C   UNL     1      15.268   5.260   0.886  0.00  0.00    +0.255 C 
BRANCH  15   2
ATOM      2  O   UNL     1      16.142   4.662  -0.041  0.00  0.00    -0.374 OA
ATOM     20  C   UNL     1      15.500   4.392  -1.286  0.00  0.00    +0.194 C 
ENDBRANCH  15   2
ENDBRANCH  12  15
ENDBRANCH  11   7
BRANCH  18   3
ATOM      3  O   UNL     1       9.235   5.938   8.892  0.00  0.00    -0.495 OA
ATOM     21  C   UNL     1       9.427   4.666   9.507  0.00  0.00    +0.277 C 
ENDBRANCH  18   3
TORSDOF 4
ENDMDL
MODEL 8
REMARK VINA RESULT:      -5.7     25.918     27.837
REMARK  Name = 45784065
REMARK  6 active torsions:
REMARK  status: ('A' for Active; 'I' for Inactive)
REMARK    1  A    between atoms: O_2  and  C_15
REMARK    2  A    between atoms: O_2  and  C_20
REMARK    3  A    between atoms: O_3  and  C_18
REMARK    4  A    between atoms: O_3  and  C_21
REMARK    5  A    between atoms: C_7  and  C_11
REMARK    6  A    between atoms: C_12  and  C_15
REMARK                            x       y       z     vdW  Elec       q    Type
REMARK                         _______ _______ _______ _____ _____    ______ ____
ROOT
ATOM      5  N   UNL     1      -4.268 -10.271  15.279  0.00  0.00    -0.341 N 
ATOM      6  N   UNL     1      -3.265 -11.119  17.074  0.00  0.00    -0.232 NA
ATOM     11  C   UNL     1      -3.134 -10.836  15.797  0.00  0.00    +0.113 A 
ATOM     13  C   UNL     1      -5.190 -10.184  16.290  0.00  0.00    +0.070 A 
ATOM     14  C   UNL     1      -4.540 -10.718  17.400  0.00  0.00    +0.089 A 
ATOM     16  C   UNL     1      -6.497  -9.697  16.328  0.00  0.00    +0.073 A 
ATOM     17  C   UNL     1      -5.221 -10.780  18.627  0.00  0.00    +0.033 A 
ATOM     18  C   UNL     1      -7.159  -9.766  17.558  0.00  0.00    +0.122 A 
ATOM     19  C   UNL     1      -6.534 -10.297  18.689  0.00  0.00    +0.048 A 
ATOM     22  H   UNL     1      -4.403  -9.970  14.324  0.00  0.00    +0.167 HD
ENDROOT
BRANCH  11   7
ATOM      1  O   UNL     1      -2.640  -9.557  10.977  0.00  0.00    -0.273 OA
ATOM      4  N   UNL     1      -2.442 -11.169  12.620  0.00  0.00    -0.299 N 
ATOM      7  C   UNL     1      -1.908 -11.077  14.934  0.00  0.00    +0.074 C 
ATOM      8  C   UNL     1      -1.835 -12.533  14.448  0.00  0.00    +0.032 C 
ATOM      9  C   UNL     1      -1.832 -10.296  13.616  0.00  0.00    +0.119 C 
ATOM     10  C   UNL     1      -2.611 -12.523  13.136  0.00  0.00    +0.108 C 
ATOM     12  C   UNL     1      -2.804 -10.715  11.365  0.00  0.00    +0.241 C 
BRANCH  12  15
ATOM     15  C   UNL     1      -3.430 -11.743  10.457  0.00  0.00    +0.255 C 
BRANCH  15   2
ATOM      2  O   UNL     1      -4.590 -11.155   9.921  0.00  0.00    -0.374 OA
ATOM     20  C   UNL     1      -4.535 -11.058   8.499  0.00  0.00    +0.194 C 
ENDBRANCH  15   2
ENDBRANCH  12  15
ENDBRANCH  11   7
BRANCH  18   3
ATOM      3  O   UNL     1      -8.439  -9.305  17.655  0.00  0.00    -0.495 OA
ATOM     21  C   UNL     1      -9.034  -8.798  16.463  0.00  0.00    +0.277 C 
ENDBRANCH  18   3
TORSDOF 4
ENDMDL
MODEL 9
REMARK VINA RESULT:      -5.7      4.042      7.582
REMARK  Name = 45784065
REMARK  6 active torsions:
REMARK  status: ('A' for Active; 'I' for Inactive)
REMARK    1  A    between atoms: O_2  and  C_15
REMARK    2  A    between atoms: O_2  and  C_20
REMARK    3  A    between atoms: O_3  and  C_18
REMARK    4  A    between atoms: O_3  and  C_21
REMARK    5  A    between atoms: C_7  and  C_11
REMARK    6  A    between atoms: C_12  and  C_15
REMARK                            x       y       z     vdW  Elec       q    Type
REMARK                         _______ _______ _______ _____ _____    ______ ____
ROOT
ATOM      5  N   UNL     1      11.505   8.912  22.541  0.00  0.00    -0.341 N 
ATOM      6  N   UNL     1      11.711  10.165  20.716  0.00  0.00    -0.232 NA
ATOM     11  C   UNL     1      11.768   8.944  21.199  0.00  0.00    +0.113 A 
ATOM     13  C   UNL     1      11.261  10.198  22.950  0.00  0.00    +0.070 A 
ATOM     14  C   UNL     1      11.395  10.961  21.793  0.00  0.00    +0.089 A 
ATOM     16  C   UNL     1      10.944  10.742  24.195  0.00  0.00    +0.073 A 
ATOM     17  C   UNL     1      11.207  12.351  21.865  0.00  0.00    +0.033 A 
ATOM     18  C   UNL     1      10.759  12.127  24.247  0.00  0.00    +0.122 A 
ATOM     19  C   UNL     1      10.887  12.920  23.104  0.00  0.00    +0.048 A 
ATOM     22  H   UNL     1      11.489   8.088  23.128  0.00  0.00    +0.167 HD
ENDROOT
BRANCH  11   7
ATOM      1  O   UNL     1      15.897   6.147  21.698  0.00  0.00    -0.273 OA
ATOM      4  N   UNL     1      14.417   7.249  20.308  0.00  0.00    -0.299 N 
ATOM      7  C   UNL     1      12.081   7.675  20.426  0.00  0.00    +0.074 C 
ATOM      8  C   UNL     1      12.589   7.986  19.010  0.00  0.00    +0.032 C 
ATOM      9  C   UNL     1      13.207   6.793  20.981  0.00  0.00    +0.119 C 
ATOM     10  C   UNL     1      14.098   8.116  19.178  0.00  0.00    +0.108 C 
ATOM     12  C   UNL     1      15.681   6.884  20.735  0.00  0.00    +0.241 C 
BRANCH  12  15
ATOM     15  C   UNL     1      16.826   7.448  19.933  0.00  0.00    +0.255 C 
BRANCH  15   2
ATOM      2  O   UNL     1      17.819   7.823  20.857  0.00  0.00    -0.374 OA
ATOM     20  C   UNL     1      17.707   9.193  21.237  0.00  0.00    +0.194 C 
ENDBRANCH  15   2
ENDBRANCH  12  15
ENDBRANCH  11   7
BRANCH  18   3
ATOM      3  O   UNL     1      10.448  12.715  25.438  0.00  0.00    -0.495 OA
ATOM     21  C   UNL     1      10.553  14.136  25.503  0.00  0.00    +0.277 C 
ENDBRANCH  18   3
TORSDOF 4
ENDMDL
MODEL 10
REMARK VINA RESULT:      -5.6     26.394     27.890
REMARK  Name = 45784065
REMARK  6 active torsions:
REMARK  status: ('A' for Active; 'I' for Inactive)
REMARK    1  A    between atoms: O_2  and  C_15
REMARK    2  A    between atoms: O_2  and  C_20
REMARK    3  A    between atoms: O_3  and  C_18
REMARK    4  A    between atoms: O_3  and  C_21
REMARK    5  A    between atoms: C_7  and  C_11
REMARK    6  A    between atoms: C_12  and  C_15
REMARK                            x       y       z     vdW  Elec       q    Type
REMARK                         _______ _______ _______ _____ _____    ______ ____
ROOT
ATOM      5  N   UNL     1      -2.998 -12.060  15.721  0.00  0.00    -0.341 N 
ATOM      6  N   UNL     1      -4.003 -10.459  14.550  0.00  0.00    -0.232 NA
ATOM     11  C   UNL     1      -3.034 -11.348  14.553  0.00  0.00    +0.113 A 
ATOM     13  C   UNL     1      -4.010 -11.600  16.523  0.00  0.00    +0.070 A 
ATOM     14  C   UNL     1      -4.623 -10.602  15.770  0.00  0.00    +0.089 A 
ATOM     16  C   UNL     1      -4.430 -11.961  17.804  0.00  0.00    +0.073 A 
ATOM     17  C   UNL     1      -5.720  -9.912  16.312  0.00  0.00    +0.033 A 
ATOM     18  C   UNL     1      -5.524 -11.264  18.327  0.00  0.00    +0.122 A 
ATOM     19  C   UNL     1      -6.159 -10.258  17.597  0.00  0.00    +0.048 A 
ATOM     22  H   UNL     1      -2.343 -12.796  15.952  0.00  0.00    +0.167 HD
ENDROOT
BRANCH  11   7
ATOM      1  O   UNL     1      -2.896  -8.992  10.132  0.00  0.00    -0.273 OA
ATOM      4  N   UNL     1      -2.891 -10.980  11.309  0.00  0.00    -0.299 N 
ATOM      7  C   UNL     1      -2.039 -11.610  13.437  0.00  0.00    +0.074 C 
ATOM      8  C   UNL     1      -2.406 -12.870  12.637  0.00  0.00    +0.032 C 
ATOM      9  C   UNL     1      -1.949 -10.548  12.335  0.00  0.00    +0.119 C 
ATOM     10  C   UNL     1      -3.326 -12.354  11.537  0.00  0.00    +0.108 C 
ATOM     12  C   UNL     1      -3.294 -10.149  10.280  0.00  0.00    +0.241 C 
BRANCH  12  15
ATOM     15  C   UNL     1      -4.279 -10.747   9.308  0.00  0.00    +0.255 C 
BRANCH  15   2
ATOM      2  O   UNL     1      -4.667  -9.712   8.438  0.00  0.00    -0.374 OA
ATOM     20  C   UNL     1      -6.037  -9.354   8.608  0.00  0.00    +0.194 C 
ENDBRANCH  15   2
ENDBRANCH  12  15
ENDBRANCH  11   7
BRANCH  18   3
ATOM      3  O   UNL     1      -5.978 -11.574  19.576  0.00  0.00    -0.495 OA
ATOM     21  C   UNL     1      -7.299 -12.101  19.669  0.00  0.00    +0.277 C 
ENDBRANCH  18   3
TORSDOF 4
ENDMDL
