MODEL 1
REMARK VINA RESULT:      -8.1      0.000      0.000
REMARK  Name = 11912496
REMARK  9 active torsions:
REMARK  status: ('A' for Active; 'I' for Inactive)
REMARK    1  A    between atoms: O_3  and  C_14
REMARK    2  A    between atoms: O_3  and  C_18
REMARK    3  A    between atoms: O_5  and  C_33
REMARK    4  A    between atoms: O_5  and  C_36
REMARK    5  A    between atoms: N_7  and  C_13
REMARK    6  A    between atoms: N_10  and  C_22
REMARK    7  A    between atoms: C_19  and  C_23
REMARK    8  A    between atoms: C_30  and  C_34
REMARK    9  A    between atoms: C_34  and  C_35
REMARK                            x       y       z     vdW  Elec       q    Type
REMARK                         _______ _______ _______ _____ _____    ______ ____
ROOT
ATOM      1  O   UNL     1      -4.440  -9.175  10.083  0.00  0.00    -0.368 OA
ATOM      2  O   UNL     1      -5.977 -11.789  10.548  0.00  0.00    -0.368 OA
ATOM     11  C   UNL     1      -4.596 -11.438  10.775  0.00  0.00    +0.173 C 
ATOM     12  C   UNL     1      -4.186 -10.518   9.642  0.00  0.00    +0.192 C 
ATOM     13  C   UNL     1      -4.478 -10.574  12.008  0.00  0.00    +0.130 C 
ATOM     14  C   UNL     1      -5.123 -10.929   8.531  0.00  0.00    +0.235 C 
ATOM     15  C   UNL     1      -4.814  -9.193  11.470  0.00  0.00    +0.185 C 
ATOM     16  C   UNL     1      -6.393 -11.245   9.287  0.00  0.00    +0.207 C 
ENDROOT
BRANCH  13   7
ATOM      7  N   UNL     1      -3.122 -10.600  12.512  0.00  0.00    -0.306 N 
ATOM      8  N   UNL     1      -3.843 -10.634  14.719  0.00  0.00    -0.214 NA
ATOM      9  N   UNL     1      -1.497 -10.655  14.170  0.00  0.00    -0.223 NA
ATOM     17  C   UNL     1      -2.807 -10.632  13.859  0.00  0.00    +0.216 A 
ATOM     19  C   UNL     1      -3.500 -10.664  16.024  0.00  0.00    +0.076 A 
ATOM     20  C   UNL     1      -1.225 -10.685  15.491  0.00  0.00    +0.116 A 
ATOM     21  C   UNL     1      -2.195 -10.692  16.473  0.00  0.00    +0.048 A 
ATOM     37  H   UNL     1      -2.348 -10.651  11.858  0.00  0.00    +0.149 HD
BRANCH  19  23
ATOM     23  C   UNL     1      -4.607 -10.669  16.949  0.00  0.00    +0.001 A 
ATOM     26  C   UNL     1      -5.791 -10.008  16.620  0.00  0.00    +0.013 A 
ATOM     27  C   UNL     1      -4.495 -11.332  18.171  0.00  0.00    +0.013 A 
ATOM     31  C   UNL     1      -6.862 -10.010  17.514  0.00  0.00    +0.046 A 
ATOM     32  C   UNL     1      -5.566 -11.334  19.065  0.00  0.00    +0.046 A 
ATOM     33  C   UNL     1      -6.749 -10.673  18.736  0.00  0.00    +0.120 A 
BRANCH  33   5
ATOM      5  O   UNL     1      -7.796 -10.677  19.607  0.00  0.00    -0.495 OA
ATOM     36  C   UNL     1      -8.809 -11.659  19.400  0.00  0.00    +0.277 C 
ENDBRANCH  33   5
ENDBRANCH  19  23
ENDBRANCH  13   7
BRANCH  14   3
ATOM      3  O   UNL     1      -5.318  -9.926   7.560  0.00  0.00    -0.442 OA
BRANCH   3  18
ATOM      4  O   UNL     1      -7.420  -9.887   6.659  0.00  0.00    -0.226 OA
ATOM     10  N   UNL     1      -6.757  -8.353   8.298  0.00  0.00    -0.251 N 
ATOM     18  C   UNL     1      -6.595  -9.419   7.435  0.00  0.00    +0.405 C 
ATOM     38  H   UNL     1      -5.950  -8.110   8.869  0.00  0.00    +0.158 HD
BRANCH  10  22
ATOM     22  C   UNL     1      -7.906  -7.553   8.488  0.00  0.00    +0.036 A 
ATOM     24  C   UNL     1      -7.893  -6.210   8.109  0.00  0.00    +0.024 A 
ATOM     25  C   UNL     1      -9.054  -8.105   9.056  0.00  0.00    +0.024 A 
ATOM     28  C   UNL     1      -9.027  -5.420   8.298  0.00  0.00    +0.013 A 
ATOM     29  C   UNL     1     -10.188  -7.315   9.245  0.00  0.00    +0.013 A 
ATOM     30  C   UNL     1     -10.175  -5.973   8.866  0.00  0.00    +0.017 A 
BRANCH  30  34
ATOM      6  O   UNL     1     -12.505  -5.616   8.926  0.00  0.00    -0.292 OA
ATOM     34  C   UNL     1     -11.357  -5.149   9.061  0.00  0.00    +0.160 C 
ATOM     35  C   UNL     1     -11.216  -3.679   9.440  0.00  0.00    +0.091 C 
ENDBRANCH  30  34
ENDBRANCH  10  22
ENDBRANCH   3  18
ENDBRANCH  14   3
TORSDOF 7
ENDMDL
MODEL 2
REMARK VINA RESULT:      -7.9      3.195      5.682
REMARK  Name = 11912496
REMARK  9 active torsions:
REMARK  status: ('A' for Active; 'I' for Inactive)
REMARK    1  A    between atoms: O_3  and  C_14
REMARK    2  A    between atoms: O_3  and  C_18
REMARK    3  A    between atoms: O_5  and  C_33
REMARK    4  A    between atoms: O_5  and  C_36
REMARK    5  A    between atoms: N_7  and  C_13
REMARK    6  A    between atoms: N_10  and  C_22
REMARK    7  A    between atoms: C_19  and  C_23
REMARK    8  A    between atoms: C_30  and  C_34
REMARK    9  A    between atoms: C_34  and  C_35
REMARK                            x       y       z     vdW  Elec       q    Type
REMARK                         _______ _______ _______ _____ _____    ______ ____
ROOT
ATOM      1  O   UNL     1      -5.147  -9.159  10.345  0.00  0.00    -0.368 OA
ATOM      2  O   UNL     1      -6.439 -11.913  10.741  0.00  0.00    -0.368 OA
ATOM     11  C   UNL     1      -5.074 -11.468  10.884  0.00  0.00    +0.173 C 
ATOM     12  C   UNL     1      -4.829 -10.446   9.791  0.00  0.00    +0.192 C 
ATOM     13  C   UNL     1      -4.920 -10.678  12.163  0.00  0.00    +0.130 C 
ATOM     14  C   UNL     1      -5.821 -10.859   8.730  0.00  0.00    +0.235 C 
ATOM     15  C   UNL     1      -5.402  -9.297  11.752  0.00  0.00    +0.185 C 
ATOM     16  C   UNL     1      -6.997 -11.324   9.557  0.00  0.00    +0.207 C 
ENDROOT
BRANCH  13   7
ATOM      7  N   UNL     1      -3.528 -10.627  12.558  0.00  0.00    -0.306 N 
ATOM      8  N   UNL     1      -4.069 -10.691  14.815  0.00  0.00    -0.214 NA
ATOM      9  N   UNL     1      -1.776 -10.586  14.081  0.00  0.00    -0.223 NA
ATOM     17  C   UNL     1      -3.106 -10.636  13.875  0.00  0.00    +0.216 A 
ATOM     19  C   UNL     1      -3.622 -10.697  16.089  0.00  0.00    +0.076 A 
ATOM     20  C   UNL     1      -1.399 -10.595  15.376  0.00  0.00    +0.116 A 
ATOM     21  C   UNL     1      -2.286 -10.651  16.433  0.00  0.00    +0.048 A 
ATOM     37  H   UNL     1      -2.808 -10.638  11.845  0.00  0.00    +0.149 HD
BRANCH  19  23
ATOM     23  C   UNL     1      -4.651 -10.759  17.099  0.00  0.00    +0.001 A 
ATOM     26  C   UNL     1      -5.886 -10.151  16.872  0.00  0.00    +0.013 A 
ATOM     27  C   UNL     1      -4.412 -11.425  18.301  0.00  0.00    +0.013 A 
ATOM     31  C   UNL     1      -6.880 -10.208  17.848  0.00  0.00    +0.046 A 
ATOM     32  C   UNL     1      -5.406 -11.483  19.277  0.00  0.00    +0.046 A 
ATOM     33  C   UNL     1      -6.641 -10.874  19.051  0.00  0.00    +0.120 A 
BRANCH  33   5
ATOM      5  O   UNL     1      -7.613 -10.931  20.002  0.00  0.00    -0.495 OA
ATOM     36  C   UNL     1      -8.945 -11.172  19.554  0.00  0.00    +0.277 C 
ENDBRANCH  33   5
ENDBRANCH  19  23
ENDBRANCH  13   7
BRANCH  14   3
ATOM      3  O   UNL     1      -6.171  -9.814   7.851  0.00  0.00    -0.442 OA
BRANCH   3  18
ATOM      4  O   UNL     1      -6.392  -9.288   5.636  0.00  0.00    -0.226 OA
ATOM     10  N   UNL     1      -5.196 -11.173   6.339  0.00  0.00    -0.251 N 
ATOM     18  C   UNL     1      -5.954 -10.031   6.506  0.00  0.00    +0.405 C 
ATOM     38  H   UNL     1      -4.924 -11.662   7.189  0.00  0.00    +0.158 HD
BRANCH  10  22
ATOM     22  C   UNL     1      -4.749 -11.753   5.129  0.00  0.00    +0.036 A 
ATOM     24  C   UNL     1      -3.399 -12.056   4.957  0.00  0.00    +0.024 A 
ATOM     25  C   UNL     1      -5.659 -12.020   4.106  0.00  0.00    +0.024 A 
ATOM     28  C   UNL     1      -2.958 -12.625   3.763  0.00  0.00    +0.013 A 
ATOM     29  C   UNL     1      -5.218 -12.590   2.912  0.00  0.00    +0.013 A 
ATOM     30  C   UNL     1      -3.868 -12.893   2.740  0.00  0.00    +0.017 A 
BRANCH  30  34
ATOM      6  O   UNL     1      -2.704 -12.849   0.689  0.00  0.00    -0.292 OA
ATOM     34  C   UNL     1      -3.407 -13.489   1.496  0.00  0.00    +0.160 C 
ATOM     35  C   UNL     1      -3.778 -14.926   1.149  0.00  0.00    +0.091 C 
ENDBRANCH  30  34
ENDBRANCH  10  22
ENDBRANCH   3  18
ENDBRANCH  14   3
TORSDOF 7
ENDMDL
MODEL 3
REMARK VINA RESULT:      -7.9      4.164      7.157
REMARK  Name = 11912496
REMARK  9 active torsions:
REMARK  status: ('A' for Active; 'I' for Inactive)
REMARK    1  A    between atoms: O_3  and  C_14
REMARK    2  A    between atoms: O_3  and  C_18
REMARK    3  A    between atoms: O_5  and  C_33
REMARK    4  A    between atoms: O_5  and  C_36
REMARK    5  A    between atoms: N_7  and  C_13
REMARK    6  A    between atoms: N_10  and  C_22
REMARK    7  A    between atoms: C_19  and  C_23
REMARK    8  A    between atoms: C_30  and  C_34
REMARK    9  A    between atoms: C_34  and  C_35
REMARK                            x       y       z     vdW  Elec       q    Type
REMARK                         _______ _______ _______ _____ _____    ______ ____
ROOT
ATOM      1  O   UNL     1     -11.499  -8.610  17.452  0.00  0.00    -0.368 OA
ATOM      2  O   UNL     1      -9.491  -8.564  15.134  0.00  0.00    -0.368 OA
ATOM     11  C   UNL     1      -9.301  -8.642  16.562  0.00  0.00    +0.173 C 
ATOM     12  C   UNL     1     -10.365  -7.766  17.194  0.00  0.00    +0.192 C 
ATOM     13  C   UNL     1      -9.632 -10.031  17.052  0.00  0.00    +0.130 C 
ATOM     14  C   UNL     1     -10.652  -6.762  16.103  0.00  0.00    +0.235 C 
ATOM     15  C   UNL     1     -11.145  -9.977  17.185  0.00  0.00    +0.185 C 
ATOM     16  C   UNL     1     -10.518  -7.602  14.853  0.00  0.00    +0.207 C 
ENDROOT
BRANCH  13   7
ATOM      7  N   UNL     1      -9.023 -10.268  18.344  0.00  0.00    -0.306 N 
ATOM      8  N   UNL     1      -6.907 -10.480  17.413  0.00  0.00    -0.214 NA
ATOM      9  N   UNL     1      -7.255 -10.690  19.788  0.00  0.00    -0.223 NA
ATOM     17  C   UNL     1      -7.669 -10.488  18.523  0.00  0.00    +0.216 A 
ATOM     19  C   UNL     1      -5.592 -10.699  17.624  0.00  0.00    +0.076 A 
ATOM     20  C   UNL     1      -5.930 -10.903  19.926  0.00  0.00    +0.116 A 
ATOM     21  C   UNL     1      -5.041 -10.918  18.870  0.00  0.00    +0.048 A 
ATOM     37  H   UNL     1      -9.595 -10.220  19.180  0.00  0.00    +0.149 HD
BRANCH  19  23
ATOM     23  C   UNL     1      -4.771 -10.688  16.437  0.00  0.00    +0.001 A 
ATOM     26  C   UNL     1      -5.353 -10.458  15.190  0.00  0.00    +0.013 A 
ATOM     27  C   UNL     1      -3.397 -10.908  16.535  0.00  0.00    +0.013 A 
ATOM     31  C   UNL     1      -4.561 -10.450  14.042  0.00  0.00    +0.046 A 
ATOM     32  C   UNL     1      -2.605 -10.899  15.387  0.00  0.00    +0.046 A 
ATOM     33  C   UNL     1      -3.187 -10.670  14.140  0.00  0.00    +0.120 A 
BRANCH  33   5
ATOM      5  O   UNL     1      -2.415 -10.659  13.020  0.00  0.00    -0.495 OA
ATOM     36  C   UNL     1      -3.067 -10.373  11.784  0.00  0.00    +0.277 C 
ENDBRANCH  33   5
ENDBRANCH  19  23
ENDBRANCH  13   7
BRANCH  14   3
ATOM      3  O   UNL     1     -11.926  -6.167  16.208  0.00  0.00    -0.442 OA
BRANCH   3  18
ATOM      4  O   UNL     1     -13.439  -6.924  14.669  0.00  0.00    -0.226 OA
ATOM     10  N   UNL     1     -12.367  -4.857  14.426  0.00  0.00    -0.251 N 
ATOM     18  C   UNL     1     -12.660  -6.056  15.045  0.00  0.00    +0.405 C 
ATOM     38  H   UNL     1     -11.688  -4.262  14.895  0.00  0.00    +0.158 HD
BRANCH  10  22
ATOM     22  C   UNL     1     -12.896  -4.349  13.218  0.00  0.00    +0.036 A 
ATOM     24  C   UNL     1     -14.242  -3.992  13.140  0.00  0.00    +0.024 A 
ATOM     25  C   UNL     1     -12.071  -4.206  12.102  0.00  0.00    +0.024 A 
ATOM     28  C   UNL     1     -14.763  -3.492  11.947  0.00  0.00    +0.013 A 
ATOM     29  C   UNL     1     -12.593  -3.706  10.908  0.00  0.00    +0.013 A 
ATOM     30  C   UNL     1     -13.939  -3.349  10.831  0.00  0.00    +0.017 A 
BRANCH  30  34
ATOM      6  O   UNL     1     -14.090  -3.242   8.480  0.00  0.00    -0.292 OA
ATOM     34  C   UNL     1     -14.483  -2.826   9.588  0.00  0.00    +0.160 C 
ATOM     35  C   UNL     1     -15.561  -1.748   9.614  0.00  0.00    +0.091 C 
ENDBRANCH  30  34
ENDBRANCH  10  22
ENDBRANCH   3  18
ENDBRANCH  14   3
TORSDOF 7
ENDMDL
MODEL 4
REMARK VINA RESULT:      -7.6      3.732      9.268
REMARK  Name = 11912496
REMARK  9 active torsions:
REMARK  status: ('A' for Active; 'I' for Inactive)
REMARK    1  A    between atoms: O_3  and  C_14
REMARK    2  A    between atoms: O_3  and  C_18
REMARK    3  A    between atoms: O_5  and  C_33
REMARK    4  A    between atoms: O_5  and  C_36
REMARK    5  A    between atoms: N_7  and  C_13
REMARK    6  A    between atoms: N_10  and  C_22
REMARK    7  A    between atoms: C_19  and  C_23
REMARK    8  A    between atoms: C_30  and  C_34
REMARK    9  A    between atoms: C_34  and  C_35
REMARK                            x       y       z     vdW  Elec       q    Type
REMARK                         _______ _______ _______ _____ _____    ______ ____
ROOT
ATOM      1  O   UNL     1      -6.076 -12.290  19.103  0.00  0.00    -0.368 OA
ATOM      2  O   UNL     1      -7.362 -11.248  16.521  0.00  0.00    -0.368 OA
ATOM     11  C   UNL     1      -6.093 -10.957  17.142  0.00  0.00    +0.173 C 
ATOM     12  C   UNL     1      -6.328 -10.954  18.639  0.00  0.00    +0.192 C 
ATOM     13  C   UNL     1      -5.136 -12.106  16.925  0.00  0.00    +0.130 C 
ATOM     14  C   UNL     1      -7.790 -10.593  18.739  0.00  0.00    +0.235 C 
ATOM     15  C   UNL     1      -5.534 -13.073  18.028  0.00  0.00    +0.185 C 
ATOM     16  C   UNL     1      -8.375 -11.296  17.536  0.00  0.00    +0.207 C 
ENDROOT
BRANCH  13   7
ATOM      7  N   UNL     1      -3.770 -11.665  17.113  0.00  0.00    -0.306 N 
ATOM      8  N   UNL     1      -3.573 -11.020  14.891  0.00  0.00    -0.214 NA
ATOM      9  N   UNL     1      -1.742 -10.759  16.435  0.00  0.00    -0.223 NA
ATOM     17  C   UNL     1      -2.995 -11.124  16.102  0.00  0.00    +0.216 A 
ATOM     19  C   UNL     1      -2.789 -10.490  13.929  0.00  0.00    +0.076 A 
ATOM     20  C   UNL     1      -1.014 -10.237  15.427  0.00  0.00    +0.116 A 
ATOM     21  C   UNL     1      -1.489 -10.075  14.141  0.00  0.00    +0.048 A 
ATOM     37  H   UNL     1      -3.359 -11.698  18.039  0.00  0.00    +0.149 HD
BRANCH  19  23
ATOM     23  C   UNL     1      -3.406 -10.374  12.629  0.00  0.00    +0.001 A 
ATOM     26  C   UNL     1      -4.791 -10.481  12.505  0.00  0.00    +0.013 A 
ATOM     27  C   UNL     1      -2.619 -10.158  11.499  0.00  0.00    +0.013 A 
ATOM     31  C   UNL     1      -5.388 -10.371  11.250  0.00  0.00    +0.046 A 
ATOM     32  C   UNL     1      -3.216 -10.048  10.243  0.00  0.00    +0.046 A 
ATOM     33  C   UNL     1      -4.601 -10.155  10.118  0.00  0.00    +0.120 A 
BRANCH  33   5
ATOM      5  O   UNL     1      -5.185 -10.046   8.894  0.00  0.00    -0.495 OA
ATOM     36  C   UNL     1      -6.244  -9.100   8.761  0.00  0.00    +0.277 C 
ENDBRANCH  33   5
ENDBRANCH  19  23
ENDBRANCH  13   7
BRANCH  14   3
ATOM      3  O   UNL     1      -8.392 -11.014  19.943  0.00  0.00    -0.442 OA
BRANCH   3  18
ATOM      4  O   UNL     1     -10.224 -12.380  20.040  0.00  0.00    -0.226 OA
ATOM     10  N   UNL     1     -10.428 -10.070  19.717  0.00  0.00    -0.251 N 
ATOM     18  C   UNL     1      -9.749 -11.258  19.910  0.00  0.00    +0.405 C 
ATOM     38  H   UNL     1      -9.855  -9.234  19.630  0.00  0.00    +0.158 HD
BRANCH  10  22
ATOM     22  C   UNL     1     -11.824  -9.870  19.622  0.00  0.00    +0.036 A 
ATOM     24  C   UNL     1     -12.433  -9.779  18.371  0.00  0.00    +0.024 A 
ATOM     25  C   UNL     1     -12.593  -9.764  20.781  0.00  0.00    +0.024 A 
ATOM     28  C   UNL     1     -13.810  -9.580  18.277  0.00  0.00    +0.013 A 
ATOM     29  C   UNL     1     -13.971  -9.565  20.687  0.00  0.00    +0.013 A 
ATOM     30  C   UNL     1     -14.579  -9.474  19.436  0.00  0.00    +0.017 A 
BRANCH  30  34
ATOM      6  O   UNL     1     -16.825 -10.097  19.801  0.00  0.00    -0.292 OA
ATOM     34  C   UNL     1     -16.015  -9.268  19.338  0.00  0.00    +0.160 C 
ATOM     35  C   UNL     1     -16.569  -8.019  18.661  0.00  0.00    +0.091 C 
ENDBRANCH  30  34
ENDBRANCH  10  22
ENDBRANCH   3  18
ENDBRANCH  14   3
TORSDOF 7
ENDMDL
MODEL 5
REMARK VINA RESULT:      -7.5      2.839      3.985
REMARK  Name = 11912496
REMARK  9 active torsions:
REMARK  status: ('A' for Active; 'I' for Inactive)
REMARK    1  A    between atoms: O_3  and  C_14
REMARK    2  A    between atoms: O_3  and  C_18
REMARK    3  A    between atoms: O_5  and  C_33
REMARK    4  A    between atoms: O_5  and  C_36
REMARK    5  A    between atoms: N_7  and  C_13
REMARK    6  A    between atoms: N_10  and  C_22
REMARK    7  A    between atoms: C_19  and  C_23
REMARK    8  A    between atoms: C_30  and  C_34
REMARK    9  A    between atoms: C_34  and  C_35
REMARK                            x       y       z     vdW  Elec       q    Type
REMARK                         _______ _______ _______ _____ _____    ______ ____
ROOT
ATOM      1  O   UNL     1      -5.608  -8.507  11.031  0.00  0.00    -0.368 OA
ATOM      2  O   UNL     1      -6.487 -11.385  10.437  0.00  0.00    -0.368 OA
ATOM     11  C   UNL     1      -5.186 -10.817  10.697  0.00  0.00    +0.173 C 
ATOM     12  C   UNL     1      -5.166  -9.450  10.041  0.00  0.00    +0.192 C 
ATOM     13  C   UNL     1      -5.038 -10.517  12.170  0.00  0.00    +0.130 C 
ATOM     14  C   UNL     1      -6.175  -9.606   8.929  0.00  0.00    +0.235 C 
ATOM     15  C   UNL     1      -5.731  -9.171  12.299  0.00  0.00    +0.185 C 
ATOM     16  C   UNL     1      -7.210 -10.508   9.561  0.00  0.00    +0.207 C 
ENDROOT
BRANCH  13   7
ATOM      7  N   UNL     1      -3.639 -10.398  12.521  0.00  0.00    -0.306 N 
ATOM      8  N   UNL     1      -4.082 -10.702  14.780  0.00  0.00    -0.214 NA
ATOM      9  N   UNL     1      -1.834 -10.361  13.981  0.00  0.00    -0.223 NA
ATOM     17  C   UNL     1      -3.164 -10.491  13.817  0.00  0.00    +0.216 A 
ATOM     19  C   UNL     1      -3.585 -10.787  16.031  0.00  0.00    +0.076 A 
ATOM     20  C   UNL     1      -1.405 -10.456  15.256  0.00  0.00    +0.116 A 
ATOM     21  C   UNL     1      -2.242 -10.671  16.333  0.00  0.00    +0.048 A 
ATOM     37  H   UNL     1      -2.949 -10.292  11.785  0.00  0.00    +0.149 HD
BRANCH  19  23
ATOM     23  C   UNL     1      -4.565 -11.014  17.066  0.00  0.00    +0.001 A 
ATOM     26  C   UNL     1      -5.920 -10.822  16.795  0.00  0.00    +0.013 A 
ATOM     27  C   UNL     1      -4.159 -11.426  18.335  0.00  0.00    +0.013 A 
ATOM     31  C   UNL     1      -6.868 -11.040  17.795  0.00  0.00    +0.046 A 
ATOM     32  C   UNL     1      -5.107 -11.644  19.335  0.00  0.00    +0.046 A 
ATOM     33  C   UNL     1      -6.462 -11.451  19.064  0.00  0.00    +0.120 A 
BRANCH  33   5
ATOM      5  O   UNL     1      -7.388 -11.666  20.038  0.00  0.00    -0.495 OA
ATOM     36  C   UNL     1      -8.748 -11.388  19.713  0.00  0.00    +0.277 C 
ENDBRANCH  33   5
ENDBRANCH  19  23
ENDBRANCH  13   7
BRANCH  14   3
ATOM      3  O   UNL     1      -6.730  -8.384   8.496  0.00  0.00    -0.442 OA
BRANCH   3  18
ATOM      4  O   UNL     1      -8.768  -8.214   7.474  0.00  0.00    -0.226 OA
ATOM     10  N   UNL     1      -6.831  -8.750   6.273  0.00  0.00    -0.251 N 
ATOM     18  C   UNL     1      -7.565  -8.432   7.400  0.00  0.00    +0.405 C 
ATOM     38  H   UNL     1      -5.834  -8.896   6.412  0.00  0.00    +0.158 HD
BRANCH  10  22
ATOM     22  C   UNL     1      -7.295  -8.900   4.946  0.00  0.00    +0.036 A 
ATOM     24  C   UNL     1      -7.379 -10.170   4.376  0.00  0.00    +0.024 A 
ATOM     25  C   UNL     1      -7.666  -7.778   4.206  0.00  0.00    +0.024 A 
ATOM     28  C   UNL     1      -7.835 -10.318   3.066  0.00  0.00    +0.013 A 
ATOM     29  C   UNL     1      -8.122  -7.926   2.896  0.00  0.00    +0.013 A 
ATOM     30  C   UNL     1      -8.206  -9.196   2.326  0.00  0.00    +0.017 A 
BRANCH  30  34
ATOM      6  O   UNL     1      -8.239 -10.245   0.214  0.00  0.00    -0.292 OA
ATOM     34  C   UNL     1      -8.683  -9.350   0.961  0.00  0.00    +0.160 C 
ATOM     35  C   UNL     1      -9.750  -8.412   0.408  0.00  0.00    +0.091 C 
ENDBRANCH  30  34
ENDBRANCH  10  22
ENDBRANCH   3  18
ENDBRANCH  14   3
TORSDOF 7
ENDMDL
MODEL 6
REMARK VINA RESULT:      -7.4     24.959     26.682
REMARK  Name = 11912496
REMARK  9 active torsions:
REMARK  status: ('A' for Active; 'I' for Inactive)
REMARK    1  A    between atoms: O_3  and  C_14
REMARK    2  A    between atoms: O_3  and  C_18
REMARK    3  A    between atoms: O_5  and  C_33
REMARK    4  A    between atoms: O_5  and  C_36
REMARK    5  A    between atoms: N_7  and  C_13
REMARK    6  A    between atoms: N_10  and  C_22
REMARK    7  A    between atoms: C_19  and  C_23
REMARK    8  A    between atoms: C_30  and  C_34
REMARK    9  A    between atoms: C_34  and  C_35
REMARK                            x       y       z     vdW  Elec       q    Type
REMARK                         _______ _______ _______ _____ _____    ______ ____
ROOT
ATOM      1  O   UNL     1      11.301  13.501  10.174  0.00  0.00    -0.368 OA
ATOM      2  O   UNL     1       9.889  11.960  12.419  0.00  0.00    -0.368 OA
ATOM     11  C   UNL     1      11.267  11.976  11.989  0.00  0.00    +0.173 C 
ATOM     12  C   UNL     1      11.253  12.098  10.478  0.00  0.00    +0.192 C 
ATOM     13  C   UNL     1      11.938  13.247  12.452  0.00  0.00    +0.130 C 
ATOM     14  C   UNL     1       9.919  11.492  10.114  0.00  0.00    +0.235 C 
ATOM     15  C   UNL     1      11.520  14.243  11.384  0.00  0.00    +0.185 C 
ATOM     16  C   UNL     1       9.042  11.937  11.261  0.00  0.00    +0.207 C 
ENDROOT
BRANCH  13   7
ATOM      7  N   UNL     1      13.377  13.085  12.452  0.00  0.00    -0.306 N 
ATOM      8  N   UNL     1      13.309  11.631  14.261  0.00  0.00    -0.214 NA
ATOM      9  N   UNL     1      15.396  12.233  13.218  0.00  0.00    -0.223 NA
ATOM     17  C   UNL     1      14.056  12.281  13.349  0.00  0.00    +0.216 A 
ATOM     19  C   UNL     1      14.003  10.857  15.121  0.00  0.00    +0.076 A 
ATOM     20  C   UNL     1      16.027  11.440  14.109  0.00  0.00    +0.116 A 
ATOM     21  C   UNL     1      15.377  10.721  15.092  0.00  0.00    +0.048 A 
ATOM     37  H   UNL     1      13.928  13.536  11.730  0.00  0.00    +0.149 HD
BRANCH  19  23
ATOM     23  C   UNL     1      13.205  10.157  16.098  0.00  0.00    +0.001 A 
ATOM     26  C   UNL     1      12.077   9.444  15.693  0.00  0.00    +0.013 A 
ATOM     27  C   UNL     1      13.560  10.194  17.447  0.00  0.00    +0.013 A 
ATOM     31  C   UNL     1      11.304   8.768  16.637  0.00  0.00    +0.046 A 
ATOM     32  C   UNL     1      12.787   9.519  18.391  0.00  0.00    +0.046 A 
ATOM     33  C   UNL     1      11.658   8.806  17.986  0.00  0.00    +0.120 A 
BRANCH  33   5
ATOM      5  O   UNL     1      10.905   8.145  18.906  0.00  0.00    -0.495 OA
ATOM     36  C   UNL     1      11.171   8.417  20.281  0.00  0.00    +0.277 C 
ENDBRANCH  33   5
ENDBRANCH  19  23
ENDBRANCH  13   7
BRANCH  14   3
ATOM      3  O   UNL     1       9.424  11.929   8.868  0.00  0.00    -0.442 OA
BRANCH   3  18
ATOM      4  O   UNL     1       9.423  11.378   6.648  0.00  0.00    -0.226 OA
ATOM     10  N   UNL     1       9.632   9.752   8.319  0.00  0.00    -0.251 N 
ATOM     18  C   UNL     1       9.488  11.033   7.822  0.00  0.00    +0.405 C 
ATOM     38  H   UNL     1       9.667   9.663   9.331  0.00  0.00    +0.158 HD
BRANCH  10  22
ATOM     22  C   UNL     1       9.737   8.543   7.593  0.00  0.00    +0.036 A 
ATOM     24  C   UNL     1       8.584   7.861   7.204  0.00  0.00    +0.024 A 
ATOM     25  C   UNL     1      10.993   8.031   7.268  0.00  0.00    +0.024 A 
ATOM     28  C   UNL     1       8.688   6.667   6.489  0.00  0.00    +0.013 A 
ATOM     29  C   UNL     1      11.096   6.838   6.554  0.00  0.00    +0.013 A 
ATOM     30  C   UNL     1       9.943   6.156   6.164  0.00  0.00    +0.017 A 
BRANCH  30  34
ATOM      6  O   UNL     1       9.834   3.809   5.957  0.00  0.00    -0.292 OA
ATOM     34  C   UNL     1      10.050   4.913   5.418  0.00  0.00    +0.160 C 
ATOM     35  C   UNL     1      10.432   4.932   3.942  0.00  0.00    +0.091 C 
ENDBRANCH  30  34
ENDBRANCH  10  22
ENDBRANCH   3  18
ENDBRANCH  14   3
TORSDOF 7
ENDMDL
MODEL 7
REMARK VINA RESULT:      -7.3     27.722     31.405
REMARK  Name = 11912496
REMARK  9 active torsions:
REMARK  status: ('A' for Active; 'I' for Inactive)
REMARK    1  A    between atoms: O_3  and  C_14
REMARK    2  A    between atoms: O_3  and  C_18
REMARK    3  A    between atoms: O_5  and  C_33
REMARK    4  A    between atoms: O_5  and  C_36
REMARK    5  A    between atoms: N_7  and  C_13
REMARK    6  A    between atoms: N_10  and  C_22
REMARK    7  A    between atoms: C_19  and  C_23
REMARK    8  A    between atoms: C_30  and  C_34
REMARK    9  A    between atoms: C_34  and  C_35
REMARK                            x       y       z     vdW  Elec       q    Type
REMARK                         _______ _______ _______ _____ _____    ______ ____
ROOT
ATOM      1  O   UNL     1      13.911  10.312  18.108  0.00  0.00    -0.368 OA
ATOM      2  O   UNL     1      12.965   7.782  16.654  0.00  0.00    -0.368 OA
ATOM     11  C   UNL     1      12.593   9.168  16.502  0.00  0.00    +0.173 C 
ATOM     12  C   UNL     1      12.595   9.777  17.891  0.00  0.00    +0.192 C 
ATOM     13  C   UNL     1      13.682   9.918  15.773  0.00  0.00    +0.130 C 
ATOM     14  C   UNL     1      12.325   8.582  18.772  0.00  0.00    +0.235 C 
ATOM     15  C   UNL     1      14.665  10.231  16.888  0.00  0.00    +0.185 C 
ATOM     16  C   UNL     1      13.069   7.480  18.053  0.00  0.00    +0.207 C 
ENDROOT
BRANCH  13   7
ATOM      7  N   UNL     1      13.158  11.144  15.208  0.00  0.00    -0.306 N 
ATOM      8  N   UNL     1      15.234  11.756  14.367  0.00  0.00    -0.214 NA
ATOM      9  N   UNL     1      13.293  13.147  14.043  0.00  0.00    -0.223 NA
ATOM     17  C   UNL     1      13.928  12.055  14.509  0.00  0.00    +0.216 A 
ATOM     19  C   UNL     1      15.955  12.667  13.681  0.00  0.00    +0.076 A 
ATOM     20  C   UNL     1      14.074  14.015  13.367  0.00  0.00    +0.116 A 
ATOM     21  C   UNL     1      15.424  13.826  13.152  0.00  0.00    +0.048 A 
ATOM     37  H   UNL     1      12.164  11.336  15.273  0.00  0.00    +0.149 HD
BRANCH  19  23
ATOM     23  C   UNL     1      17.354  12.349  13.526  0.00  0.00    +0.001 A 
ATOM     26  C   UNL     1      18.066  11.802  14.593  0.00  0.00    +0.013 A 
ATOM     27  C   UNL     1      17.995  12.588  12.310  0.00  0.00    +0.013 A 
ATOM     31  C   UNL     1      19.419  11.496  14.445  0.00  0.00    +0.046 A 
ATOM     32  C   UNL     1      19.347  12.282  12.162  0.00  0.00    +0.046 A 
ATOM     33  C   UNL     1      20.060  11.736  13.230  0.00  0.00    +0.120 A 
BRANCH  33   5
ATOM      5  O   UNL     1      21.379  11.435  13.085  0.00  0.00    -0.495 OA
ATOM     36  C   UNL     1      22.317  12.309  13.710  0.00  0.00    +0.277 C 
ENDBRANCH  33   5
ENDBRANCH  19  23
ENDBRANCH  13   7
BRANCH  14   3
ATOM      3  O   UNL     1      12.775   8.748  20.098  0.00  0.00    -0.442 OA
BRANCH   3  18
ATOM      4  O   UNL     1      13.528   6.944  21.286  0.00  0.00    -0.226 OA
ATOM     10  N   UNL     1      14.975   8.260  19.999  0.00  0.00    -0.251 N 
ATOM     18  C   UNL     1      13.758   7.885  20.535  0.00  0.00    +0.405 C 
ATOM     38  H   UNL     1      14.966   9.077  19.392  0.00  0.00    +0.158 HD
BRANCH  10  22
ATOM     22  C   UNL     1      16.236   7.650  20.189  0.00  0.00    +0.036 A 
ATOM     24  C   UNL     1      16.610   6.562  19.400  0.00  0.00    +0.024 A 
ATOM     25  C   UNL     1      17.106   8.135  21.164  0.00  0.00    +0.024 A 
ATOM     28  C   UNL     1      17.853   5.959  19.589  0.00  0.00    +0.013 A 
ATOM     29  C   UNL     1      18.349   7.532  21.353  0.00  0.00    +0.013 A 
ATOM     30  C   UNL     1      18.723   6.444  20.565  0.00  0.00    +0.017 A 
BRANCH  30  34
ATOM      6  O   UNL     1      20.282   4.699  20.270  0.00  0.00    -0.292 OA
ATOM     34  C   UNL     1      20.020   5.816  20.759  0.00  0.00    +0.160 C 
ATOM     35  C   UNL     1      21.101   6.519  21.573  0.00  0.00    +0.091 C 
ENDBRANCH  30  34
ENDBRANCH  10  22
ENDBRANCH   3  18
ENDBRANCH  14   3
TORSDOF 7
ENDMDL
MODEL 8
REMARK VINA RESULT:      -7.2     27.701     30.752
REMARK  Name = 11912496
REMARK  9 active torsions:
REMARK  status: ('A' for Active; 'I' for Inactive)
REMARK    1  A    between atoms: O_3  and  C_14
REMARK    2  A    between atoms: O_3  and  C_18
REMARK    3  A    between atoms: O_5  and  C_33
REMARK    4  A    between atoms: O_5  and  C_36
REMARK    5  A    between atoms: N_7  and  C_13
REMARK    6  A    between atoms: N_10  and  C_22
REMARK    7  A    between atoms: C_19  and  C_23
REMARK    8  A    between atoms: C_30  and  C_34
REMARK    9  A    between atoms: C_34  and  C_35
REMARK                            x       y       z     vdW  Elec       q    Type
REMARK                         _______ _______ _______ _____ _____    ______ ____
ROOT
ATOM      1  O   UNL     1      13.747  10.428  17.708  0.00  0.00    -0.368 OA
ATOM      2  O   UNL     1      13.852   8.347  15.456  0.00  0.00    -0.368 OA
ATOM     11  C   UNL     1      13.135   9.594  15.574  0.00  0.00    +0.173 C 
ATOM     12  C   UNL     1      12.703   9.716  17.022  0.00  0.00    +0.192 C 
ATOM     13  C   UNL     1      14.080  10.755  15.375  0.00  0.00    +0.130 C 
ATOM     14  C   UNL     1      12.626   8.275  17.463  0.00  0.00    +0.235 C 
ATOM     15  C   UNL     1      14.706  10.904  16.751  0.00  0.00    +0.185 C 
ATOM     16  C   UNL     1      13.775   7.648  16.707  0.00  0.00    +0.207 C 
ENDROOT
BRANCH  13   7
ATOM      7  N   UNL     1      13.342  11.950  15.027  0.00  0.00    -0.306 N 
ATOM      8  N   UNL     1      14.785  12.447  13.277  0.00  0.00    -0.214 NA
ATOM      9  N   UNL     1      12.902  13.862  13.785  0.00  0.00    -0.223 NA
ATOM     17  C   UNL     1      13.691  12.789  13.984  0.00  0.00    +0.216 A 
ATOM     19  C   UNL     1      15.098  13.287  12.269  0.00  0.00    +0.076 A 
ATOM     20  C   UNL     1      13.272  14.659  12.761  0.00  0.00    +0.116 A 
ATOM     21  C   UNL     1      14.371  14.419  11.960  0.00  0.00    +0.048 A 
ATOM     37  H   UNL     1      12.490  12.173  15.530  0.00  0.00    +0.149 HD
BRANCH  19  23
ATOM     23  C   UNL     1      16.269  12.923  11.508  0.00  0.00    +0.001 A 
ATOM     26  C   UNL     1      17.441  12.553  12.168  0.00  0.00    +0.013 A 
ATOM     27  C   UNL     1      16.230  12.940  10.114  0.00  0.00    +0.013 A 
ATOM     31  C   UNL     1      18.573  12.202  11.434  0.00  0.00    +0.046 A 
ATOM     32  C   UNL     1      17.362  12.589   9.379  0.00  0.00    +0.046 A 
ATOM     33  C   UNL     1      18.534  12.220  10.040  0.00  0.00    +0.120 A 
BRANCH  33   5
ATOM      5  O   UNL     1      19.639  11.875   9.324  0.00  0.00    -0.495 OA
ATOM     36  C   UNL     1      19.466  11.662   7.924  0.00  0.00    +0.277 C 
ENDBRANCH  33   5
ENDBRANCH  19  23
ENDBRANCH  13   7
BRANCH  14   3
ATOM      3  O   UNL     1      12.755   8.106  18.858  0.00  0.00    -0.442 OA
BRANCH   3  18
ATOM      4  O   UNL     1      10.639   8.561  19.598  0.00  0.00    -0.226 OA
ATOM     10  N   UNL     1      12.511   9.662  20.472  0.00  0.00    -0.251 N 
ATOM     18  C   UNL     1      11.845   8.771  19.653  0.00  0.00    +0.405 C 
ATOM     38  H   UNL     1      13.523   9.695  20.372  0.00  0.00    +0.158 HD
BRANCH  10  22
ATOM     22  C   UNL     1      11.960  10.538  21.435  0.00  0.00    +0.036 A 
ATOM     24  C   UNL     1      11.570  10.048  22.681  0.00  0.00    +0.024 A 
ATOM     25  C   UNL     1      11.807  11.892  21.139  0.00  0.00    +0.024 A 
ATOM     28  C   UNL     1      11.026  10.913  23.631  0.00  0.00    +0.013 A 
ATOM     29  C   UNL     1      11.262  12.756  22.089  0.00  0.00    +0.013 A 
ATOM     30  C   UNL     1      10.872  12.267  23.335  0.00  0.00    +0.017 A 
BRANCH  30  34
ATOM      6  O   UNL     1      10.275  12.867  25.536  0.00  0.00    -0.292 OA
ATOM     34  C   UNL     1      10.306  13.167  24.326  0.00  0.00    +0.160 C 
ATOM     35  C   UNL     1       9.734  14.515  23.903  0.00  0.00    +0.091 C 
ENDBRANCH  30  34
ENDBRANCH  10  22
ENDBRANCH   3  18
ENDBRANCH  14   3
TORSDOF 7
ENDMDL
MODEL 9
REMARK VINA RESULT:      -7.1      7.522     11.262
REMARK  Name = 11912496
REMARK  9 active torsions:
REMARK  status: ('A' for Active; 'I' for Inactive)
REMARK    1  A    between atoms: O_3  and  C_14
REMARK    2  A    between atoms: O_3  and  C_18
REMARK    3  A    between atoms: O_5  and  C_33
REMARK    4  A    between atoms: O_5  and  C_36
REMARK    5  A    between atoms: N_7  and  C_13
REMARK    6  A    between atoms: N_10  and  C_22
REMARK    7  A    between atoms: C_19  and  C_23
REMARK    8  A    between atoms: C_30  and  C_34
REMARK    9  A    between atoms: C_34  and  C_35
REMARK                            x       y       z     vdW  Elec       q    Type
REMARK                         _______ _______ _______ _____ _____    ______ ____
ROOT
ATOM      1  O   UNL     1      -4.833 -13.302   3.680  0.00  0.00    -0.368 OA
ATOM      2  O   UNL     1      -2.410 -13.554   5.544  0.00  0.00    -0.368 OA
ATOM     11  C   UNL     1      -3.317 -12.459   5.298  0.00  0.00    +0.173 C 
ATOM     12  C   UNL     1      -3.653 -12.493   3.820  0.00  0.00    +0.192 C 
ATOM     13  C   UNL     1      -4.639 -12.721   5.980  0.00  0.00    +0.130 C 
ATOM     14  C   UNL     1      -2.440 -13.166   3.224  0.00  0.00    +0.235 C 
ATOM     15  C   UNL     1      -5.346 -13.624   4.983  0.00  0.00    +0.185 C 
ATOM     16  C   UNL     1      -2.075 -14.171   4.292  0.00  0.00    +0.207 C 
ENDROOT
BRANCH  13   7
ATOM      7  N   UNL     1      -5.373 -11.484   6.145  0.00  0.00    -0.306 N 
ATOM      8  N   UNL     1      -4.569 -11.185   8.303  0.00  0.00    -0.214 NA
ATOM      9  N   UNL     1      -6.072  -9.593   7.297  0.00  0.00    -0.223 NA
ATOM     17  C   UNL     1      -5.336 -10.720   7.298  0.00  0.00    +0.216 A 
ATOM     19  C   UNL     1      -4.557 -10.416   9.412  0.00  0.00    +0.076 A 
ATOM     20  C   UNL     1      -6.015  -8.873   8.436  0.00  0.00    +0.116 A 
ATOM     21  C   UNL     1      -5.266  -9.238   9.537  0.00  0.00    +0.048 A 
ATOM     37  H   UNL     1      -5.906 -11.114   5.366  0.00  0.00    +0.149 HD
BRANCH  19  23
ATOM     23  C   UNL     1      -3.734 -10.909  10.490  0.00  0.00    +0.001 A 
ATOM     26  C   UNL     1      -2.882 -10.038  11.170  0.00  0.00    +0.013 A 
ATOM     27  C   UNL     1      -3.789 -12.255  10.853  0.00  0.00    +0.013 A 
ATOM     31  C   UNL     1      -2.085 -10.513  12.211  0.00  0.00    +0.046 A 
ATOM     32  C   UNL     1      -2.992 -12.730  11.894  0.00  0.00    +0.046 A 
ATOM     33  C   UNL     1      -2.140 -11.859  12.573  0.00  0.00    +0.120 A 
BRANCH  33   5
ATOM      5  O   UNL     1      -1.363 -12.322  13.591  0.00  0.00    -0.495 OA
ATOM     36  C   UNL     1      -1.513 -11.689  14.861  0.00  0.00    +0.277 C 
ENDBRANCH  33   5
ENDBRANCH  19  23
ENDBRANCH  13   7
BRANCH  14   3
ATOM      3  O   UNL     1      -2.693 -13.782   1.981  0.00  0.00    -0.442 OA
BRANCH   3  18
ATOM      4  O   UNL     1      -1.763 -15.641   1.028  0.00  0.00    -0.226 OA
ATOM     10  N   UNL     1      -0.530 -13.677   1.351  0.00  0.00    -0.251 N 
ATOM     18  C   UNL     1      -1.651 -14.482   1.409  0.00  0.00    +0.405 C 
ATOM     38  H   UNL     1      -0.632 -12.735   1.720  0.00  0.00    +0.158 HD
BRANCH  10  22
ATOM     22  C   UNL     1       0.748 -14.001   0.840  0.00  0.00    +0.036 A 
ATOM     24  C   UNL     1       1.767 -14.392   1.708  0.00  0.00    +0.024 A 
ATOM     25  C   UNL     1       0.990 -13.927  -0.531  0.00  0.00    +0.024 A 
ATOM     28  C   UNL     1       3.029 -14.710   1.204  0.00  0.00    +0.013 A 
ATOM     29  C   UNL     1       2.252 -14.244  -1.035  0.00  0.00    +0.013 A 
ATOM     30  C   UNL     1       3.271 -14.636  -0.168  0.00  0.00    +0.017 A 
BRANCH  30  34
ATOM      6  O   UNL     1       5.529 -14.154  -0.647  0.00  0.00    -0.292 OA
ATOM     34  C   UNL     1       4.586 -14.968  -0.692  0.00  0.00    +0.160 C 
ATOM     35  C   UNL     1       4.842 -16.337  -1.313  0.00  0.00    +0.091 C 
ENDBRANCH  30  34
ENDBRANCH  10  22
ENDBRANCH   3  18
ENDBRANCH  14   3
TORSDOF 7
ENDMDL
MODEL 10
REMARK VINA RESULT:      -7.1     21.140     24.517
REMARK  Name = 11912496
REMARK  9 active torsions:
REMARK  status: ('A' for Active; 'I' for Inactive)
REMARK    1  A    between atoms: O_3  and  C_14
REMARK    2  A    between atoms: O_3  and  C_18
REMARK    3  A    between atoms: O_5  and  C_33
REMARK    4  A    between atoms: O_5  and  C_36
REMARK    5  A    between atoms: N_7  and  C_13
REMARK    6  A    between atoms: N_10  and  C_22
REMARK    7  A    between atoms: C_19  and  C_23
REMARK    8  A    between atoms: C_30  and  C_34
REMARK    9  A    between atoms: C_34  and  C_35
REMARK                            x       y       z     vdW  Elec       q    Type
REMARK                         _______ _______ _______ _____ _____    ______ ____
ROOT
ATOM      1  O   UNL     1       5.982  12.746   4.259  0.00  0.00    -0.368 OA
ATOM      2  O   UNL     1       3.577  11.287   3.036  0.00  0.00    -0.368 OA
ATOM     11  C   UNL     1       3.875  11.666   4.395  0.00  0.00    +0.173 C 
ATOM     12  C   UNL     1       5.368  11.487   4.583  0.00  0.00    +0.192 C 
ATOM     13  C   UNL     1       3.659  13.150   4.577  0.00  0.00    +0.130 C 
ATOM     14  C   UNL     1       5.701  10.424   3.565  0.00  0.00    +0.235 C 
ATOM     15  C   UNL     1       4.961  13.734   4.054  0.00  0.00    +0.185 C 
ATOM     16  C   UNL     1       4.769  10.770   2.426  0.00  0.00    +0.207 C 
ENDROOT
BRANCH  13   7
ATOM      7  N   UNL     1       3.494  13.467   5.980  0.00  0.00    -0.306 N 
ATOM      8  N   UNL     1       1.526  12.243   6.123  0.00  0.00    -0.214 NA
ATOM      9  N   UNL     1       2.425  13.393   8.039  0.00  0.00    -0.223 NA
ATOM     17  C   UNL     1       2.436  13.014   6.747  0.00  0.00    +0.216 A 
ATOM     19  C   UNL     1       0.507  11.821   6.900  0.00  0.00    +0.076 A 
ATOM     20  C   UNL     1       1.379  12.936   8.759  0.00  0.00    +0.116 A 
ATOM     21  C   UNL     1       0.381  12.138   8.238  0.00  0.00    +0.048 A 
ATOM     37  H   UNL     1       4.211  14.004   6.456  0.00  0.00    +0.149 HD
BRANCH  19  23
ATOM     23  C   UNL     1      -0.469  10.992   6.235  0.00  0.00    +0.001 A 
ATOM     26  C   UNL     1      -0.742  11.190   4.881  0.00  0.00    +0.013 A 
ATOM     27  C   UNL     1      -1.140   9.995   6.943  0.00  0.00    +0.013 A 
ATOM     31  C   UNL     1      -1.686  10.391   4.237  0.00  0.00    +0.046 A 
ATOM     32  C   UNL     1      -2.084   9.197   6.299  0.00  0.00    +0.046 A 
ATOM     33  C   UNL     1      -2.358   9.395   4.945  0.00  0.00    +0.120 A 
BRANCH  33   5
ATOM      5  O   UNL     1      -3.278   8.614   4.315  0.00  0.00    -0.495 OA
ATOM     36  C   UNL     1      -3.957   7.642   5.108  0.00  0.00    +0.277 C 
ENDBRANCH  33   5
ENDBRANCH  19  23
ENDBRANCH  13   7
BRANCH  14   3
ATOM      3  O   UNL     1       7.053  10.432   3.164  0.00  0.00    -0.442 OA
BRANCH   3  18
ATOM      4  O   UNL     1       9.009  10.529   4.346  0.00  0.00    -0.226 OA
ATOM     10  N   UNL     1       7.532   8.725   4.558  0.00  0.00    -0.251 N 
ATOM     18  C   UNL     1       7.973   9.937   4.065  0.00  0.00    +0.405 C 
ATOM     38  H   UNL     1       6.638   8.392   4.202  0.00  0.00    +0.158 HD
BRANCH  10  22
ATOM     22  C   UNL     1       8.168   7.884   5.500  0.00  0.00    +0.036 A 
ATOM     24  C   UNL     1       8.475   8.368   6.771  0.00  0.00    +0.024 A 
ATOM     25  C   UNL     1       8.489   6.571   5.158  0.00  0.00    +0.024 A 
ATOM     28  C   UNL     1       9.105   7.539   7.700  0.00  0.00    +0.013 A 
ATOM     29  C   UNL     1       9.118   5.742   6.086  0.00  0.00    +0.013 A 
ATOM     30  C   UNL     1       9.426   6.226   7.358  0.00  0.00    +0.017 A 
BRANCH  30  34
ATOM      6  O   UNL     1      11.259   5.558   8.682  0.00  0.00    -0.292 OA
ATOM     34  C   UNL     1      10.080   5.362   8.327  0.00  0.00    +0.160 C 
ATOM     35  C   UNL     1       9.329   4.184   8.938  0.00  0.00    +0.091 C 
ENDBRANCH  30  34
ENDBRANCH  10  22
ENDBRANCH   3  18
ENDBRANCH  14   3
TORSDOF 7
ENDMDL
