MODEL 1
REMARK VINA RESULT:      -7.4      0.000      0.000
REMARK  Name = 75536620
REMARK  7 active torsions:
REMARK  status: ('A' for Active; 'I' for Inactive)
REMARK    1  A    between atoms: O_2  and  C_7
REMARK    2  A    between atoms: N_4  and  C_6
REMARK    3  A    between atoms: N_4  and  C_11
REMARK    4  A    between atoms: N_5  and  C_10
REMARK    5  A    between atoms: C_8  and  C_10
REMARK    6  A    between atoms: C_11  and  C_12
REMARK    7  A    between atoms: C_13  and  C_16
REMARK                            x       y       z     vdW  Elec       q    Type
REMARK                         _______ _______ _______ _____ _____    ______ ____
ROOT
ATOM      1  O   UNL     1      12.856   6.525  20.494  0.00  0.00    -0.371 OA
ATOM      6  C   UNL     1      10.871   7.709  21.039  0.00  0.00    +0.111 C 
ATOM      7  C   UNL     1      11.458   8.288  19.765  0.00  0.00    +0.164 C 
ATOM      8  C   UNL     1      12.341   7.137  19.301  0.00  0.00    +0.165 C 
ATOM      9  C   UNL     1      12.067   6.968  21.612  0.00  0.00    +0.181 C 
ENDROOT
BRANCH   7   2
ATOM      2  O   UNL     1      10.469   8.614  18.808  0.00  0.00    -0.388 OA
ATOM     26  H   UNL     1      10.649   8.109  17.997  0.00  0.00    +0.210 HD
ENDBRANCH   7   2
BRANCH   6   4
ATOM      4  N   UNL     1      10.341   8.715  21.945  0.00  0.00    -0.305 NA
ATOM     25  H   UNL     1       9.717   8.265  22.615  0.00  0.00    +0.123 HD
BRANCH   4  11
ATOM     11  C   UNL     1      11.413   9.384  22.674  0.00  0.00    +0.116 C 
BRANCH  11  12
ATOM     12  C   UNL     1      11.143  10.855  22.844  0.00  0.00    -0.034 A 
ATOM     14  C   UNL     1      11.274  11.719  21.757  0.00  0.00    +0.005 A 
ATOM     15  C   UNL     1      10.763  11.354  24.090  0.00  0.00    +0.005 A 
ATOM     17  C   UNL     1      11.024  13.082  21.915  0.00  0.00    +0.000 A 
ATOM     18  C   UNL     1      10.512  12.717  24.248  0.00  0.00    +0.000 A 
ATOM     19  C   UNL     1      10.643  13.581  23.160  0.00  0.00    +0.000 A 
ENDBRANCH  11  12
ENDBRANCH   4  11
ENDBRANCH   6   4
BRANCH   8  10
ATOM     10  C   UNL     1      13.490   7.582  18.413  0.00  0.00    +0.138 C 
BRANCH  10   5
ATOM      3  O   UNL     1      15.264   9.229  19.958  0.00  0.00    -0.270 OA
ATOM      5  N   UNL     1      14.756   7.194  18.966  0.00  0.00    -0.309 N 
ATOM     13  C   UNL     1      15.553   8.063  19.705  0.00  0.00    +0.244 C 
ATOM     27  H   UNL     1      15.087   6.264  18.734  0.00  0.00    +0.149 HD
BRANCH  13  16
ATOM     16  C   UNL     1      16.848   7.516  20.187  0.00  0.00    +0.037 A 
ATOM     20  C   UNL     1      17.358   6.341  19.635  0.00  0.00    +0.013 A 
ATOM     21  C   UNL     1      17.554   8.178  21.191  0.00  0.00    +0.013 A 
ATOM     22  C   UNL     1      18.574   5.829  20.086  0.00  0.00    +0.001 A 
ATOM     23  C   UNL     1      18.770   7.665  21.643  0.00  0.00    +0.001 A 
ATOM     24  C   UNL     1      19.280   6.490  21.091  0.00  0.00    +0.000 A 
ENDBRANCH  13  16
ENDBRANCH  10   5
ENDBRANCH   8  10
TORSDOF 7
ENDMDL
MODEL 2
REMARK VINA RESULT:      -7.4      1.344      7.563
REMARK  Name = 75536620
REMARK  7 active torsions:
REMARK  status: ('A' for Active; 'I' for Inactive)
REMARK    1  A    between atoms: O_2  and  C_7
REMARK    2  A    between atoms: N_4  and  C_6
REMARK    3  A    between atoms: N_4  and  C_11
REMARK    4  A    between atoms: N_5  and  C_10
REMARK    5  A    between atoms: C_8  and  C_10
REMARK    6  A    between atoms: C_11  and  C_12
REMARK    7  A    between atoms: C_13  and  C_16
REMARK                            x       y       z     vdW  Elec       q    Type
REMARK                         _______ _______ _______ _____ _____    ______ ____
ROOT
ATOM      1  O   UNL     1      10.919   8.951  20.289  0.00  0.00    -0.371 OA
ATOM      6  C   UNL     1      12.318   7.191  19.524  0.00  0.00    +0.111 C 
ATOM      7  C   UNL     1      12.167   7.083  21.031  0.00  0.00    +0.164 C 
ATOM      8  C   UNL     1      10.894   7.888  21.255  0.00  0.00    +0.165 C 
ATOM      9  C   UNL     1      11.893   8.628  19.280  0.00  0.00    +0.181 C 
ENDROOT
BRANCH   7   2
ATOM      2  O   UNL     1      12.033   5.747  21.472  0.00  0.00    -0.388 OA
ATOM     26  H   UNL     1      11.417   5.734  22.224  0.00  0.00    +0.210 HD
ENDBRANCH   7   2
BRANCH   6   4
ATOM      4  N   UNL     1      13.664   6.909  19.052  0.00  0.00    -0.305 NA
ATOM     25  H   UNL     1      13.682   6.982  18.035  0.00  0.00    +0.123 HD
BRANCH   4  11
ATOM     11  C   UNL     1      14.624   7.854  19.610  0.00  0.00    +0.116 C 
BRANCH  11  12
ATOM     12  C   UNL     1      15.974   7.222  19.822  0.00  0.00    -0.034 A 
ATOM     14  C   UNL     1      16.436   6.249  18.938  0.00  0.00    +0.005 A 
ATOM     15  C   UNL     1      16.762   7.611  20.906  0.00  0.00    +0.005 A 
ATOM     17  C   UNL     1      17.686   5.663  19.135  0.00  0.00    +0.000 A 
ATOM     18  C   UNL     1      18.013   7.026  21.103  0.00  0.00    +0.000 A 
ATOM     19  C   UNL     1      18.475   6.051  20.218  0.00  0.00    +0.000 A 
ENDBRANCH  11  12
ENDBRANCH   4  11
ENDBRANCH   6   4
BRANCH   8  10
ATOM     10  C   UNL     1      10.789   8.467  22.655  0.00  0.00    +0.138 C 
BRANCH  10   5
ATOM      3  O   UNL     1      12.591  10.633  23.206  0.00  0.00    -0.270 OA
ATOM      5  N   UNL     1      10.481   9.868  22.618  0.00  0.00    -0.309 N 
ATOM     13  C   UNL     1      11.422  10.854  22.901  0.00  0.00    +0.244 C 
ATOM     27  H   UNL     1       9.514  10.116  22.442  0.00  0.00    +0.149 HD
BRANCH  13  16
ATOM     16  C   UNL     1      10.939  12.258  22.844  0.00  0.00    +0.037 A 
ATOM     20  C   UNL     1      10.970  12.958  21.638  0.00  0.00    +0.013 A 
ATOM     21  C   UNL     1      10.455  12.876  23.996  0.00  0.00    +0.013 A 
ATOM     22  C   UNL     1      10.516  14.275  21.585  0.00  0.00    +0.001 A 
ATOM     23  C   UNL     1      10.002  14.194  23.944  0.00  0.00    +0.001 A 
ATOM     24  C   UNL     1      10.032  14.893  22.737  0.00  0.00    +0.000 A 
ENDBRANCH  13  16
ENDBRANCH  10   5
ENDBRANCH   8  10
TORSDOF 7
ENDMDL
MODEL 3
REMARK VINA RESULT:      -7.0     26.700     29.745
REMARK  Name = 75536620
REMARK  7 active torsions:
REMARK  status: ('A' for Active; 'I' for Inactive)
REMARK    1  A    between atoms: O_2  and  C_7
REMARK    2  A    between atoms: N_4  and  C_6
REMARK    3  A    between atoms: N_4  and  C_11
REMARK    4  A    between atoms: N_5  and  C_10
REMARK    5  A    between atoms: C_8  and  C_10
REMARK    6  A    between atoms: C_11  and  C_12
REMARK    7  A    between atoms: C_13  and  C_16
REMARK                            x       y       z     vdW  Elec       q    Type
REMARK                         _______ _______ _______ _____ _____    ______ ____
ROOT
ATOM      1  O   UNL     1     -17.520   5.398  24.096  0.00  0.00    -0.371 OA
ATOM      6  C   UNL     1     -15.923   4.161  22.849  0.00  0.00    +0.111 C 
ATOM      7  C   UNL     1     -15.693   3.915  24.328  0.00  0.00    +0.164 C 
ATOM      8  C   UNL     1     -17.047   4.309  24.904  0.00  0.00    +0.165 C 
ATOM      9  C   UNL     1     -16.753   5.433  22.880  0.00  0.00    +0.181 C 
ENDROOT
BRANCH   7   2
ATOM      2  O   UNL     1     -15.370   2.568  24.614  0.00  0.00    -0.388 OA
ATOM     26  H   UNL     1     -14.407   2.503  24.734  0.00  0.00    +0.210 HD
ENDBRANCH   7   2
BRANCH   6   4
ATOM      4  N   UNL     1     -14.694   4.305  22.084  0.00  0.00    -0.305 NA
ATOM     25  H   UNL     1     -14.927   4.452  21.103  0.00  0.00    +0.123 HD
BRANCH   4  11
ATOM     11  C   UNL     1     -13.910   5.439  22.559  0.00  0.00    +0.116 C 
BRANCH  11  12
ATOM     12  C   UNL     1     -13.417   6.294  21.422  0.00  0.00    -0.034 A 
ATOM     14  C   UNL     1     -12.051   6.391  21.163  0.00  0.00    +0.005 A 
ATOM     15  C   UNL     1     -14.329   6.991  20.628  0.00  0.00    +0.005 A 
ATOM     17  C   UNL     1     -11.594   7.184  20.110  0.00  0.00    +0.000 A 
ATOM     18  C   UNL     1     -13.873   7.783  19.574  0.00  0.00    +0.000 A 
ATOM     19  C   UNL     1     -12.505   7.880  19.316  0.00  0.00    +0.000 A 
ENDBRANCH  11  12
ENDBRANCH   4  11
ENDBRANCH   6   4
BRANCH   8  10
ATOM     10  C   UNL     1     -16.978   4.739  26.359  0.00  0.00    +0.138 C 
BRANCH  10   5
ATOM      3  O   UNL     1     -16.525   4.860  29.191  0.00  0.00    -0.270 OA
ATOM      5  N   UNL     1     -16.293   3.765  27.159  0.00  0.00    -0.309 N 
ATOM     13  C   UNL     1     -16.119   3.906  28.532  0.00  0.00    +0.244 C 
ATOM     27  H   UNL     1     -15.871   2.986  26.665  0.00  0.00    +0.149 HD
BRANCH  13  16
ATOM     16  C   UNL     1     -15.366   2.822  29.214  0.00  0.00    +0.037 A 
ATOM     20  C   UNL     1     -14.302   3.135  30.059  0.00  0.00    +0.013 A 
ATOM     21  C   UNL     1     -15.724   1.490  29.008  0.00  0.00    +0.013 A 
ATOM     22  C   UNL     1     -13.596   2.117  30.699  0.00  0.00    +0.001 A 
ATOM     23  C   UNL     1     -15.018   0.471  29.648  0.00  0.00    +0.001 A 
ATOM     24  C   UNL     1     -13.953   0.785  30.494  0.00  0.00    +0.000 A 
ENDBRANCH  13  16
ENDBRANCH  10   5
ENDBRANCH   8  10
TORSDOF 7
ENDMDL
MODEL 4
REMARK VINA RESULT:      -6.8      2.007      6.399
REMARK  Name = 75536620
REMARK  7 active torsions:
REMARK  status: ('A' for Active; 'I' for Inactive)
REMARK    1  A    between atoms: O_2  and  C_7
REMARK    2  A    between atoms: N_4  and  C_6
REMARK    3  A    between atoms: N_4  and  C_11
REMARK    4  A    between atoms: N_5  and  C_10
REMARK    5  A    between atoms: C_8  and  C_10
REMARK    6  A    between atoms: C_11  and  C_12
REMARK    7  A    between atoms: C_13  and  C_16
REMARK                            x       y       z     vdW  Elec       q    Type
REMARK                         _______ _______ _______ _____ _____    ______ ____
ROOT
ATOM      1  O   UNL     1      10.789   8.413  19.722  0.00  0.00    -0.371 OA
ATOM      6  C   UNL     1      12.927   7.490  19.254  0.00  0.00    +0.111 C 
ATOM      7  C   UNL     1      12.706   7.489  20.756  0.00  0.00    +0.164 C 
ATOM      8  C   UNL     1      11.188   7.587  20.828  0.00  0.00    +0.165 C 
ATOM      9  C   UNL     1      11.887   8.499  18.797  0.00  0.00    +0.181 C 
ENDROOT
BRANCH   7   2
ATOM      2  O   UNL     1      13.190   6.316  21.378  0.00  0.00    -0.388 OA
ATOM     26  H   UNL     1      12.449   5.885  21.838  0.00  0.00    +0.210 HD
ENDBRANCH   7   2
BRANCH   6   4
ATOM      4  N   UNL     1      14.280   7.854  18.865  0.00  0.00    -0.305 NA
ATOM     25  H   UNL     1      14.595   8.633  19.442  0.00  0.00    +0.123 HD
BRANCH   4  11
ATOM     11  C   UNL     1      15.196   6.733  19.042  0.00  0.00    +0.116 C 
BRANCH  11  12
ATOM     12  C   UNL     1      16.388   7.112  19.879  0.00  0.00    -0.034 A 
ATOM     14  C   UNL     1      17.544   6.333  19.841  0.00  0.00    +0.005 A 
ATOM     15  C   UNL     1      16.337   8.242  20.695  0.00  0.00    +0.005 A 
ATOM     17  C   UNL     1      18.649   6.684  20.617  0.00  0.00    +0.000 A 
ATOM     18  C   UNL     1      17.441   8.594  21.471  0.00  0.00    +0.000 A 
ATOM     19  C   UNL     1      18.597   7.814  21.432  0.00  0.00    +0.000 A 
ENDBRANCH  11  12
ENDBRANCH   4  11
ENDBRANCH   6   4
BRANCH   8  10
ATOM     10  C   UNL     1      10.686   8.190  22.128  0.00  0.00    +0.138 C 
BRANCH  10   5
ATOM      3  O   UNL     1      11.023  11.035  21.932  0.00  0.00    -0.270 OA
ATOM      5  N   UNL     1      11.704   8.978  22.763  0.00  0.00    -0.309 N 
ATOM     13  C   UNL     1      11.792  10.359  22.611  0.00  0.00    +0.244 C 
ATOM     27  H   UNL     1      12.413   8.472  23.282  0.00  0.00    +0.149 HD
BRANCH  13  16
ATOM     16  C   UNL     1      12.917  11.026  23.314  0.00  0.00    +0.037 A 
ATOM     20  C   UNL     1      12.664  11.869  24.396  0.00  0.00    +0.013 A 
ATOM     21  C   UNL     1      14.229  10.809  22.892  0.00  0.00    +0.013 A 
ATOM     22  C   UNL     1      13.721  12.495  25.056  0.00  0.00    +0.001 A 
ATOM     23  C   UNL     1      15.287  11.435  23.552  0.00  0.00    +0.001 A 
ATOM     24  C   UNL     1      15.032  12.278  24.634  0.00  0.00    +0.000 A 
ENDBRANCH  13  16
ENDBRANCH  10   5
ENDBRANCH   8  10
TORSDOF 7
ENDMDL
MODEL 5
REMARK VINA RESULT:      -6.6     25.961     29.088
REMARK  Name = 75536620
REMARK  7 active torsions:
REMARK  status: ('A' for Active; 'I' for Inactive)
REMARK    1  A    between atoms: O_2  and  C_7
REMARK    2  A    between atoms: N_4  and  C_6
REMARK    3  A    between atoms: N_4  and  C_11
REMARK    4  A    between atoms: N_5  and  C_10
REMARK    5  A    between atoms: C_8  and  C_10
REMARK    6  A    between atoms: C_11  and  C_12
REMARK    7  A    between atoms: C_13  and  C_16
REMARK                            x       y       z     vdW  Elec       q    Type
REMARK                         _______ _______ _______ _____ _____    ______ ____
ROOT
ATOM      1  O   UNL     1     -16.303   5.093  22.223  0.00  0.00    -0.371 OA
ATOM      6  C   UNL     1     -13.946   5.047  21.936  0.00  0.00    +0.111 C 
ATOM      7  C   UNL     1     -14.262   5.105  23.419  0.00  0.00    +0.164 C 
ATOM      8  C   UNL     1     -15.700   4.603  23.431  0.00  0.00    +0.165 C 
ATOM      9  C   UNL     1     -15.258   5.516  21.329  0.00  0.00    +0.181 C 
ENDROOT
BRANCH   7   2
ATOM      2  O   UNL     1     -13.410   4.284  24.192  0.00  0.00    -0.388 OA
ATOM     26  H   UNL     1     -12.511   4.345  23.826  0.00  0.00    +0.210 HD
ENDBRANCH   7   2
BRANCH   6   4
ATOM      4  N   UNL     1     -12.815   5.875  21.549  0.00  0.00    -0.305 NA
ATOM     25  H   UNL     1     -12.360   5.459  20.737  0.00  0.00    +0.123 HD
BRANCH   4  11
ATOM     11  C   UNL     1     -13.245   7.226  21.209  0.00  0.00    +0.116 C 
BRANCH  11  12
ATOM     12  C   UNL     1     -12.275   7.907  20.281  0.00  0.00    -0.034 A 
ATOM     14  C   UNL     1     -11.839   9.203  20.554  0.00  0.00    +0.005 A 
ATOM     15  C   UNL     1     -11.811   7.240  19.146  0.00  0.00    +0.005 A 
ATOM     17  C   UNL     1     -10.940   9.833  19.694  0.00  0.00    +0.000 A 
ATOM     18  C   UNL     1     -10.912   7.870  18.286  0.00  0.00    +0.000 A 
ATOM     19  C   UNL     1     -10.476   9.167  18.560  0.00  0.00    +0.000 A 
ENDBRANCH  11  12
ENDBRANCH   4  11
ENDBRANCH   6   4
BRANCH   8  10
ATOM     10  C   UNL     1     -16.493   5.083  24.634  0.00  0.00    +0.138 C 
BRANCH  10   5
ATOM      3  O   UNL     1     -17.790   2.803  25.802  0.00  0.00    -0.270 OA
ATOM      5  N   UNL     1     -16.099   4.392  25.828  0.00  0.00    -0.309 N 
ATOM     13  C   UNL     1     -16.791   3.291  26.324  0.00  0.00    +0.244 C 
ATOM     27  H   UNL     1     -15.323   4.787  26.347  0.00  0.00    +0.149 HD
BRANCH  13  16
ATOM     16  C   UNL     1     -16.271   2.702  27.585  0.00  0.00    +0.037 A 
ATOM     20  C   UNL     1     -16.491   1.355  27.869  0.00  0.00    +0.013 A 
ATOM     21  C   UNL     1     -15.563   3.498  28.485  0.00  0.00    +0.013 A 
ATOM     22  C   UNL     1     -16.001   0.802  29.052  0.00  0.00    +0.001 A 
ATOM     23  C   UNL     1     -15.073   2.946  29.669  0.00  0.00    +0.001 A 
ATOM     24  C   UNL     1     -15.293   1.598  29.952  0.00  0.00    +0.000 A 
ENDBRANCH  13  16
ENDBRANCH  10   5
ENDBRANCH   8  10
TORSDOF 7
ENDMDL
MODEL 6
REMARK VINA RESULT:      -6.5     24.367     26.186
REMARK  Name = 75536620
REMARK  7 active torsions:
REMARK  status: ('A' for Active; 'I' for Inactive)
REMARK    1  A    between atoms: O_2  and  C_7
REMARK    2  A    between atoms: N_4  and  C_6
REMARK    3  A    between atoms: N_4  and  C_11
REMARK    4  A    between atoms: N_5  and  C_10
REMARK    5  A    between atoms: C_8  and  C_10
REMARK    6  A    between atoms: C_11  and  C_12
REMARK    7  A    between atoms: C_13  and  C_16
REMARK                            x       y       z     vdW  Elec       q    Type
REMARK                         _______ _______ _______ _____ _____    ______ ____
ROOT
ATOM      1  O   UNL     1     -11.236  10.753  14.871  0.00  0.00    -0.371 OA
ATOM      6  C   UNL     1     -10.077  11.643  16.743  0.00  0.00    +0.111 C 
ATOM      7  C   UNL     1     -10.326  10.164  16.974  0.00  0.00    +0.164 C 
ATOM      8  C   UNL     1     -10.560   9.681  15.548  0.00  0.00    +0.165 C 
ATOM      9  C   UNL     1     -11.086  11.953  15.651  0.00  0.00    +0.181 C 
ENDROOT
BRANCH   7   2
ATOM      2  O   UNL     1      -9.226   9.513  17.578  0.00  0.00    -0.388 OA
ATOM     26  H   UNL     1      -8.832   8.910  16.926  0.00  0.00    +0.210 HD
ENDBRANCH   7   2
BRANCH   6   4
ATOM      4  N   UNL     1     -10.261  12.458  17.933  0.00  0.00    -0.305 NA
ATOM     25  H   UNL     1      -9.715  13.314  17.839  0.00  0.00    +0.123 HD
BRANCH   4  11
ATOM     11  C   UNL     1     -11.664  12.811  18.115  0.00  0.00    +0.116 C 
BRANCH  11  12
ATOM     12  C   UNL     1     -12.297  12.031  19.236  0.00  0.00    -0.034 A 
ATOM     14  C   UNL     1     -13.682  12.034  19.394  0.00  0.00    +0.005 A 
ATOM     15  C   UNL     1     -11.496  11.305  20.119  0.00  0.00    +0.005 A 
ATOM     17  C   UNL     1     -14.268  11.311  20.433  0.00  0.00    +0.000 A 
ATOM     18  C   UNL     1     -12.082  10.582  21.158  0.00  0.00    +0.000 A 
ATOM     19  C   UNL     1     -13.468  10.586  21.316  0.00  0.00    +0.000 A 
ENDBRANCH  11  12
ENDBRANCH   4  11
ENDBRANCH   6   4
BRANCH   8  10
ATOM     10  C   UNL     1     -11.397   8.416  15.474  0.00  0.00    +0.138 C 
BRANCH  10   5
ATOM      3  O   UNL     1     -13.642   9.150  17.107  0.00  0.00    -0.270 OA
ATOM      5  N   UNL     1     -11.704   7.916  16.783  0.00  0.00    -0.309 N 
ATOM     13  C   UNL     1     -12.819   8.330  17.506  0.00  0.00    +0.244 C 
ATOM     27  H   UNL     1     -11.025   7.288  17.200  0.00  0.00    +0.149 HD
BRANCH  13  16
ATOM     16  C   UNL     1     -12.982   7.737  18.858  0.00  0.00    +0.037 A 
ATOM     20  C   UNL     1     -11.862   7.331  19.582  0.00  0.00    +0.013 A 
ATOM     21  C   UNL     1     -14.257   7.586  19.403  0.00  0.00    +0.013 A 
ATOM     22  C   UNL     1     -12.015   6.776  20.852  0.00  0.00    +0.001 A 
ATOM     23  C   UNL     1     -14.411   7.030  20.673  0.00  0.00    +0.001 A 
ATOM     24  C   UNL     1     -13.290   6.625  21.397  0.00  0.00    +0.000 A 
ENDBRANCH  13  16
ENDBRANCH  10   5
ENDBRANCH   8  10
TORSDOF 7
ENDMDL
MODEL 7
REMARK VINA RESULT:      -6.5      2.814      4.074
REMARK  Name = 75536620
REMARK  7 active torsions:
REMARK  status: ('A' for Active; 'I' for Inactive)
REMARK    1  A    between atoms: O_2  and  C_7
REMARK    2  A    between atoms: N_4  and  C_6
REMARK    3  A    between atoms: N_4  and  C_11
REMARK    4  A    between atoms: N_5  and  C_10
REMARK    5  A    between atoms: C_8  and  C_10
REMARK    6  A    between atoms: C_11  and  C_12
REMARK    7  A    between atoms: C_13  and  C_16
REMARK                            x       y       z     vdW  Elec       q    Type
REMARK                         _______ _______ _______ _____ _____    ______ ____
ROOT
ATOM      1  O   UNL     1      12.817   6.717  20.882  0.00  0.00    -0.371 OA
ATOM      6  C   UNL     1      10.895   8.083  21.163  0.00  0.00    +0.111 C 
ATOM      7  C   UNL     1      11.491   8.345  19.792  0.00  0.00    +0.164 C 
ATOM      8  C   UNL     1      12.316   7.081  19.586  0.00  0.00    +0.165 C 
ATOM      9  C   UNL     1      12.063   7.427  21.880  0.00  0.00    +0.181 C 
ENDROOT
BRANCH   7   2
ATOM      2  O   UNL     1      10.507   8.503  18.790  0.00  0.00    -0.388 OA
ATOM     26  H   UNL     1      10.404   7.656  18.325  0.00  0.00    +0.210 HD
ENDBRANCH   7   2
BRANCH   6   4
ATOM      4  N   UNL     1      10.421   9.284  21.832  0.00  0.00    -0.305 NA
ATOM     25  H   UNL     1       9.640   9.041  22.440  0.00  0.00    +0.123 HD
BRANCH   4  11
ATOM     11  C   UNL     1      11.477   9.887  22.637  0.00  0.00    +0.116 C 
BRANCH  11  12
ATOM     12  C   UNL     1      11.118  11.281  23.078  0.00  0.00    -0.034 A 
ATOM     14  C   UNL     1      11.015  12.306  22.138  0.00  0.00    +0.005 A 
ATOM     15  C   UNL     1      10.890  11.548  24.428  0.00  0.00    +0.005 A 
ATOM     17  C   UNL     1      10.683  13.598  22.547  0.00  0.00    +0.000 A 
ATOM     18  C   UNL     1      10.558  12.839  24.838  0.00  0.00    +0.000 A 
ATOM     19  C   UNL     1      10.455  13.864  23.897  0.00  0.00    +0.000 A 
ENDBRANCH  11  12
ENDBRANCH   4  11
ENDBRANCH   6   4
BRANCH   8  10
ATOM     10  C   UNL     1      13.473   7.271  18.621  0.00  0.00    +0.138 C 
BRANCH  10   5
ATOM      3  O   UNL     1      13.832   8.287  15.960  0.00  0.00    -0.270 OA
ATOM      5  N   UNL     1      13.615   8.648  18.242  0.00  0.00    -0.309 N 
ATOM     13  C   UNL     1      13.786   9.051  16.921  0.00  0.00    +0.244 C 
ATOM     27  H   UNL     1      13.658   9.325  18.996  0.00  0.00    +0.149 HD
BRANCH  13  16
ATOM     16  C   UNL     1      13.944  10.511  16.695  0.00  0.00    +0.037 A 
ATOM     20  C   UNL     1      14.107  11.004  15.401  0.00  0.00    +0.013 A 
ATOM     21  C   UNL     1      13.929  11.389  17.779  0.00  0.00    +0.013 A 
ATOM     22  C   UNL     1      14.254  12.374  15.190  0.00  0.00    +0.001 A 
ATOM     23  C   UNL     1      14.077  12.760  17.568  0.00  0.00    +0.001 A 
ATOM     24  C   UNL     1      14.239  13.252  16.273  0.00  0.00    +0.000 A 
ENDBRANCH  13  16
ENDBRANCH  10   5
ENDBRANCH   8  10
TORSDOF 7
ENDMDL
MODEL 8
REMARK VINA RESULT:      -6.5     23.980     27.141
REMARK  Name = 75536620
REMARK  7 active torsions:
REMARK  status: ('A' for Active; 'I' for Inactive)
REMARK    1  A    between atoms: O_2  and  C_7
REMARK    2  A    between atoms: N_4  and  C_6
REMARK    3  A    between atoms: N_4  and  C_11
REMARK    4  A    between atoms: N_5  and  C_10
REMARK    5  A    between atoms: C_8  and  C_10
REMARK    6  A    between atoms: C_11  and  C_12
REMARK    7  A    between atoms: C_13  and  C_16
REMARK                            x       y       z     vdW  Elec       q    Type
REMARK                         _______ _______ _______ _____ _____    ______ ____
ROOT
ATOM      1  O   UNL     1     -10.731  10.536  15.466  0.00  0.00    -0.371 OA
ATOM      6  C   UNL     1      -9.763   9.477  17.358  0.00  0.00    +0.111 C 
ATOM      7  C   UNL     1     -10.667   8.488  16.647  0.00  0.00    +0.164 C 
ATOM      8  C   UNL     1     -10.754   9.114  15.262  0.00  0.00    +0.165 C 
ATOM      9  C   UNL     1     -10.264  10.799  16.801  0.00  0.00    +0.181 C 
ENDROOT
BRANCH   7   2
ATOM      2  O   UNL     1     -10.123   7.184  16.604  0.00  0.00    -0.388 OA
ATOM     26  H   UNL     1      -9.350   7.194  16.016  0.00  0.00    +0.210 HD
ENDBRANCH   7   2
BRANCH   6   4
ATOM      4  N   UNL     1      -9.846   9.406  18.808  0.00  0.00    -0.305 NA
ATOM     25  H   UNL     1      -9.087   9.953  19.213  0.00  0.00    +0.123 HD
BRANCH   4  11
ATOM     11  C   UNL     1     -11.118   9.934  19.288  0.00  0.00    +0.116 C 
BRANCH  11  12
ATOM     12  C   UNL     1     -11.842   8.945  20.161  0.00  0.00    -0.034 A 
ATOM     14  C   UNL     1     -12.846   9.381  21.025  0.00  0.00    +0.005 A 
ATOM     15  C   UNL     1     -11.508   7.592  20.106  0.00  0.00    +0.005 A 
ATOM     17  C   UNL     1     -13.518   8.464  21.834  0.00  0.00    +0.000 A 
ATOM     18  C   UNL     1     -12.179   6.675  20.915  0.00  0.00    +0.000 A 
ATOM     19  C   UNL     1     -13.184   7.111  21.779  0.00  0.00    +0.000 A 
ENDBRANCH  11  12
ENDBRANCH   4  11
ENDBRANCH   6   4
BRANCH   8  10
ATOM     10  C   UNL     1     -12.011   8.723  14.505  0.00  0.00    +0.138 C 
BRANCH  10   5
ATOM      3  O   UNL     1     -14.306  10.063  15.592  0.00  0.00    -0.270 OA
ATOM      5  N   UNL     1     -12.995   8.159  15.384  0.00  0.00    -0.309 N 
ATOM     13  C   UNL     1     -14.080   8.886  15.865  0.00  0.00    +0.244 C 
ATOM     27  H   UNL     1     -12.829   7.212  15.704  0.00  0.00    +0.149 HD
BRANCH  13  16
ATOM     16  C   UNL     1     -14.996   8.166  16.786  0.00  0.00    +0.037 A 
ATOM     20  C   UNL     1     -14.730   8.140  18.155  0.00  0.00    +0.013 A 
ATOM     21  C   UNL     1     -16.122   7.516  16.283  0.00  0.00    +0.013 A 
ATOM     22  C   UNL     1     -15.590   7.465  19.020  0.00  0.00    +0.001 A 
ATOM     23  C   UNL     1     -16.983   6.840  17.148  0.00  0.00    +0.001 A 
ATOM     24  C   UNL     1     -16.717   6.815  18.517  0.00  0.00    +0.000 A 
ENDBRANCH  13  16
ENDBRANCH  10   5
ENDBRANCH   8  10
TORSDOF 7
ENDMDL
MODEL 9
REMARK VINA RESULT:      -6.4     16.411     19.219
REMARK  Name = 75536620
REMARK  7 active torsions:
REMARK  status: ('A' for Active; 'I' for Inactive)
REMARK    1  A    between atoms: O_2  and  C_7
REMARK    2  A    between atoms: N_4  and  C_6
REMARK    3  A    between atoms: N_4  and  C_11
REMARK    4  A    between atoms: N_5  and  C_10
REMARK    5  A    between atoms: C_8  and  C_10
REMARK    6  A    between atoms: C_11  and  C_12
REMARK    7  A    between atoms: C_13  and  C_16
REMARK                            x       y       z     vdW  Elec       q    Type
REMARK                         _______ _______ _______ _____ _____    ______ ____
ROOT
ATOM      1  O   UNL     1      13.225   4.644  -0.035  0.00  0.00    -0.371 OA
ATOM      6  C   UNL     1      15.292   5.308   0.927  0.00  0.00    +0.111 C 
ATOM      7  C   UNL     1      14.671   4.223   1.788  0.00  0.00    +0.164 C 
ATOM      8  C   UNL     1      13.709   3.579   0.798  0.00  0.00    +0.165 C 
ATOM      9  C   UNL     1      14.090   5.782   0.127  0.00  0.00    +0.181 C 
ENDROOT
BRANCH   7   2
ATOM      2  O   UNL     1      15.625   3.299   2.273  0.00  0.00    -0.388 OA
ATOM     26  H   UNL     1      15.868   3.557   3.178  0.00  0.00    +0.210 HD
ENDBRANCH   7   2
BRANCH   6   4
ATOM      4  N   UNL     1      15.917   6.373   1.694  0.00  0.00    -0.305 NA
ATOM     25  H   UNL     1      16.679   6.775   1.147  0.00  0.00    +0.123 HD
BRANCH   4  11
ATOM     11  C   UNL     1      14.958   7.425   2.012  0.00  0.00    +0.116 C 
BRANCH  11  12
ATOM     12  C   UNL     1      14.579   7.416   3.468  0.00  0.00    -0.034 A 
ATOM     14  C   UNL     1      15.565   7.530   4.448  0.00  0.00    +0.005 A 
ATOM     15  C   UNL     1      13.240   7.291   3.839  0.00  0.00    +0.005 A 
ATOM     17  C   UNL     1      15.213   7.522   5.797  0.00  0.00    +0.000 A 
ATOM     18  C   UNL     1      12.887   7.283   5.188  0.00  0.00    +0.000 A 
ATOM     19  C   UNL     1      13.874   7.397   6.168  0.00  0.00    +0.000 A 
ENDBRANCH  11  12
ENDBRANCH   4  11
ENDBRANCH   6   4
BRANCH   8  10
ATOM     10  C   UNL     1      12.540   2.878   1.468  0.00  0.00    +0.138 C 
BRANCH  10   5
ATOM      3  O   UNL     1       9.976   4.143   1.211  0.00  0.00    -0.270 OA
ATOM      5  N   UNL     1      11.905   3.729   2.432  0.00  0.00    -0.309 N 
ATOM     13  C   UNL     1      10.654   4.302   2.223  0.00  0.00    +0.244 C 
ATOM     27  H   UNL     1      12.443   3.959   3.261  0.00  0.00    +0.149 HD
BRANCH  13  16
ATOM     16  C   UNL     1      10.144   5.180   3.307  0.00  0.00    +0.037 A 
ATOM     20  C   UNL     1       9.693   6.466   3.010  0.00  0.00    +0.013 A 
ATOM     21  C   UNL     1      10.117   4.718   4.623  0.00  0.00    +0.013 A 
ATOM     22  C   UNL     1       9.213   7.289   4.029  0.00  0.00    +0.001 A 
ATOM     23  C   UNL     1       9.638   5.542   5.642  0.00  0.00    +0.001 A 
ATOM     24  C   UNL     1       9.186   6.827   5.344  0.00  0.00    +0.000 A 
ENDBRANCH  13  16
ENDBRANCH  10   5
ENDBRANCH   8  10
TORSDOF 7
ENDMDL
MODEL 10
REMARK VINA RESULT:      -6.3     26.330     28.700
REMARK  Name = 75536620
REMARK  7 active torsions:
REMARK  status: ('A' for Active; 'I' for Inactive)
REMARK    1  A    between atoms: O_2  and  C_7
REMARK    2  A    between atoms: N_4  and  C_6
REMARK    3  A    between atoms: N_4  and  C_11
REMARK    4  A    between atoms: N_5  and  C_10
REMARK    5  A    between atoms: C_8  and  C_10
REMARK    6  A    between atoms: C_11  and  C_12
REMARK    7  A    between atoms: C_13  and  C_16
REMARK                            x       y       z     vdW  Elec       q    Type
REMARK                         _______ _______ _______ _____ _____    ______ ____
ROOT
ATOM      1  O   UNL     1      -4.939 -12.036  15.850  0.00  0.00    -0.371 OA
ATOM      6  C   UNL     1      -2.898 -11.540  14.741  0.00  0.00    +0.111 C 
ATOM      7  C   UNL     1      -2.862 -10.941  16.134  0.00  0.00    +0.164 C 
ATOM      8  C   UNL     1      -3.930 -11.769  16.837  0.00  0.00    +0.165 C 
ATOM      9  C   UNL     1      -4.388 -11.767  14.548  0.00  0.00    +0.181 C 
ENDROOT
BRANCH   7   2
ATOM      2  O   UNL     1      -1.599 -11.074  16.754  0.00  0.00    -0.388 OA
ATOM     26  H   UNL     1      -1.663 -10.728  17.660  0.00  0.00    +0.210 HD
ENDBRANCH   7   2
BRANCH   6   4
ATOM      4  N   UNL     1      -2.319 -10.680  13.721  0.00  0.00    -0.305 NA
ATOM     25  H   UNL     1      -1.471 -10.251  14.090  0.00  0.00    +0.123 HD
BRANCH   4  11
ATOM     11  C   UNL     1      -1.982 -11.440  12.523  0.00  0.00    +0.116 C 
BRANCH  11  12
ATOM     12  C   UNL     1      -2.776 -10.984  11.328  0.00  0.00    -0.034 A 
ATOM     14  C   UNL     1      -3.570 -11.893  10.629  0.00  0.00    +0.005 A 
ATOM     15  C   UNL     1      -2.716  -9.652  10.919  0.00  0.00    +0.005 A 
ATOM     17  C   UNL     1      -4.305 -11.470   9.522  0.00  0.00    +0.000 A 
ATOM     18  C   UNL     1      -3.451  -9.228   9.812  0.00  0.00    +0.000 A 
ATOM     19  C   UNL     1      -4.245 -10.138   9.113  0.00  0.00    +0.000 A 
ENDBRANCH  11  12
ENDBRANCH   4  11
ENDBRANCH   6   4
BRANCH   8  10
ATOM     10  C   UNL     1      -4.551 -11.061  18.028  0.00  0.00    +0.138 C 
BRANCH  10   5
ATOM      3  O   UNL     1      -6.724 -10.690  19.868  0.00  0.00    -0.270 OA
ATOM      5  N   UNL     1      -5.864 -10.570  17.717  0.00  0.00    -0.309 N 
ATOM     13  C   UNL     1      -6.860 -10.422  18.677  0.00  0.00    +0.244 C 
ATOM     27  H   UNL     1      -6.064 -10.398  16.738  0.00  0.00    +0.149 HD
BRANCH  13  16
ATOM     16  C   UNL     1      -8.172  -9.926  18.191  0.00  0.00    +0.037 A 
ATOM     20  C   UNL     1      -8.225  -8.920  17.226  0.00  0.00    +0.013 A 
ATOM     21  C   UNL     1      -9.354 -10.467  18.698  0.00  0.00    +0.013 A 
ATOM     22  C   UNL     1      -9.457  -8.456  16.768  0.00  0.00    +0.001 A 
ATOM     23  C   UNL     1     -10.587 -10.002  18.241  0.00  0.00    +0.001 A 
ATOM     24  C   UNL     1     -10.638  -8.996  17.276  0.00  0.00    +0.000 A 
ENDBRANCH  13  16
ENDBRANCH  10   5
ENDBRANCH   8  10
TORSDOF 7
ENDMDL
