MODEL 1
REMARK VINA RESULT:      -7.1      0.000      0.000
REMARK  Name = 11911722
REMARK  7 active torsions:
REMARK  status: ('A' for Active; 'I' for Inactive)
REMARK    1  A    between atoms: N_5  and  C_12
REMARK    2  A    between atoms: N_6  and  C_13
REMARK    3  A    between atoms: N_9  and  C_28
REMARK    4  A    between atoms: N_9  and  C_31
REMARK    5  A    between atoms: N_9  and  C_32
REMARK    6  A    between atoms: C_17  and  C_18
REMARK    7  A    between atoms: C_19  and  C_23
REMARK                            x       y       z     vdW  Elec       q    Type
REMARK                         _______ _______ _______ _____ _____    ______ ____
ROOT
ATOM      5  N   UNL     1      -3.286 -10.375  12.275  0.00  0.00    -0.306 N 
ATOM      7  N   UNL     1      -4.036 -10.691  14.475  0.00  0.00    -0.214 NA
ATOM      8  N   UNL     1      -1.705 -10.296  14.007  0.00  0.00    -0.223 NA
ATOM     16  C   UNL     1      -3.001 -10.456  13.626  0.00  0.00    +0.216 A 
ATOM     19  C   UNL     1      -3.722 -10.764  15.785  0.00  0.00    +0.076 A 
ATOM     21  C   UNL     1      -1.463 -10.382  15.332  0.00  0.00    +0.116 A 
ATOM     22  C   UNL     1      -2.441 -10.616  16.277  0.00  0.00    +0.048 A 
ATOM     33  H   UNL     1      -2.500 -10.252  11.646  0.00  0.00    +0.149 HD
ENDROOT
BRANCH   5  12
ATOM      2  O   UNL     1      -4.817  -8.845  10.063  0.00  0.00    -0.370 OA
ATOM      3  O   UNL     1      -5.801 -11.806  10.049  0.00  0.00    -0.370 OA
ATOM     10  C   UNL     1      -4.544 -11.188  10.371  0.00  0.00    +0.171 C 
ATOM     11  C   UNL     1      -4.350 -10.035   9.407  0.00  0.00    +0.171 C 
ATOM     12  C   UNL     1      -4.616 -10.528  11.727  0.00  0.00    +0.130 C 
ATOM     13  C   UNL     1      -5.245 -10.377   8.237  0.00  0.00    +0.130 C 
ATOM     14  C   UNL     1      -5.210  -9.169  11.405  0.00  0.00    +0.185 C 
ATOM     15  C   UNL     1      -6.369 -11.150   8.905  0.00  0.00    +0.185 C 
BRANCH  13   6
ATOM      4  O   UNL     1      -5.871 -10.630   5.447  0.00  0.00    -0.270 OA
ATOM      6  N   UNL     1      -4.553 -11.193   7.270  0.00  0.00    -0.303 N 
ATOM     17  C   UNL     1      -4.930 -11.250   5.936  0.00  0.00    +0.251 C 
ATOM     34  H   UNL     1      -3.790 -11.781   7.592  0.00  0.00    +0.149 HD
BRANCH  17  18
ATOM      1  S   UNL     1      -4.720 -12.473   3.526  0.00  0.00    -0.092 S 
ATOM     18  C   UNL     1      -4.132 -12.157   5.073  0.00  0.00    +0.074 A 
ATOM     20  C   UNL     1      -2.977 -12.763   5.391  0.00  0.00    +0.021 A 
ATOM     24  C   UNL     1      -2.520 -13.552   4.297  0.00  0.00    +0.008 A 
ATOM     25  C   UNL     1      -3.373 -13.485   3.218  0.00  0.00    +0.046 A 
ENDBRANCH  17  18
ENDBRANCH  13   6
ENDBRANCH   5  12
BRANCH  19  23
ATOM     23  C   UNL     1      -4.835 -11.015  16.669  0.00  0.00    +0.001 A 
ATOM     26  C   UNL     1      -4.609 -11.433  17.983  0.00  0.00    +0.012 A 
ATOM     27  C   UNL     1      -6.144 -10.841  16.214  0.00  0.00    +0.012 A 
ATOM     28  C   UNL     1      -6.991 -11.501  18.378  0.00  0.00    +0.029 A 
ATOM     29  C   UNL     1      -5.684 -11.676  18.836  0.00  0.00    +0.024 A 
ATOM     30  C   UNL     1      -7.221 -11.084  17.067  0.00  0.00    +0.024 A 
BRANCH  28   9
ATOM      9  N   UNL     1      -8.079 -11.746  19.242  0.00  0.00    -0.336 N 
ATOM     31  C   UNL     1      -8.130 -12.962  20.030  0.00  0.00    +0.129 C 
ATOM     32  C   UNL     1      -9.165 -10.793  19.343  0.00  0.00    +0.129 C 
ENDBRANCH  28   9
ENDBRANCH  19  23
TORSDOF 5
ENDMDL
MODEL 2
REMARK VINA RESULT:      -7.0     28.069     32.084
REMARK  Name = 11911722
REMARK  7 active torsions:
REMARK  status: ('A' for Active; 'I' for Inactive)
REMARK    1  A    between atoms: N_5  and  C_12
REMARK    2  A    between atoms: N_6  and  C_13
REMARK    3  A    between atoms: N_9  and  C_28
REMARK    4  A    between atoms: N_9  and  C_31
REMARK    5  A    between atoms: N_9  and  C_32
REMARK    6  A    between atoms: C_17  and  C_18
REMARK    7  A    between atoms: C_19  and  C_23
REMARK                            x       y       z     vdW  Elec       q    Type
REMARK                         _______ _______ _______ _____ _____    ______ ____
ROOT
ATOM      5  N   UNL     1      10.827  10.780  22.790  0.00  0.00    -0.306 N 
ATOM      7  N   UNL     1      12.275   9.109  22.005  0.00  0.00    -0.214 NA
ATOM      8  N   UNL     1       9.976   8.609  22.526  0.00  0.00    -0.223 NA
ATOM     16  C   UNL     1      11.032   9.460  22.430  0.00  0.00    +0.216 A 
ATOM     19  C   UNL     1      12.440   7.815  21.662  0.00  0.00    +0.076 A 
ATOM     21  C   UNL     1      10.212   7.330  22.167  0.00  0.00    +0.116 A 
ATOM     22  C   UNL     1      11.435   6.871  21.723  0.00  0.00    +0.048 A 
ATOM     33  H   UNL     1       9.912  11.019  23.155  0.00  0.00    +0.149 HD
ENDROOT
BRANCH   5  12
ATOM      2  O   UNL     1      11.150  13.498  24.235  0.00  0.00    -0.370 OA
ATOM      3  O   UNL     1      13.998  12.322  23.740  0.00  0.00    -0.370 OA
ATOM     10  C   UNL     1      12.714  11.722  23.983  0.00  0.00    +0.171 C 
ATOM     11  C   UNL     1      11.989  12.602  24.982  0.00  0.00    +0.171 C 
ATOM     12  C   UNL     1      11.858  11.793  22.740  0.00  0.00    +0.130 C 
ATOM     13  C   UNL     1      13.096  13.368  25.670  0.00  0.00    +0.130 C 
ATOM     14  C   UNL     1      11.241  13.176  22.839  0.00  0.00    +0.185 C 
ATOM     15  C   UNL     1      14.141  13.481  24.573  0.00  0.00    +0.185 C 
BRANCH  13   6
ATOM      4  O   UNL     1      14.581  14.456  27.873  0.00  0.00    -0.270 OA
ATOM      6  N   UNL     1      13.608  12.642  26.806  0.00  0.00    -0.303 N 
ATOM     17  C   UNL     1      14.317  13.258  27.827  0.00  0.00    +0.251 C 
ATOM     34  H   UNL     1      13.481  11.634  26.831  0.00  0.00    +0.149 HD
BRANCH  17  18
ATOM      1  S   UNL     1      15.807  11.090  28.480  0.00  0.00    -0.092 S 
ATOM     18  C   UNL     1      14.797  12.366  28.914  0.00  0.00    +0.074 A 
ATOM     20  C   UNL     1      14.513  12.465  30.222  0.00  0.00    +0.021 A 
ATOM     24  C   UNL     1      15.163  11.423  30.944  0.00  0.00    +0.008 A 
ATOM     25  C   UNL     1      15.901  10.603  30.120  0.00  0.00    +0.046 A 
ENDBRANCH  17  18
ENDBRANCH  13   6
ENDBRANCH   5  12
BRANCH  19  23
ATOM     23  C   UNL     1      13.766   7.464  21.214  0.00  0.00    +0.001 A 
ATOM     26  C   UNL     1      14.866   7.659  22.053  0.00  0.00    +0.012 A 
ATOM     27  C   UNL     1      13.956   6.928  19.938  0.00  0.00    +0.012 A 
ATOM     28  C   UNL     1      16.333   6.785  20.345  0.00  0.00    +0.029 A 
ATOM     29  C   UNL     1      16.147   7.320  21.620  0.00  0.00    +0.024 A 
ATOM     30  C   UNL     1      15.238   6.589  19.504  0.00  0.00    +0.024 A 
BRANCH  28   9
ATOM      9  N   UNL     1      17.629   6.442  19.907  0.00  0.00    -0.336 N 
ATOM     31  C   UNL     1      17.810   5.595  18.745  0.00  0.00    +0.129 C 
ATOM     32  C   UNL     1      18.796   6.920  20.621  0.00  0.00    +0.129 C 
ENDBRANCH  28   9
ENDBRANCH  19  23
TORSDOF 5
ENDMDL
MODEL 3
REMARK VINA RESULT:      -6.9      7.781      9.009
REMARK  Name = 11911722
REMARK  7 active torsions:
REMARK  status: ('A' for Active; 'I' for Inactive)
REMARK    1  A    between atoms: N_5  and  C_12
REMARK    2  A    between atoms: N_6  and  C_13
REMARK    3  A    between atoms: N_9  and  C_28
REMARK    4  A    between atoms: N_9  and  C_31
REMARK    5  A    between atoms: N_9  and  C_32
REMARK    6  A    between atoms: C_17  and  C_18
REMARK    7  A    between atoms: C_19  and  C_23
REMARK                            x       y       z     vdW  Elec       q    Type
REMARK                         _______ _______ _______ _____ _____    ______ ____
ROOT
ATOM      5  N   UNL     1      -9.091  -8.359  15.921  0.00  0.00    -0.306 N 
ATOM      7  N   UNL     1      -8.971 -10.064  17.527  0.00  0.00    -0.214 NA
ATOM      8  N   UNL     1      -6.978  -9.219  16.470  0.00  0.00    -0.223 NA
ATOM     16  C   UNL     1      -8.324  -9.241  16.662  0.00  0.00    +0.216 A 
ATOM     19  C   UNL     1      -8.194 -10.911  18.233  0.00  0.00    +0.076 A 
ATOM     21  C   UNL     1      -6.261 -10.092  17.208  0.00  0.00    +0.116 A 
ATOM     22  C   UNL     1      -6.820 -10.971  18.114  0.00  0.00    +0.048 A 
ATOM     33  H   UNL     1      -8.603  -7.785  15.241  0.00  0.00    +0.149 HD
ENDROOT
BRANCH   5  12
ATOM      2  O   UNL     1     -10.999  -6.007  16.555  0.00  0.00    -0.370 OA
ATOM      3  O   UNL     1     -12.476  -7.954  14.615  0.00  0.00    -0.370 OA
ATOM     10  C   UNL     1     -11.094  -7.599  14.790  0.00  0.00    +0.171 C 
ATOM     11  C   UNL     1     -11.048  -6.121  15.124  0.00  0.00    +0.171 C 
ATOM     12  C   UNL     1     -10.531  -8.273  16.019  0.00  0.00    +0.130 C 
ATOM     13  C   UNL     1     -12.360  -5.584  14.597  0.00  0.00    +0.130 C 
ATOM     14  C   UNL     1     -10.926  -7.319  17.132  0.00  0.00    +0.185 C 
ATOM     15  C   UNL     1     -13.286  -6.777  14.755  0.00  0.00    +0.185 C 
BRANCH  13   6
ATOM      4  O   UNL     1     -13.762  -3.437  13.306  0.00  0.00    -0.270 OA
ATOM      6  N   UNL     1     -12.246  -5.190  13.214  0.00  0.00    -0.303 N 
ATOM     17  C   UNL     1     -12.968  -4.133  12.678  0.00  0.00    +0.251 C 
ATOM     34  H   UNL     1     -11.649  -5.740  12.603  0.00  0.00    +0.149 HD
BRANCH  17  18
ATOM      1  S   UNL     1     -14.119  -3.532  10.299  0.00  0.00    -0.092 S 
ATOM     18  C   UNL     1     -12.757  -3.870  11.231  0.00  0.00    +0.074 A 
ATOM     20  C   UNL     1     -11.587  -3.872  10.574  0.00  0.00    +0.021 A 
ATOM     24  C   UNL     1     -11.799  -3.575   9.196  0.00  0.00    +0.008 A 
ATOM     25  C   UNL     1     -13.130  -3.368   8.910  0.00  0.00    +0.046 A 
ENDBRANCH  17  18
ENDBRANCH  13   6
ENDBRANCH   5  12
BRANCH  19  23
ATOM     23  C   UNL     1      -8.901 -11.778  19.145  0.00  0.00    +0.001 A 
ATOM     26  C   UNL     1      -8.320 -12.974  19.570  0.00  0.00    +0.012 A 
ATOM     27  C   UNL     1     -10.172 -11.423  19.605  0.00  0.00    +0.012 A 
ATOM     28  C   UNL     1     -10.273 -13.455  20.909  0.00  0.00    +0.029 A 
ATOM     29  C   UNL     1      -9.004 -13.812  20.451  0.00  0.00    +0.024 A 
ATOM     30  C   UNL     1     -10.856 -12.261  20.486  0.00  0.00    +0.024 A 
BRANCH  28   9
ATOM      9  N   UNL     1     -10.965 -14.301  21.800  0.00  0.00    -0.336 N 
ATOM     31  C   UNL     1     -10.444 -15.616  22.116  0.00  0.00    +0.129 C 
ATOM     32  C   UNL     1     -12.212 -13.873  22.401  0.00  0.00    +0.129 C 
ENDBRANCH  28   9
ENDBRANCH  19  23
TORSDOF 5
ENDMDL
MODEL 4
REMARK VINA RESULT:      -6.7     23.325     26.643
REMARK  Name = 11911722
REMARK  7 active torsions:
REMARK  status: ('A' for Active; 'I' for Inactive)
REMARK    1  A    between atoms: N_5  and  C_12
REMARK    2  A    between atoms: N_6  and  C_13
REMARK    3  A    between atoms: N_9  and  C_28
REMARK    4  A    between atoms: N_9  and  C_31
REMARK    5  A    between atoms: N_9  and  C_32
REMARK    6  A    between atoms: C_17  and  C_18
REMARK    7  A    between atoms: C_19  and  C_23
REMARK                            x       y       z     vdW  Elec       q    Type
REMARK                         _______ _______ _______ _____ _____    ______ ____
ROOT
ATOM      5  N   UNL     1       7.677   6.100  -4.112  0.00  0.00    -0.306 N 
ATOM      7  N   UNL     1       5.447   5.497  -4.519  0.00  0.00    -0.214 NA
ATOM      8  N   UNL     1       6.001   7.679  -3.661  0.00  0.00    -0.223 NA
ATOM     16  C   UNL     1       6.335   6.435  -4.097  0.00  0.00    +0.216 A 
ATOM     19  C   UNL     1       4.147   5.857  -4.491  0.00  0.00    +0.076 A 
ATOM     21  C   UNL     1       4.685   7.972  -3.659  0.00  0.00    +0.116 A 
ATOM     22  C   UNL     1       3.702   7.093  -4.067  0.00  0.00    +0.048 A 
ATOM     33  H   UNL     1       8.327   6.788  -3.746  0.00  0.00    +0.149 HD
ENDROOT
BRANCH   5  12
ATOM      2  O   UNL     1      10.418   5.198  -5.230  0.00  0.00    -0.370 OA
ATOM      3  O   UNL     1       9.186   2.808  -3.647  0.00  0.00    -0.370 OA
ATOM     10  C   UNL     1       9.098   4.235  -3.501  0.00  0.00    +0.171 C 
ATOM     11  C   UNL     1      10.458   4.807  -3.848  0.00  0.00    +0.171 C 
ATOM     12  C   UNL     1       8.176   4.814  -4.548  0.00  0.00    +0.130 C 
ATOM     13  C   UNL     1      11.406   3.645  -3.656  0.00  0.00    +0.130 C 
ATOM     14  C   UNL     1       9.095   4.984  -5.744  0.00  0.00    +0.185 C 
ATOM     15  C   UNL     1      10.531   2.453  -4.000  0.00  0.00    +0.185 C 
BRANCH  13   6
ATOM      4  O   UNL     1      14.100   4.052  -2.751  0.00  0.00    -0.270 OA
ATOM      6  N   UNL     1      11.877   3.573  -2.295  0.00  0.00    -0.303 N 
ATOM     17  C   UNL     1      13.205   3.787  -1.952  0.00  0.00    +0.251 C 
ATOM     34  H   UNL     1      11.217   3.310  -1.569  0.00  0.00    +0.149 HD
BRANCH  17  18
ATOM      1  S   UNL     1      15.082   4.102  -0.023  0.00  0.00    -0.092 S 
ATOM     18  C   UNL     1      13.534   3.652  -0.510  0.00  0.00    +0.074 A 
ATOM     20  C   UNL     1      12.724   3.205   0.462  0.00  0.00    +0.021 A 
ATOM     24  C   UNL     1      13.405   3.224   1.714  0.00  0.00    +0.008 A 
ATOM     25  C   UNL     1      14.695   3.690   1.594  0.00  0.00    +0.046 A 
ENDBRANCH  17  18
ENDBRANCH  13   6
ENDBRANCH   5  12
BRANCH  19  23
ATOM     23  C   UNL     1       3.221   4.846  -4.942  0.00  0.00    +0.001 A 
ATOM     26  C   UNL     1       3.541   4.036  -6.033  0.00  0.00    +0.012 A 
ATOM     27  C   UNL     1       1.998   4.676  -4.288  0.00  0.00    +0.012 A 
ATOM     28  C   UNL     1       1.424   2.893  -5.815  0.00  0.00    +0.029 A 
ATOM     29  C   UNL     1       2.645   3.061  -6.470  0.00  0.00    +0.024 A 
ATOM     30  C   UNL     1       1.101   3.700  -4.725  0.00  0.00    +0.024 A 
BRANCH  28   9
ATOM      9  N   UNL     1       0.518   1.906  -6.255  0.00  0.00    -0.336 N 
ATOM     31  C   UNL     1       0.202   0.771  -5.411  0.00  0.00    +0.129 C 
ATOM     32  C   UNL     1      -0.098   2.007  -7.563  0.00  0.00    +0.129 C 
ENDBRANCH  28   9
ENDBRANCH  19  23
TORSDOF 5
ENDMDL
MODEL 5
REMARK VINA RESULT:      -6.5     23.069     25.620
REMARK  Name = 11911722
REMARK  7 active torsions:
REMARK  status: ('A' for Active; 'I' for Inactive)
REMARK    1  A    between atoms: N_5  and  C_12
REMARK    2  A    between atoms: N_6  and  C_13
REMARK    3  A    between atoms: N_9  and  C_28
REMARK    4  A    between atoms: N_9  and  C_31
REMARK    5  A    between atoms: N_9  and  C_32
REMARK    6  A    between atoms: C_17  and  C_18
REMARK    7  A    between atoms: C_19  and  C_23
REMARK                            x       y       z     vdW  Elec       q    Type
REMARK                         _______ _______ _______ _____ _____    ______ ____
ROOT
ATOM      5  N   UNL     1       9.867   4.846  -4.395  0.00  0.00    -0.306 N 
ATOM      7  N   UNL     1      10.580   4.531  -2.183  0.00  0.00    -0.214 NA
ATOM      8  N   UNL     1      11.460   3.177  -3.971  0.00  0.00    -0.223 NA
ATOM     16  C   UNL     1      10.659   4.164  -3.489  0.00  0.00    +0.216 A 
ATOM     19  C   UNL     1      11.365   3.846  -1.327  0.00  0.00    +0.076 A 
ATOM     21  C   UNL     1      12.218   2.533  -3.060  0.00  0.00    +0.116 A 
ATOM     22  C   UNL     1      12.213   2.827  -1.711  0.00  0.00    +0.048 A 
ATOM     33  H   UNL     1       9.894   4.530  -5.358  0.00  0.00    +0.149 HD
ENDROOT
BRANCH   5  12
ATOM      2  O   UNL     1       7.897   6.576  -6.040  0.00  0.00    -0.370 OA
ATOM      3  O   UNL     1       6.730   6.253  -3.164  0.00  0.00    -0.370 OA
ATOM     10  C   UNL     1       7.545   5.410  -3.996  0.00  0.00    +0.171 C 
ATOM     11  C   UNL     1       7.060   5.584  -5.422  0.00  0.00    +0.171 C 
ATOM     12  C   UNL     1       8.967   5.916  -4.025  0.00  0.00    +0.130 C 
ATOM     13  C   UNL     1       5.649   6.106  -5.271  0.00  0.00    +0.130 C 
ATOM     14  C   UNL     1       8.924   6.969  -5.118  0.00  0.00    +0.185 C 
ATOM     15  C   UNL     1       5.731   6.890  -3.974  0.00  0.00    +0.185 C 
BRANCH  13   6
ATOM      4  O   UNL     1       2.956   6.091  -6.265  0.00  0.00    -0.270 OA
ATOM      6  N   UNL     1       4.700   5.024  -5.170  0.00  0.00    -0.303 N 
ATOM     17  C   UNL     1       3.414   5.110  -5.684  0.00  0.00    +0.251 C 
ATOM     34  H   UNL     1       4.973   4.189  -4.661  0.00  0.00    +0.149 HD
BRANCH  17  18
ATOM      1  S   UNL     1       1.141   4.133  -4.576  0.00  0.00    -0.092 S 
ATOM     18  C   UNL     1       2.550   3.920  -5.475  0.00  0.00    +0.074 A 
ATOM     20  C   UNL     1       2.769   2.676  -5.929  0.00  0.00    +0.021 A 
ATOM     24  C   UNL     1       1.712   1.812  -5.520  0.00  0.00    +0.008 A 
ATOM     25  C   UNL     1       0.760   2.475  -4.778  0.00  0.00    +0.046 A 
ENDBRANCH  17  18
ENDBRANCH  13   6
ENDBRANCH   5  12
BRANCH  19  23
ATOM     23  C   UNL     1      11.266   4.250   0.055  0.00  0.00    +0.001 A 
ATOM     26  C   UNL     1      12.127   3.705   1.010  0.00  0.00    +0.012 A 
ATOM     27  C   UNL     1      10.306   5.188   0.443  0.00  0.00    +0.012 A 
ATOM     28  C   UNL     1      11.070   5.032   2.730  0.00  0.00    +0.029 A 
ATOM     29  C   UNL     1      12.030   4.095   2.345  0.00  0.00    +0.024 A 
ATOM     30  C   UNL     1      10.208   5.578   1.779  0.00  0.00    +0.024 A 
BRANCH  28   9
ATOM      9  N   UNL     1      10.972   5.427   4.080  0.00  0.00    -0.336 N 
ATOM     31  C   UNL     1      10.094   4.718   4.990  0.00  0.00    +0.129 C 
ATOM     32  C   UNL     1      11.738   6.554   4.573  0.00  0.00    +0.129 C 
ENDBRANCH  28   9
ENDBRANCH  19  23
TORSDOF 5
ENDMDL
MODEL 6
REMARK VINA RESULT:      -6.5      3.276     11.126
REMARK  Name = 11911722
REMARK  7 active torsions:
REMARK  status: ('A' for Active; 'I' for Inactive)
REMARK    1  A    between atoms: N_5  and  C_12
REMARK    2  A    between atoms: N_6  and  C_13
REMARK    3  A    between atoms: N_9  and  C_28
REMARK    4  A    between atoms: N_9  and  C_31
REMARK    5  A    between atoms: N_9  and  C_32
REMARK    6  A    between atoms: C_17  and  C_18
REMARK    7  A    between atoms: C_19  and  C_23
REMARK                            x       y       z     vdW  Elec       q    Type
REMARK                         _______ _______ _______ _____ _____    ______ ____
ROOT
ATOM      5  N   UNL     1      -5.670 -10.161   9.867  0.00  0.00    -0.306 N 
ATOM      7  N   UNL     1      -5.294 -10.841   7.654  0.00  0.00    -0.214 NA
ATOM      8  N   UNL     1      -6.818  -9.043   8.152  0.00  0.00    -0.223 NA
ATOM     16  C   UNL     1      -5.935 -10.011   8.517  0.00  0.00    +0.216 A 
ATOM     19  C   UNL     1      -5.576 -10.668   6.346  0.00  0.00    +0.076 A 
ATOM     21  C   UNL     1      -7.054  -8.925   6.829  0.00  0.00    +0.116 A 
ATOM     22  C   UNL     1      -6.455  -9.717   5.870  0.00  0.00    +0.048 A 
ATOM     33  H   UNL     1      -6.193  -9.572  10.506  0.00  0.00    +0.149 HD
ENDROOT
BRANCH   5  12
ATOM      2  O   UNL     1      -3.115  -9.918  11.597  0.00  0.00    -0.370 OA
ATOM      3  O   UNL     1      -4.508 -12.619  12.303  0.00  0.00    -0.370 OA
ATOM     10  C   UNL     1      -5.003 -11.339  11.876  0.00  0.00    +0.171 C 
ATOM     11  C   UNL     1      -4.141 -10.281  12.535  0.00  0.00    +0.171 C 
ATOM     12  C   UNL     1      -4.756 -11.148  10.398  0.00  0.00    +0.130 C 
ATOM     13  C   UNL     1      -3.537 -10.988  13.727  0.00  0.00    +0.130 C 
ATOM     14  C   UNL     1      -3.334 -10.620  10.363  0.00  0.00    +0.185 C 
ATOM     15  C   UNL     1      -3.436 -12.422  13.236  0.00  0.00    +0.185 C 
BRANCH  13   6
ATOM      4  O   UNL     1      -2.705 -10.672  16.457  0.00  0.00    -0.270 OA
ATOM      6  N   UNL     1      -4.394 -10.891  14.883  0.00  0.00    -0.303 N 
ATOM     17  C   UNL     1      -3.898 -10.738  16.170  0.00  0.00    +0.251 C 
ATOM     34  H   UNL     1      -5.397 -10.985  14.749  0.00  0.00    +0.149 HD
BRANCH  17  18
ATOM      1  S   UNL     1      -6.421 -10.039  16.871  0.00  0.00    -0.092 S 
ATOM     18  C   UNL     1      -4.910 -10.679  17.255  0.00  0.00    +0.074 A 
ATOM     20  C   UNL     1      -4.755 -11.084  18.524  0.00  0.00    +0.021 A 
ATOM     24  C   UNL     1      -5.955 -10.862  19.260  0.00  0.00    +0.008 A 
ATOM     25  C   UNL     1      -6.942 -10.299  18.481  0.00  0.00    +0.046 A 
ENDBRANCH  17  18
ENDBRANCH  13   6
ENDBRANCH   5  12
BRANCH  19  23
ATOM     23  C   UNL     1      -4.885 -11.560   5.446  0.00  0.00    +0.001 A 
ATOM     26  C   UNL     1      -5.391 -11.797   4.166  0.00  0.00    +0.012 A 
ATOM     27  C   UNL     1      -3.707 -12.192   5.853  0.00  0.00    +0.012 A 
ATOM     28  C   UNL     1      -3.547 -13.290   3.707  0.00  0.00    +0.029 A 
ATOM     29  C   UNL     1      -4.724 -12.660   3.297  0.00  0.00    +0.024 A 
ATOM     30  C   UNL     1      -3.040 -13.056   4.984  0.00  0.00    +0.024 A 
BRANCH  28   9
ATOM      9  N   UNL     1      -2.873 -14.162   2.828  0.00  0.00    -0.336 N 
ATOM     31  C   UNL     1      -1.468 -13.962   2.530  0.00  0.00    +0.129 C 
ATOM     32  C   UNL     1      -3.577 -15.262   2.200  0.00  0.00    +0.129 C 
ENDBRANCH  28   9
ENDBRANCH  19  23
TORSDOF 5
ENDMDL
MODEL 7
REMARK VINA RESULT:      -6.2     24.420     27.588
REMARK  Name = 11911722
REMARK  7 active torsions:
REMARK  status: ('A' for Active; 'I' for Inactive)
REMARK    1  A    between atoms: N_5  and  C_12
REMARK    2  A    between atoms: N_6  and  C_13
REMARK    3  A    between atoms: N_9  and  C_28
REMARK    4  A    between atoms: N_9  and  C_31
REMARK    5  A    between atoms: N_9  and  C_32
REMARK    6  A    between atoms: C_17  and  C_18
REMARK    7  A    between atoms: C_19  and  C_23
REMARK                            x       y       z     vdW  Elec       q    Type
REMARK                         _______ _______ _______ _____ _____    ______ ____
ROOT
ATOM      5  N   UNL     1      12.761   5.177   2.723  0.00  0.00    -0.306 N 
ATOM      7  N   UNL     1      12.705   4.624   0.444  0.00  0.00    -0.214 NA
ATOM      8  N   UNL     1      14.762   4.514   1.693  0.00  0.00    -0.223 NA
ATOM     16  C   UNL     1      13.429   4.759   1.586  0.00  0.00    +0.216 A 
ATOM     19  C   UNL     1      13.387   4.215  -0.646  0.00  0.00    +0.076 A 
ATOM     21  C   UNL     1      15.382   4.109   0.565  0.00  0.00    +0.116 A 
ATOM     22  C   UNL     1      14.740   3.940  -0.645  0.00  0.00    +0.048 A 
ATOM     33  H   UNL     1      13.320   5.325   3.556  0.00  0.00    +0.149 HD
ENDROOT
BRANCH   5  12
ATOM      2  O   UNL     1      10.543   4.538   4.784  0.00  0.00    -0.370 OA
ATOM      3  O   UNL     1       9.833   7.248   3.409  0.00  0.00    -0.370 OA
ATOM     10  C   UNL     1      11.078   6.601   3.727  0.00  0.00    +0.171 C 
ATOM     11  C   UNL     1      10.894   5.903   5.060  0.00  0.00    +0.171 C 
ATOM     12  C   UNL     1      11.346   5.476   2.756  0.00  0.00    +0.130 C 
ATOM     13  C   UNL     1       9.731   6.628   5.698  0.00  0.00    +0.130 C 
ATOM     14  C   UNL     1      10.578   4.318   3.366  0.00  0.00    +0.185 C 
ATOM     15  C   UNL     1       8.911   7.050   4.491  0.00  0.00    +0.185 C 
BRANCH  13   6
ATOM      4  O   UNL     1       8.292   7.972   7.787  0.00  0.00    -0.270 OA
ATOM      6  N   UNL     1      10.178   7.773   6.453  0.00  0.00    -0.303 N 
ATOM     17  C   UNL     1       9.408   8.357   7.449  0.00  0.00    +0.251 C 
ATOM     34  H   UNL     1      11.071   8.192   6.210  0.00  0.00    +0.149 HD
BRANCH  17  18
ATOM      1  S   UNL     1      11.562   9.988   7.666  0.00  0.00    -0.092 S 
ATOM     18  C   UNL     1      10.000   9.545   8.116  0.00  0.00    +0.074 A 
ATOM     20  C   UNL     1       9.422  10.316   9.049  0.00  0.00    +0.021 A 
ATOM     24  C   UNL     1      10.311  11.359   9.442  0.00  0.00    +0.008 A 
ATOM     25  C   UNL     1      11.510  11.298   8.767  0.00  0.00    +0.046 A 
ENDBRANCH  17  18
ENDBRANCH  13   6
ENDBRANCH   5  12
BRANCH  19  23
ATOM     23  C   UNL     1      12.600   4.079  -1.848  0.00  0.00    +0.001 A 
ATOM     26  C   UNL     1      11.641   5.041  -2.172  0.00  0.00    +0.012 A 
ATOM     27  C   UNL     1      12.794   2.983  -2.691  0.00  0.00    +0.012 A 
ATOM     28  C   UNL     1      11.076   3.811  -4.174  0.00  0.00    +0.029 A 
ATOM     29  C   UNL     1      10.880   4.908  -3.332  0.00  0.00    +0.024 A 
ATOM     30  C   UNL     1      12.033   2.849  -3.852  0.00  0.00    +0.024 A 
BRANCH  28   9
ATOM      9  N   UNL     1      10.307   3.677  -5.348  0.00  0.00    -0.336 N 
ATOM     31  C   UNL     1       9.043   4.375  -5.480  0.00  0.00    +0.129 C 
ATOM     32  C   UNL     1      10.762   2.830  -6.432  0.00  0.00    +0.129 C 
ENDBRANCH  28   9
ENDBRANCH  19  23
TORSDOF 5
ENDMDL
MODEL 8
REMARK VINA RESULT:      -6.2     25.255     30.130
REMARK  Name = 11911722
REMARK  7 active torsions:
REMARK  status: ('A' for Active; 'I' for Inactive)
REMARK    1  A    between atoms: N_5  and  C_12
REMARK    2  A    between atoms: N_6  and  C_13
REMARK    3  A    between atoms: N_9  and  C_28
REMARK    4  A    between atoms: N_9  and  C_31
REMARK    5  A    between atoms: N_9  and  C_32
REMARK    6  A    between atoms: C_17  and  C_18
REMARK    7  A    between atoms: C_19  and  C_23
REMARK                            x       y       z     vdW  Elec       q    Type
REMARK                         _______ _______ _______ _____ _____    ______ ____
ROOT
ATOM      5  N   UNL     1     -12.968   8.719  33.139  0.00  0.00    -0.306 N 
ATOM      7  N   UNL     1     -11.497   8.865  34.959  0.00  0.00    -0.214 NA
ATOM      8  N   UNL     1     -10.882   9.737  32.799  0.00  0.00    -0.223 NA
ATOM     16  C   UNL     1     -11.746   9.118  33.648  0.00  0.00    +0.216 A 
ATOM     19  C   UNL     1     -10.296   9.267  35.423  0.00  0.00    +0.076 A 
ATOM     21  C   UNL     1      -9.699  10.113  33.329  0.00  0.00    +0.116 A 
ATOM     22  C   UNL     1      -9.348   9.903  34.647  0.00  0.00    +0.048 A 
ATOM     33  H   UNL     1     -13.123   8.866  32.147  0.00  0.00    +0.149 HD
ENDROOT
BRANCH   5  12
ATOM      2  O   UNL     1     -15.854   7.815  32.481  0.00  0.00    -0.370 OA
ATOM      3  O   UNL     1     -14.668   5.819  34.565  0.00  0.00    -0.370 OA
ATOM     10  C   UNL     1     -14.085   6.601  33.508  0.00  0.00    +0.171 C 
ATOM     11  C   UNL     1     -15.075   6.614  32.360  0.00  0.00    +0.171 C 
ATOM     12  C   UNL     1     -13.982   8.049  33.923  0.00  0.00    +0.130 C 
ATOM     13  C   UNL     1     -15.940   5.399  32.606  0.00  0.00    +0.130 C 
ATOM     14  C   UNL     1     -15.357   8.593  33.580  0.00  0.00    +0.185 C 
ATOM     15  C   UNL     1     -15.927   5.293  34.121  0.00  0.00    +0.185 C 
BRANCH  13   6
ATOM      4  O   UNL     1     -17.276   3.578  30.833  0.00  0.00    -0.270 OA
ATOM      6  N   UNL     1     -15.375   4.221  31.995  0.00  0.00    -0.303 N 
ATOM     17  C   UNL     1     -16.102   3.399  31.146  0.00  0.00    +0.251 C 
ATOM     34  H   UNL     1     -14.422   3.964  32.234  0.00  0.00    +0.149 HD
BRANCH  17  18
ATOM      1  S   UNL     1     -13.832   1.918  31.209  0.00  0.00    -0.092 S 
ATOM     18  C   UNL     1     -15.382   2.211  30.618  0.00  0.00    +0.074 A 
ATOM     20  C   UNL     1     -15.835   1.333  29.711  0.00  0.00    +0.021 A 
ATOM     24  C   UNL     1     -14.851   0.332  29.464  0.00  0.00    +0.008 A 
ATOM     25  C   UNL     1     -13.713   0.530  30.213  0.00  0.00    +0.046 A 
ENDBRANCH  17  18
ENDBRANCH  13   6
ENDBRANCH   5  12
BRANCH  19  23
ATOM     23  C   UNL     1     -10.051   8.988  36.818  0.00  0.00    +0.001 A 
ATOM     26  C   UNL     1      -9.543   9.983  37.655  0.00  0.00    +0.012 A 
ATOM     27  C   UNL     1     -10.320   7.718  37.335  0.00  0.00    +0.012 A 
ATOM     28  C   UNL     1      -9.575   8.443  39.516  0.00  0.00    +0.029 A 
ATOM     29  C   UNL     1      -9.305   9.712  39.002  0.00  0.00    +0.024 A 
ATOM     30  C   UNL     1     -10.082   7.447  38.683  0.00  0.00    +0.024 A 
BRANCH  28   9
ATOM      9  N   UNL     1      -9.336   8.169  40.879  0.00  0.00    -0.336 N 
ATOM     31  C   UNL     1      -9.975   7.039  41.523  0.00  0.00    +0.129 C 
ATOM     32  C   UNL     1      -8.458   9.021  41.656  0.00  0.00    +0.129 C 
ENDBRANCH  28   9
ENDBRANCH  19  23
TORSDOF 5
ENDMDL
MODEL 9
REMARK VINA RESULT:      -6.2     29.621     33.295
REMARK  Name = 11911722
REMARK  7 active torsions:
REMARK  status: ('A' for Active; 'I' for Inactive)
REMARK    1  A    between atoms: N_5  and  C_12
REMARK    2  A    between atoms: N_6  and  C_13
REMARK    3  A    between atoms: N_9  and  C_28
REMARK    4  A    between atoms: N_9  and  C_31
REMARK    5  A    between atoms: N_9  and  C_32
REMARK    6  A    between atoms: C_17  and  C_18
REMARK    7  A    between atoms: C_19  and  C_23
REMARK                            x       y       z     vdW  Elec       q    Type
REMARK                         _______ _______ _______ _____ _____    ______ ____
ROOT
ATOM      5  N   UNL     1      23.507   5.869  21.231  0.00  0.00    -0.306 N 
ATOM      7  N   UNL     1      23.962   3.699  21.998  0.00  0.00    -0.214 NA
ATOM      8  N   UNL     1      24.407   4.322  19.714  0.00  0.00    -0.223 NA
ATOM     16  C   UNL     1      23.973   4.592  20.974  0.00  0.00    +0.216 A 
ATOM     19  C   UNL     1      24.422   2.464  21.712  0.00  0.00    +0.076 A 
ATOM     21  C   UNL     1      24.854   3.068  19.498  0.00  0.00    +0.116 A 
ATOM     22  C   UNL     1      24.886   2.087  20.468  0.00  0.00    +0.048 A 
ATOM     33  H   UNL     1      23.470   6.511  20.447  0.00  0.00    +0.149 HD
ENDROOT
BRANCH   5  12
ATOM      2  O   UNL     1      22.264   8.528  22.212  0.00  0.00    -0.370 OA
ATOM      3  O   UNL     1      21.005   6.203  23.869  0.00  0.00    -0.370 OA
ATOM     10  C   UNL     1      21.503   6.295  22.524  0.00  0.00    +0.171 C 
ATOM     11  C   UNL     1      21.132   7.669  22.001  0.00  0.00    +0.171 C 
ATOM     12  C   UNL     1      23.013   6.295  22.522  0.00  0.00    +0.130 C 
ATOM     13  C   UNL     1      19.976   8.097  22.877  0.00  0.00    +0.130 C 
ATOM     14  C   UNL     1      23.347   7.757  22.756  0.00  0.00    +0.185 C 
ATOM     15  C   UNL     1      20.293   7.406  24.192  0.00  0.00    +0.185 C 
BRANCH  13   6
ATOM      4  O   UNL     1      18.277   9.525  21.057  0.00  0.00    -0.270 OA
ATOM      6  N   UNL     1      18.717   7.644  22.338  0.00  0.00    -0.303 N 
ATOM     17  C   UNL     1      17.962   8.409  21.460  0.00  0.00    +0.251 C 
ATOM     34  H   UNL     1      18.350   6.750  22.654  0.00  0.00    +0.149 HD
BRANCH  17  18
ATOM      1  S   UNL     1      15.276   8.313  21.807  0.00  0.00    -0.092 S 
ATOM     18  C   UNL     1      16.677   7.811  21.017  0.00  0.00    +0.074 A 
ATOM     20  C   UNL     1      16.503   6.904  20.044  0.00  0.00    +0.021 A 
ATOM     24  C   UNL     1      15.122   6.578  19.918  0.00  0.00    +0.008 A 
ATOM     25  C   UNL     1      14.343   7.273  20.816  0.00  0.00    +0.046 A 
ENDBRANCH  17  18
ENDBRANCH  13   6
ENDBRANCH   5  12
BRANCH  19  23
ATOM     23  C   UNL     1      24.402   1.531  22.813  0.00  0.00    +0.001 A 
ATOM     26  C   UNL     1      23.337   1.534  23.717  0.00  0.00    +0.012 A 
ATOM     27  C   UNL     1      25.449   0.622  22.980  0.00  0.00    +0.012 A 
ATOM     28  C   UNL     1      24.366  -0.274  24.946  0.00  0.00    +0.029 A 
ATOM     29  C   UNL     1      23.319   0.634  24.781  0.00  0.00    +0.024 A 
ATOM     30  C   UNL     1      25.431  -0.279  24.045  0.00  0.00    +0.024 A 
BRANCH  28   9
ATOM      9  N   UNL     1      24.347  -1.185  26.022  0.00  0.00    -0.336 N 
ATOM     31  C   UNL     1      25.465  -2.080  26.245  0.00  0.00    +0.129 C 
ATOM     32  C   UNL     1      23.204  -1.248  26.910  0.00  0.00    +0.129 C 
ENDBRANCH  28   9
ENDBRANCH  19  23
TORSDOF 5
ENDMDL
MODEL 10
REMARK VINA RESULT:      -6.1      4.103     11.038
REMARK  Name = 11911722
REMARK  7 active torsions:
REMARK  status: ('A' for Active; 'I' for Inactive)
REMARK    1  A    between atoms: N_5  and  C_12
REMARK    2  A    between atoms: N_6  and  C_13
REMARK    3  A    between atoms: N_9  and  C_28
REMARK    4  A    between atoms: N_9  and  C_31
REMARK    5  A    between atoms: N_9  and  C_32
REMARK    6  A    between atoms: C_17  and  C_18
REMARK    7  A    between atoms: C_19  and  C_23
REMARK                            x       y       z     vdW  Elec       q    Type
REMARK                         _______ _______ _______ _____ _____    ______ ____
ROOT
ATOM      5  N   UNL     1      -6.396  -8.463   9.394  0.00  0.00    -0.306 N 
ATOM      7  N   UNL     1      -7.173  -8.877   7.220  0.00  0.00    -0.214 NA
ATOM      8  N   UNL     1      -7.851  -6.901   8.419  0.00  0.00    -0.223 NA
ATOM     16  C   UNL     1      -7.163  -8.069   8.312  0.00  0.00    +0.216 A 
ATOM     19  C   UNL     1      -7.931  -8.464   6.183  0.00  0.00    +0.076 A 
ATOM     21  C   UNL     1      -8.589  -6.548   7.346  0.00  0.00    +0.116 A 
ATOM     22  C   UNL     1      -8.668  -7.296   6.189  0.00  0.00    +0.048 A 
ATOM     33  H   UNL     1      -6.437  -7.879  10.222  0.00  0.00    +0.149 HD
ENDROOT
BRANCH   5  12
ATOM      2  O   UNL     1      -3.533  -9.080  10.394  0.00  0.00    -0.370 OA
ATOM      3  O   UNL     1      -5.271 -11.640  10.797  0.00  0.00    -0.370 OA
ATOM     10  C   UNL     1      -5.569 -10.233  10.825  0.00  0.00    +0.171 C 
ATOM     11  C   UNL     1      -4.382  -9.536  11.460  0.00  0.00    +0.171 C 
ATOM     12  C   UNL     1      -5.615  -9.679   9.421  0.00  0.00    +0.130 C 
ATOM     13  C   UNL     1      -3.695 -10.625  12.252  0.00  0.00    +0.130 C 
ATOM     14  C   UNL     1      -4.156  -9.374   9.134  0.00  0.00    +0.185 C 
ATOM     15  C   UNL     1      -4.005 -11.865  11.433  0.00  0.00    +0.185 C 
BRANCH  13   6
ATOM      4  O   UNL     1      -2.216 -10.654  14.712  0.00  0.00    -0.270 OA
ATOM      6  N   UNL     1      -4.240 -10.727  13.583  0.00  0.00    -0.303 N 
ATOM     17  C   UNL     1      -3.442 -10.732  14.718  0.00  0.00    +0.251 C 
ATOM     34  H   UNL     1      -5.244 -10.846  13.685  0.00  0.00    +0.149 HD
BRANCH  17  18
ATOM      1  S   UNL     1      -5.825 -10.643  16.007  0.00  0.00    -0.092 S 
ATOM     18  C   UNL     1      -4.155 -10.870  16.013  0.00  0.00    +0.074 A 
ATOM     20  C   UNL     1      -3.612 -11.159  17.206  0.00  0.00    +0.021 A 
ATOM     24  C   UNL     1      -4.624 -11.203  18.208  0.00  0.00    +0.008 A 
ATOM     25  C   UNL     1      -5.874 -10.941  17.693  0.00  0.00    +0.046 A 
ENDBRANCH  17  18
ENDBRANCH  13   6
ENDBRANCH   5  12
BRANCH  19  23
ATOM     23  C   UNL     1      -7.929  -9.337   5.034  0.00  0.00    +0.001 A 
ATOM     26  C   UNL     1      -6.942 -10.316   4.898  0.00  0.00    +0.012 A 
ATOM     27  C   UNL     1      -8.913  -9.204   4.052  0.00  0.00    +0.012 A 
ATOM     28  C   UNL     1      -7.924 -11.023   2.807  0.00  0.00    +0.029 A 
ATOM     29  C   UNL     1      -6.939 -11.158   3.787  0.00  0.00    +0.024 A 
ATOM     30  C   UNL     1      -8.911 -10.047   2.940  0.00  0.00    +0.024 A 
BRANCH  28   9
ATOM      9  N   UNL     1      -7.922 -11.876   1.684  0.00  0.00    -0.336 N 
ATOM     31  C   UNL     1      -7.630 -13.287   1.835  0.00  0.00    +0.129 C 
ATOM     32  C   UNL     1      -8.198 -11.349   0.362  0.00  0.00    +0.129 C 
ENDBRANCH  28   9
ENDBRANCH  19  23
TORSDOF 5
ENDMDL
