MODEL 1
REMARK VINA RESULT:      -6.6      0.000      0.000
REMARK  Name = 44716236
REMARK  8 active torsions:
REMARK  status: ('A' for Active; 'I' for Inactive)
REMARK    1  A    between atoms: S_1  and  C_22
REMARK    2  A    between atoms: S_1  and  C_26
REMARK    3  A    between atoms: N_5  and  C_16
REMARK    4  A    between atoms: N_6  and  C_19
REMARK    5  A    between atoms: C_10  and  C_16
REMARK    6  A    between atoms: C_11  and  C_17
REMARK    7  A    between atoms: C_19  and  C_21
REMARK    8  A    between atoms: C_20  and  C_22
REMARK                            x       y       z     vdW  Elec       q    Type
REMARK                         _______ _______ _______ _____ _____    ______ ____
ROOT
ATOM      4  N   UNL     1      -5.652 -11.858  15.464  0.00  0.00    -0.297 NA
ATOM      9  C   UNL     1      -4.873 -10.397  17.472  0.00  0.00    +0.005 C 
ATOM     10  C   UNL     1      -5.885 -10.420  15.165  0.00  0.00    +0.078 C 
ATOM     11  C   UNL     1      -5.833 -11.511  17.933  0.00  0.00    +0.092 C 
ATOM     12  C   UNL     1      -5.575  -9.543  16.397  0.00  0.00    +0.025 C 
ATOM     13  C   UNL     1      -3.677 -11.093  16.796  0.00  0.00    +0.020 C 
ATOM     14  C   UNL     1      -6.377 -12.252  16.697  0.00  0.00    +0.097 C 
ATOM     15  C   UNL     1      -4.198 -12.045  15.702  0.00  0.00    +0.085 C 
ENDROOT
BRANCH  11  17
ATOM      2  O   UNL     1      -6.747 -10.540  19.913  0.00  0.00    -0.275 OA
ATOM      6  N   UNL     1      -8.172 -11.043  18.142  0.00  0.00    -0.308 N 
ATOM     17  C   UNL     1      -6.945 -10.970  18.780  0.00  0.00    +0.218 C 
ATOM     32  H   UNL     1      -8.220 -11.409  17.195  0.00  0.00    +0.149 HD
BRANCH   6  19
ATOM     19  C   UNL     1      -9.407 -10.607  18.751  0.00  0.00    +0.178 C 
BRANCH  19  21
ATOM      3  O   UNL     1      -9.188  -8.608  17.385  0.00  0.00    -0.466 OA
ATOM     21  C   UNL     1     -10.039  -9.474  17.994  0.00  0.00    +0.122 A 
ATOM     23  C   UNL     1     -11.345  -9.106  17.772  0.00  0.00    +0.046 A 
ATOM     24  C   UNL     1     -11.293  -7.937  16.975  0.00  0.00    +0.041 A 
ATOM     25  C   UNL     1      -9.959  -7.675  16.767  0.00  0.00    +0.195 A 
ENDBRANCH  19  21
ENDBRANCH   6  19
ENDBRANCH  11  17
BRANCH  10  16
ATOM     16  C   UNL     1      -7.290 -10.158  14.620  0.00  0.00    +0.164 C 
BRANCH  16   5
ATOM      5  N   UNL     1      -7.262  -9.847  13.150  0.00  0.00    -0.250 N 
ATOM      7  N   UNL     1      -8.285 -10.197  12.354  0.00  0.00    -0.065 NA
ATOM      8  N   UNL     1      -7.982  -9.802  11.123  0.00  0.00    -0.134 NA
ATOM     18  C   UNL     1      -6.277  -9.218  12.452  0.00  0.00    +0.134 A 
ATOM     20  C   UNL     1      -6.754  -9.201  11.166  0.00  0.00    +0.093 A 
BRANCH  20  22
ATOM     22  C   UNL     1      -6.132  -8.652   9.954  0.00  0.00    +0.133 C 
BRANCH  22   1
ATOM      1  S   UNL     1      -5.178  -9.893   9.010  0.00  0.00    -0.119 S 
BRANCH   1  26
ATOM     26  C   UNL     1      -3.892 -10.302  10.182  0.00  0.00    +0.008 A 
ATOM     27  C   UNL     1      -2.881  -9.381  10.458  0.00  0.00    +0.015 A 
ATOM     28  C   UNL     1      -3.901 -11.541  10.822  0.00  0.00    +0.015 A 
ATOM     29  C   UNL     1      -1.878  -9.701  11.373  0.00  0.00    +0.001 A 
ATOM     30  C   UNL     1      -2.897 -11.860  11.737  0.00  0.00    +0.001 A 
ATOM     31  C   UNL     1      -1.886 -10.941  12.012  0.00  0.00    +0.000 A 
ENDBRANCH   1  26
ENDBRANCH  22   1
ENDBRANCH  20  22
ENDBRANCH  16   5
ENDBRANCH  10  16
TORSDOF 8
ENDMDL
MODEL 2
REMARK VINA RESULT:      -6.6     27.806     29.435
REMARK  Name = 44716236
REMARK  8 active torsions:
REMARK  status: ('A' for Active; 'I' for Inactive)
REMARK    1  A    between atoms: S_1  and  C_22
REMARK    2  A    between atoms: S_1  and  C_26
REMARK    3  A    between atoms: N_5  and  C_16
REMARK    4  A    between atoms: N_6  and  C_19
REMARK    5  A    between atoms: C_10  and  C_16
REMARK    6  A    between atoms: C_11  and  C_17
REMARK    7  A    between atoms: C_19  and  C_21
REMARK    8  A    between atoms: C_20  and  C_22
REMARK                            x       y       z     vdW  Elec       q    Type
REMARK                         _______ _______ _______ _____ _____    ______ ____
ROOT
ATOM      4  N   UNL     1      14.251   6.990  18.981  0.00  0.00    -0.297 NA
ATOM      9  C   UNL     1      14.156   8.410  21.160  0.00  0.00    +0.005 C 
ATOM     10  C   UNL     1      14.333   8.437  18.648  0.00  0.00    +0.078 C 
ATOM     11  C   UNL     1      12.983   7.413  21.093  0.00  0.00    +0.092 C 
ATOM     12  C   UNL     1      14.125   9.307  19.906  0.00  0.00    +0.025 C 
ATOM     13  C   UNL     1      15.450   7.578  21.097  0.00  0.00    +0.020 C 
ATOM     14  C   UNL     1      13.001   6.703  19.727  0.00  0.00    +0.097 C 
ATOM     15  C   UNL     1      15.400   6.660  19.861  0.00  0.00    +0.085 C 
ENDROOT
BRANCH  11  17
ATOM      2  O   UNL     1      10.735   8.005  20.549  0.00  0.00    -0.275 OA
ATOM      6  N   UNL     1      11.661   8.799  22.531  0.00  0.00    -0.308 N 
ATOM     17  C   UNL     1      11.667   8.087  21.343  0.00  0.00    +0.218 C 
ATOM     32  H   UNL     1      12.488   8.790  23.121  0.00  0.00    +0.149 HD
BRANCH   6  19
ATOM     19  C   UNL     1      10.521   9.557  22.993  0.00  0.00    +0.178 C 
BRANCH  19  21
ATOM      3  O   UNL     1      10.794  11.085  24.865  0.00  0.00    -0.466 OA
ATOM     21  C   UNL     1      10.918  10.905  23.523  0.00  0.00    +0.122 A 
ATOM     23  C   UNL     1      11.402  12.044  22.925  0.00  0.00    +0.046 A 
ATOM     24  C   UNL     1      11.586  12.986  23.965  0.00  0.00    +0.041 A 
ATOM     25  C   UNL     1      11.202  12.354  25.125  0.00  0.00    +0.195 A 
ENDBRANCH  19  21
ENDBRANCH   6  19
ENDBRANCH  11  17
BRANCH  10  16
ATOM     16  C   UNL     1      13.375   8.831  17.520  0.00  0.00    +0.164 C 
BRANCH  16   5
ATOM      5  N   UNL     1      14.090   9.568  16.423  0.00  0.00    -0.250 N 
ATOM      7  N   UNL     1      14.373   8.960  15.259  0.00  0.00    -0.065 NA
ATOM      8  N   UNL     1      15.003   9.845  14.495  0.00  0.00    -0.134 NA
ATOM     18  C   UNL     1      14.529  10.856  16.435  0.00  0.00    +0.134 A 
ATOM     20  C   UNL     1      15.107  11.012  15.201  0.00  0.00    +0.093 A 
BRANCH  20  22
ATOM     22  C   UNL     1      15.761  12.194  14.626  0.00  0.00    +0.133 C 
BRANCH  22   1
ATOM      1  S   UNL     1      17.339  12.615  15.448  0.00  0.00    -0.119 S 
BRANCH   1  26
ATOM     26  C   UNL     1      18.516  12.137  14.191  0.00  0.00    +0.008 A 
ATOM     27  C   UNL     1      18.370  12.601  12.884  0.00  0.00    +0.015 A 
ATOM     28  C   UNL     1      19.582  11.299  14.519  0.00  0.00    +0.015 A 
ATOM     29  C   UNL     1      19.290  12.227  11.905  0.00  0.00    +0.001 A 
ATOM     30  C   UNL     1      20.502  10.925  13.539  0.00  0.00    +0.001 A 
ATOM     31  C   UNL     1      20.355  11.388  12.231  0.00  0.00    +0.000 A 
ENDBRANCH   1  26
ENDBRANCH  22   1
ENDBRANCH  20  22
ENDBRANCH  16   5
ENDBRANCH  10  16
TORSDOF 8
ENDMDL
MODEL 3
REMARK VINA RESULT:      -6.5     28.267     30.077
REMARK  Name = 44716236
REMARK  8 active torsions:
REMARK  status: ('A' for Active; 'I' for Inactive)
REMARK    1  A    between atoms: S_1  and  C_22
REMARK    2  A    between atoms: S_1  and  C_26
REMARK    3  A    between atoms: N_5  and  C_16
REMARK    4  A    between atoms: N_6  and  C_19
REMARK    5  A    between atoms: C_10  and  C_16
REMARK    6  A    between atoms: C_11  and  C_17
REMARK    7  A    between atoms: C_19  and  C_21
REMARK    8  A    between atoms: C_20  and  C_22
REMARK                            x       y       z     vdW  Elec       q    Type
REMARK                         _______ _______ _______ _____ _____    ______ ____
ROOT
ATOM      4  N   UNL     1      14.920   8.384  18.791  0.00  0.00    -0.297 NA
ATOM      9  C   UNL     1      12.834   7.439  20.026  0.00  0.00    +0.005 C 
ATOM     10  C   UNL     1      15.337   7.341  19.765  0.00  0.00    +0.078 C 
ATOM     11  C   UNL     1      12.875   8.977  20.100  0.00  0.00    +0.092 C 
ATOM     12  C   UNL     1      14.139   6.872  20.620  0.00  0.00    +0.025 C 
ATOM     13  C   UNL     1      12.809   7.066  18.533  0.00  0.00    +0.020 C 
ATOM     14  C   UNL     1      14.195   9.477  19.485  0.00  0.00    +0.097 C 
ATOM     15  C   UNL     1      13.988   7.755  17.821  0.00  0.00    +0.085 C 
ENDROOT
BRANCH  11  17
ATOM      2  O   UNL     1      13.666   9.727  22.224  0.00  0.00    -0.275 OA
ATOM      6  N   UNL     1      11.371   9.570  21.867  0.00  0.00    -0.308 N 
ATOM     17  C   UNL     1      12.704   9.471  21.506  0.00  0.00    +0.218 C 
ATOM     32  H   UNL     1      10.652   9.341  21.186  0.00  0.00    +0.149 HD
BRANCH   6  19
ATOM     19  C   UNL     1      10.937  10.000  23.176  0.00  0.00    +0.178 C 
BRANCH  19  21
ATOM      3  O   UNL     1      10.369  11.992  24.449  0.00  0.00    -0.466 OA
ATOM     21  C   UNL     1      10.771  11.491  23.252  0.00  0.00    +0.122 A 
ATOM     23  C   UNL     1      10.946  12.503  22.338  0.00  0.00    +0.046 A 
ATOM     24  C   UNL     1      10.629  13.704  23.017  0.00  0.00    +0.041 A 
ATOM     25  C   UNL     1      10.285  13.340  24.297  0.00  0.00    +0.195 A 
ENDBRANCH  19  21
ENDBRANCH   6  19
ENDBRANCH  11  17
BRANCH  10  16
ATOM     16  C   UNL     1      16.514   7.791  20.634  0.00  0.00    +0.164 C 
BRANCH  16   5
ATOM      5  N   UNL     1      17.716   6.912  20.433  0.00  0.00    -0.250 N 
ATOM      7  N   UNL     1      17.652   5.833  19.637  0.00  0.00    -0.065 NA
ATOM      8  N   UNL     1      18.848   5.256  19.656  0.00  0.00    -0.134 NA
ATOM     18  C   UNL     1      18.952   7.057  20.983  0.00  0.00    +0.134 A 
ATOM     20  C   UNL     1      19.656   5.993  20.477  0.00  0.00    +0.093 A 
BRANCH  20  22
ATOM     22  C   UNL     1      21.055   5.612  20.711  0.00  0.00    +0.133 C 
BRANCH  22   1
ATOM      1  S   UNL     1      21.247   3.878  21.257  0.00  0.00    -0.119 S 
BRANCH   1  26
ATOM     26  C   UNL     1      22.956   3.573  20.834  0.00  0.00    +0.008 A 
ATOM     27  C   UNL     1      23.483   2.286  20.941  0.00  0.00    +0.015 A 
ATOM     28  C   UNL     1      23.763   4.623  20.396  0.00  0.00    +0.015 A 
ATOM     29  C   UNL     1      24.817   2.049  20.611  0.00  0.00    +0.001 A 
ATOM     30  C   UNL     1      25.098   4.385  20.066  0.00  0.00    +0.001 A 
ATOM     31  C   UNL     1      25.625   3.099  20.174  0.00  0.00    +0.000 A 
ENDBRANCH   1  26
ENDBRANCH  22   1
ENDBRANCH  20  22
ENDBRANCH  16   5
ENDBRANCH  10  16
TORSDOF 8
ENDMDL
MODEL 4
REMARK VINA RESULT:      -6.4     28.061     29.715
REMARK  Name = 44716236
REMARK  8 active torsions:
REMARK  status: ('A' for Active; 'I' for Inactive)
REMARK    1  A    between atoms: S_1  and  C_22
REMARK    2  A    between atoms: S_1  and  C_26
REMARK    3  A    between atoms: N_5  and  C_16
REMARK    4  A    between atoms: N_6  and  C_19
REMARK    5  A    between atoms: C_10  and  C_16
REMARK    6  A    between atoms: C_11  and  C_17
REMARK    7  A    between atoms: C_19  and  C_21
REMARK    8  A    between atoms: C_20  and  C_22
REMARK                            x       y       z     vdW  Elec       q    Type
REMARK                         _______ _______ _______ _____ _____    ______ ____
ROOT
ATOM      4  N   UNL     1      12.496   7.139  19.765  0.00  0.00    -0.297 NA
ATOM      9  C   UNL     1      12.019   8.317  22.036  0.00  0.00    +0.005 C 
ATOM     10  C   UNL     1      13.768   7.342  20.508  0.00  0.00    +0.078 C 
ATOM     11  C   UNL     1      11.388   9.092  20.862  0.00  0.00    +0.092 C 
ATOM     12  C   UNL     1      13.534   8.175  21.787  0.00  0.00    +0.025 C 
ATOM     13  C   UNL     1      11.415   6.901  22.009  0.00  0.00    +0.020 C 
ATOM     14  C   UNL     1      11.819   8.439  19.536  0.00  0.00    +0.097 C 
ATOM     15  C   UNL     1      11.608   6.296  20.605  0.00  0.00    +0.085 C 
ENDROOT
BRANCH  11  17
ATOM      2  O   UNL     1      12.615  11.018  20.170  0.00  0.00    -0.275 OA
ATOM      6  N   UNL     1      11.017  11.243  21.846  0.00  0.00    -0.308 N 
ATOM     17  C   UNL     1      11.749  10.547  20.900  0.00  0.00    +0.218 C 
ATOM     32  H   UNL     1      10.314  10.753  22.392  0.00  0.00    +0.149 HD
BRANCH   6  19
ATOM     19  C   UNL     1      11.190  12.656  22.097  0.00  0.00    +0.178 C 
BRANCH  19  21
ATOM      3  O   UNL     1      12.101  12.566  24.349  0.00  0.00    -0.466 OA
ATOM     21  C   UNL     1      11.079  12.986  23.558  0.00  0.00    +0.122 A 
ATOM     23  C   UNL     1      10.131  13.647  24.302  0.00  0.00    +0.046 A 
ATOM     24  C   UNL     1      10.600  13.633  25.637  0.00  0.00    +0.041 A 
ATOM     25  C   UNL     1      11.801  12.964  25.613  0.00  0.00    +0.195 A 
ENDBRANCH  19  21
ENDBRANCH   6  19
ENDBRANCH  11  17
BRANCH  10  16
ATOM     16  C   UNL     1      14.866   7.947  19.630  0.00  0.00    +0.164 C 
BRANCH  16   5
ATOM      5  N   UNL     1      16.042   7.019  19.501  0.00  0.00    -0.250 N 
ATOM      7  N   UNL     1      16.092   6.106  18.518  0.00  0.00    -0.065 NA
ATOM      8  N   UNL     1      17.231   5.436  18.658  0.00  0.00    -0.134 NA
ATOM     18  C   UNL     1      17.145   6.961  20.296  0.00  0.00    +0.134 A 
ATOM     20  C   UNL     1      17.887   5.948  19.743  0.00  0.00    +0.093 A 
BRANCH  20  22
ATOM     22  C   UNL     1      19.189   5.416  20.165  0.00  0.00    +0.133 C 
BRANCH  22   1
ATOM      1  S   UNL     1      20.321   6.703  20.801  0.00  0.00    -0.119 S 
BRANCH   1  26
ATOM     26  C   UNL     1      21.682   5.702  21.388  0.00  0.00    +0.008 A 
ATOM     27  C   UNL     1      22.565   5.123  20.476  0.00  0.00    +0.015 A 
ATOM     28  C   UNL     1      21.860   5.502  22.756  0.00  0.00    +0.015 A 
ATOM     29  C   UNL     1      23.626   4.342  20.935  0.00  0.00    +0.001 A 
ATOM     30  C   UNL     1      22.921   4.721  23.214  0.00  0.00    +0.001 A 
ATOM     31  C   UNL     1      23.804   4.141  22.303  0.00  0.00    +0.000 A 
ENDBRANCH   1  26
ENDBRANCH  22   1
ENDBRANCH  20  22
ENDBRANCH  16   5
ENDBRANCH  10  16
TORSDOF 8
ENDMDL
MODEL 5
REMARK VINA RESULT:      -6.2      4.020      7.797
REMARK  Name = 44716236
REMARK  8 active torsions:
REMARK  status: ('A' for Active; 'I' for Inactive)
REMARK    1  A    between atoms: S_1  and  C_22
REMARK    2  A    between atoms: S_1  and  C_26
REMARK    3  A    between atoms: N_5  and  C_16
REMARK    4  A    between atoms: N_6  and  C_19
REMARK    5  A    between atoms: C_10  and  C_16
REMARK    6  A    between atoms: C_11  and  C_17
REMARK    7  A    between atoms: C_19  and  C_21
REMARK    8  A    between atoms: C_20  and  C_22
REMARK                            x       y       z     vdW  Elec       q    Type
REMARK                         _______ _______ _______ _____ _____    ______ ____
ROOT
ATOM      4  N   UNL     1      -6.997 -11.141  18.505  0.00  0.00    -0.297 NA
ATOM      9  C   UNL     1      -6.014 -12.559  16.557  0.00  0.00    +0.005 C 
ATOM     10  C   UNL     1      -7.573 -10.692  17.210  0.00  0.00    +0.078 C 
ATOM     11  C   UNL     1      -4.895 -11.967  17.434  0.00  0.00    +0.092 C 
ATOM     12  C   UNL     1      -6.895 -11.411  16.024  0.00  0.00    +0.025 C 
ATOM     13  C   UNL     1      -6.894 -13.421  17.480  0.00  0.00    +0.020 C 
ATOM     14  C   UNL     1      -5.518 -11.023  18.479  0.00  0.00    +0.097 C 
ATOM     15  C   UNL     1      -7.343 -12.573  18.685  0.00  0.00    +0.085 C 
ENDROOT
BRANCH  11  17
ATOM      2  O   UNL     1      -3.666 -10.055  16.703  0.00  0.00    -0.275 OA
ATOM      6  N   UNL     1      -3.194 -12.128  15.756  0.00  0.00    -0.308 N 
ATOM     17  C   UNL     1      -3.857 -11.264  16.611  0.00  0.00    +0.218 C 
ATOM     32  H   UNL     1      -3.425 -13.117  15.769  0.00  0.00    +0.149 HD
BRANCH   6  19
ATOM     19  C   UNL     1      -2.162 -11.698  14.840  0.00  0.00    +0.178 C 
BRANCH  19  21
ATOM      3  O   UNL     1      -1.861 -10.937  12.551  0.00  0.00    -0.466 OA
ATOM     21  C   UNL     1      -2.736 -11.135  13.571  0.00  0.00    +0.122 A 
ATOM     23  C   UNL     1      -4.006 -10.761  13.199  0.00  0.00    +0.046 A 
ATOM     24  C   UNL     1      -3.905 -10.303  11.864  0.00  0.00    +0.041 A 
ATOM     25  C   UNL     1      -2.581 -10.430  11.516  0.00  0.00    +0.195 A 
ENDBRANCH  19  21
ENDBRANCH   6  19
ENDBRANCH  11  17
BRANCH  10  16
ATOM     16  C   UNL     1      -7.533  -9.170  17.049  0.00  0.00    +0.164 C 
BRANCH  16   5
ATOM      5  N   UNL     1      -8.869  -8.625  16.631  0.00  0.00    -0.250 N 
ATOM      7  N   UNL     1      -9.691  -8.057  17.529  0.00  0.00    -0.065 NA
ATOM      8  N   UNL     1     -10.785  -7.677  16.879  0.00  0.00    -0.134 NA
ATOM     18  C   UNL     1      -9.413  -8.624  15.383  0.00  0.00    +0.134 A 
ATOM     20  C   UNL     1     -10.631  -8.018  15.563  0.00  0.00    +0.093 A 
BRANCH  20  22
ATOM     22  C   UNL     1     -11.678  -7.731  14.575  0.00  0.00    +0.133 C 
BRANCH  22   1
ATOM      1  S   UNL     1     -13.097  -6.814  15.273  0.00  0.00    -0.119 S 
BRANCH   1  26
ATOM     26  C   UNL     1     -13.300  -5.520  14.057  0.00  0.00    +0.008 A 
ATOM     27  C   UNL     1     -12.180  -4.922  13.480  0.00  0.00    +0.015 A 
ATOM     28  C   UNL     1     -14.580  -5.109  13.684  0.00  0.00    +0.015 A 
ATOM     29  C   UNL     1     -12.340  -3.912  12.531  0.00  0.00    +0.001 A 
ATOM     30  C   UNL     1     -14.739  -4.099  12.735  0.00  0.00    +0.001 A 
ATOM     31  C   UNL     1     -13.619  -3.500  12.159  0.00  0.00    +0.000 A 
ENDBRANCH   1  26
ENDBRANCH  22   1
ENDBRANCH  20  22
ENDBRANCH  16   5
ENDBRANCH  10  16
TORSDOF 8
ENDMDL
MODEL 6
REMARK VINA RESULT:      -6.2      2.938      6.912
REMARK  Name = 44716236
REMARK  8 active torsions:
REMARK  status: ('A' for Active; 'I' for Inactive)
REMARK    1  A    between atoms: S_1  and  C_22
REMARK    2  A    between atoms: S_1  and  C_26
REMARK    3  A    between atoms: N_5  and  C_16
REMARK    4  A    between atoms: N_6  and  C_19
REMARK    5  A    between atoms: C_10  and  C_16
REMARK    6  A    between atoms: C_11  and  C_17
REMARK    7  A    between atoms: C_19  and  C_21
REMARK    8  A    between atoms: C_20  and  C_22
REMARK                            x       y       z     vdW  Elec       q    Type
REMARK                         _______ _______ _______ _____ _____    ______ ____
ROOT
ATOM      4  N   UNL     1      -6.483 -10.606  16.818  0.00  0.00    -0.297 NA
ATOM      9  C   UNL     1      -4.310 -11.564  17.883  0.00  0.00    +0.005 C 
ATOM     10  C   UNL     1      -6.389 -12.066  16.552  0.00  0.00    +0.078 C 
ATOM     11  C   UNL     1      -4.004 -10.343  16.994  0.00  0.00    +0.092 C 
ATOM     12  C   UNL     1      -5.036 -12.631  17.039  0.00  0.00    +0.025 C 
ATOM     13  C   UNL     1      -5.295 -11.088  18.967  0.00  0.00    +0.020 C 
ATOM     14  C   UNL     1      -5.293  -9.906  16.275  0.00  0.00    +0.097 C 
ATOM     15  C   UNL     1      -6.503 -10.412  18.290  0.00  0.00    +0.085 C 
ENDROOT
BRANCH  11  17
ATOM      2  O   UNL     1      -1.762 -10.892  16.384  0.00  0.00    -0.275 OA
ATOM      6  N   UNL     1      -3.333 -10.541  14.703  0.00  0.00    -0.308 N 
ATOM     17  C   UNL     1      -2.903 -10.631  16.017  0.00  0.00    +0.218 C 
ATOM     32  H   UNL     1      -4.308 -10.328  14.512  0.00  0.00    +0.149 HD
BRANCH   6  19
ATOM     19  C   UNL     1      -2.462 -10.751  13.570  0.00  0.00    +0.178 C 
BRANCH  19  21
ATOM      3  O   UNL     1      -4.407 -10.036  12.298  0.00  0.00    -0.466 OA
ATOM     21  C   UNL     1      -3.062 -10.231  12.295  0.00  0.00    +0.122 A 
ATOM     23  C   UNL     1      -2.527  -9.893  11.075  0.00  0.00    +0.046 A 
ATOM     24  C   UNL     1      -3.613  -9.463  10.275  0.00  0.00    +0.041 A 
ATOM     25  C   UNL     1      -4.734  -9.569  11.065  0.00  0.00    +0.195 A 
ENDBRANCH  19  21
ENDBRANCH   6  19
ENDBRANCH  11  17
BRANCH  10  16
ATOM     16  C   UNL     1      -6.652 -12.410  15.084  0.00  0.00    +0.164 C 
BRANCH  16   5
ATOM      5  N   UNL     1      -7.971 -11.861  14.618  0.00  0.00    -0.250 N 
ATOM      7  N   UNL     1      -9.126 -12.349  15.098  0.00  0.00    -0.065 NA
ATOM      8  N   UNL     1     -10.112 -11.683  14.507  0.00  0.00    -0.134 NA
ATOM     18  C   UNL     1      -8.184 -10.871  13.709  0.00  0.00    +0.134 A 
ATOM     20  C   UNL     1      -9.551 -10.774  13.653  0.00  0.00    +0.093 A 
BRANCH  20  22
ATOM     22  C   UNL     1     -10.384  -9.875  12.843  0.00  0.00    +0.133 C 
BRANCH  22   1
ATOM      1  S   UNL     1     -12.057  -9.623  13.537  0.00  0.00    -0.119 S 
BRANCH   1  26
ATOM     26  C   UNL     1     -11.781  -8.204  14.588  0.00  0.00    +0.008 A 
ATOM     27  C   UNL     1     -11.227  -8.373  15.858  0.00  0.00    +0.015 A 
ATOM     28  C   UNL     1     -12.119  -6.928  14.139  0.00  0.00    +0.015 A 
ATOM     29  C   UNL     1     -11.012  -7.266  16.677  0.00  0.00    +0.001 A 
ATOM     30  C   UNL     1     -11.904  -5.820  14.959  0.00  0.00    +0.001 A 
ATOM     31  C   UNL     1     -11.351  -5.989  16.229  0.00  0.00    +0.000 A 
ENDBRANCH   1  26
ENDBRANCH  22   1
ENDBRANCH  20  22
ENDBRANCH  16   5
ENDBRANCH  10  16
TORSDOF 8
ENDMDL
MODEL 7
REMARK VINA RESULT:      -6.1     27.459     29.813
REMARK  Name = 44716236
REMARK  8 active torsions:
REMARK  status: ('A' for Active; 'I' for Inactive)
REMARK    1  A    between atoms: S_1  and  C_22
REMARK    2  A    between atoms: S_1  and  C_26
REMARK    3  A    between atoms: N_5  and  C_16
REMARK    4  A    between atoms: N_6  and  C_19
REMARK    5  A    between atoms: C_10  and  C_16
REMARK    6  A    between atoms: C_11  and  C_17
REMARK    7  A    between atoms: C_19  and  C_21
REMARK    8  A    between atoms: C_20  and  C_22
REMARK                            x       y       z     vdW  Elec       q    Type
REMARK                         _______ _______ _______ _____ _____    ______ ____
ROOT
ATOM      4  N   UNL     1      14.673  11.865  16.680  0.00  0.00    -0.297 NA
ATOM      9  C   UNL     1      15.843  12.768  14.537  0.00  0.00    +0.005 C 
ATOM     10  C   UNL     1      14.554  10.872  15.580  0.00  0.00    +0.078 C 
ATOM     11  C   UNL     1      14.839  13.794  15.098  0.00  0.00    +0.092 C 
ATOM     12  C   UNL     1      15.104  11.445  14.255  0.00  0.00    +0.025 C 
ATOM     13  C   UNL     1      16.867  12.492  15.654  0.00  0.00    +0.020 C 
ATOM     14  C   UNL     1      14.072  13.159  16.273  0.00  0.00    +0.097 C 
ATOM     15  C   UNL     1      16.118  12.088  16.938  0.00  0.00    +0.085 C 
ENDROOT
BRANCH  11  17
ATOM      2  O   UNL     1      14.304  14.649  12.935  0.00  0.00    -0.275 OA
ATOM      6  N   UNL     1      12.587  14.311  14.469  0.00  0.00    -0.308 N 
ATOM     17  C   UNL     1      13.903  14.292  14.038  0.00  0.00    +0.218 C 
ATOM     32  H   UNL     1      12.364  13.981  15.404  0.00  0.00    +0.149 HD
BRANCH   6  19
ATOM     19  C   UNL     1      11.492  14.769  13.645  0.00  0.00    +0.178 C 
BRANCH  19  21
ATOM      3  O   UNL     1       9.700  13.937  12.229  0.00  0.00    -0.466 OA
ATOM     21  C   UNL     1      10.860  13.646  12.874  0.00  0.00    +0.122 A 
ATOM     23  C   UNL     1      11.212  12.332  12.669  0.00  0.00    +0.046 A 
ATOM     24  C   UNL     1      10.203  11.780  11.844  0.00  0.00    +0.041 A 
ATOM     25  C   UNL     1       9.307  12.795  11.604  0.00  0.00    +0.195 A 
ENDBRANCH  19  21
ENDBRANCH   6  19
ENDBRANCH  11  17
BRANCH  10  16
ATOM     16  C   UNL     1      13.125  10.346  15.421  0.00  0.00    +0.164 C 
BRANCH  16   5
ATOM      5  N   UNL     1      12.825   9.257  16.413  0.00  0.00    -0.250 N 
ATOM      7  N   UNL     1      11.639   8.628  16.405  0.00  0.00    -0.065 NA
ATOM      8  N   UNL     1      11.660   7.731  17.384  0.00  0.00    -0.134 NA
ATOM     18  C   UNL     1      13.638   8.781  17.396  0.00  0.00    +0.134 A 
ATOM     20  C   UNL     1      12.878   7.813  18.001  0.00  0.00    +0.093 A 
BRANCH  20  22
ATOM     22  C   UNL     1      13.217   6.944  19.136  0.00  0.00    +0.133 C 
BRANCH  22   1
ATOM      1  S   UNL     1      14.142   7.808  20.454  0.00  0.00    -0.119 S 
BRANCH   1  26
ATOM     26  C   UNL     1      15.766   7.089  20.261  0.00  0.00    +0.008 A 
ATOM     27  C   UNL     1      16.724   7.249  21.262  0.00  0.00    +0.015 A 
ATOM     28  C   UNL     1      16.076   6.367  19.108  0.00  0.00    +0.015 A 
ATOM     29  C   UNL     1      17.992   6.687  21.110  0.00  0.00    +0.001 A 
ATOM     30  C   UNL     1      17.344   5.805  18.957  0.00  0.00    +0.001 A 
ATOM     31  C   UNL     1      18.302   5.966  19.957  0.00  0.00    +0.000 A 
ENDBRANCH   1  26
ENDBRANCH  22   1
ENDBRANCH  20  22
ENDBRANCH  16   5
ENDBRANCH  10  16
TORSDOF 8
ENDMDL
MODEL 8
REMARK VINA RESULT:      -6.1     24.126     26.517
REMARK  Name = 44716236
REMARK  8 active torsions:
REMARK  status: ('A' for Active; 'I' for Inactive)
REMARK    1  A    between atoms: S_1  and  C_22
REMARK    2  A    between atoms: S_1  and  C_26
REMARK    3  A    between atoms: N_5  and  C_16
REMARK    4  A    between atoms: N_6  and  C_19
REMARK    5  A    between atoms: C_10  and  C_16
REMARK    6  A    between atoms: C_11  and  C_17
REMARK    7  A    between atoms: C_19  and  C_21
REMARK    8  A    between atoms: C_20  and  C_22
REMARK                            x       y       z     vdW  Elec       q    Type
REMARK                         _______ _______ _______ _____ _____    ______ ____
ROOT
ATOM      4  N   UNL     1       9.543   5.124   5.571  0.00  0.00    -0.297 NA
ATOM      9  C   UNL     1      10.169   7.177   7.041  0.00  0.00    +0.005 C 
ATOM     10  C   UNL     1      10.768   5.775   5.037  0.00  0.00    +0.078 C 
ATOM     11  C   UNL     1       8.698   7.245   6.587  0.00  0.00    +0.092 C 
ATOM     12  C   UNL     1      11.075   7.084   5.797  0.00  0.00    +0.025 C 
ATOM     13  C   UNL     1      10.331   5.863   7.827  0.00  0.00    +0.020 C 
ATOM     14  C   UNL     1       8.419   6.091   5.606  0.00  0.00    +0.097 C 
ATOM     15  C   UNL     1       9.826   4.692   6.963  0.00  0.00    +0.085 C 
ENDROOT
BRANCH  11  17
ATOM      2  O   UNL     1       8.776   9.627   6.455  0.00  0.00    -0.275 OA
ATOM      6  N   UNL     1       7.550   8.451   4.865  0.00  0.00    -0.308 N 
ATOM     17  C   UNL     1       8.366   8.574   5.977  0.00  0.00    +0.218 C 
ATOM     32  H   UNL     1       7.277   7.524   4.548  0.00  0.00    +0.149 HD
BRANCH   6  19
ATOM     19  C   UNL     1       7.067   9.583   4.109  0.00  0.00    +0.178 C 
BRANCH  19  21
ATOM      3  O   UNL     1       6.410   9.860   1.784  0.00  0.00    -0.466 OA
ATOM     21  C   UNL     1       7.381   9.456   2.645  0.00  0.00    +0.122 A 
ATOM     23  C   UNL     1       8.481   9.003   1.956  0.00  0.00    +0.046 A 
ATOM     24  C   UNL     1       8.165   9.136   0.582  0.00  0.00    +0.041 A 
ATOM     25  C   UNL     1       6.896   9.662   0.531  0.00  0.00    +0.195 A 
ENDBRANCH  19  21
ENDBRANCH   6  19
ENDBRANCH  11  17
BRANCH  10  16
ATOM     16  C   UNL     1      10.698   5.999   3.524  0.00  0.00    +0.164 C 
BRANCH  16   5
ATOM      5  N   UNL     1      11.561   5.019   2.781  0.00  0.00    -0.250 N 
ATOM      7  N   UNL     1      11.267   3.709   2.779  0.00  0.00    -0.065 NA
ATOM      8  N   UNL     1      12.195   3.096   2.054  0.00  0.00    -0.134 NA
ATOM     18  C   UNL     1      12.683   5.281   2.057  0.00  0.00    +0.134 A 
ATOM     20  C   UNL     1      13.071   4.046   1.604  0.00  0.00    +0.093 A 
BRANCH  20  22
ATOM     22  C   UNL     1      14.222   3.685   0.767  0.00  0.00    +0.133 C 
BRANCH  22   1
ATOM      1  S   UNL     1      14.284   4.608  -0.810  0.00  0.00    -0.119 S 
BRANCH   1  26
ATOM     26  C   UNL     1      12.794   4.025  -1.606  0.00  0.00    +0.008 A 
ATOM     27  C   UNL     1      11.775   4.924  -1.924  0.00  0.00    +0.015 A 
ATOM     28  C   UNL     1      12.650   2.672  -1.911  0.00  0.00    +0.015 A 
ATOM     29  C   UNL     1      10.613   4.469  -2.545  0.00  0.00    +0.001 A 
ATOM     30  C   UNL     1      11.487   2.217  -2.533  0.00  0.00    +0.001 A 
ATOM     31  C   UNL     1      10.468   3.115  -2.849  0.00  0.00    +0.000 A 
ENDBRANCH   1  26
ENDBRANCH  22   1
ENDBRANCH  20  22
ENDBRANCH  16   5
ENDBRANCH  10  16
TORSDOF 8
ENDMDL
MODEL 9
REMARK VINA RESULT:      -6.0      2.025      3.251
REMARK  Name = 44716236
REMARK  8 active torsions:
REMARK  status: ('A' for Active; 'I' for Inactive)
REMARK    1  A    between atoms: S_1  and  C_22
REMARK    2  A    between atoms: S_1  and  C_26
REMARK    3  A    between atoms: N_5  and  C_16
REMARK    4  A    between atoms: N_6  and  C_19
REMARK    5  A    between atoms: C_10  and  C_16
REMARK    6  A    between atoms: C_11  and  C_17
REMARK    7  A    between atoms: C_19  and  C_21
REMARK    8  A    between atoms: C_20  and  C_22
REMARK                            x       y       z     vdW  Elec       q    Type
REMARK                         _______ _______ _______ _____ _____    ______ ____
ROOT
ATOM      4  N   UNL     1      -5.367 -12.540  17.304  0.00  0.00    -0.297 NA
ATOM      9  C   UNL     1      -6.464 -10.866  18.968  0.00  0.00    +0.005 C 
ATOM     10  C   UNL     1      -5.370 -11.173  16.720  0.00  0.00    +0.078 C 
ATOM     11  C   UNL     1      -7.376 -12.083  18.719  0.00  0.00    +0.092 C 
ATOM     12  C   UNL     1      -6.151 -10.190  17.618  0.00  0.00    +0.025 C 
ATOM     13  C   UNL     1      -5.136 -11.412  19.526  0.00  0.00    +0.020 C 
ATOM     14  C   UNL     1      -6.751 -12.967  17.624  0.00  0.00    +0.097 C 
ATOM     15  C   UNL     1      -4.594 -12.493  18.571  0.00  0.00    +0.085 C 
ENDROOT
BRANCH  11  17
ATOM      2  O   UNL     1      -9.397 -12.214  17.456  0.00  0.00    -0.275 OA
ATOM      6  N   UNL     1      -9.220 -10.613  19.137  0.00  0.00    -0.308 N 
ATOM     17  C   UNL     1      -8.771 -11.667  18.359  0.00  0.00    +0.218 C 
ATOM     32  H   UNL     1      -8.619 -10.242  19.867  0.00  0.00    +0.149 HD
BRANCH   6  19
ATOM     19  C   UNL     1     -10.523 -10.011  18.975  0.00  0.00    +0.178 C 
BRANCH  19  21
ATOM      3  O   UNL     1     -11.741  -8.543  17.467  0.00  0.00    -0.466 OA
ATOM     21  C   UNL     1     -10.523  -8.947  17.914  0.00  0.00    +0.122 A 
ATOM     23  C   UNL     1      -9.519  -8.263  17.270  0.00  0.00    +0.046 A 
ATOM     24  C   UNL     1     -10.162  -7.382  16.367  0.00  0.00    +0.041 A 
ATOM     25  C   UNL     1     -11.512  -7.591  16.525  0.00  0.00    +0.195 A 
ENDBRANCH  19  21
ENDBRANCH   6  19
ENDBRANCH  11  17
BRANCH  10  16
ATOM     16  C   UNL     1      -5.883 -11.156  15.278  0.00  0.00    +0.164 C 
BRANCH  16   5
ATOM      5  N   UNL     1      -4.755 -11.039  14.293  0.00  0.00    -0.250 N 
ATOM      7  N   UNL     1      -3.504 -10.783  14.708  0.00  0.00    -0.065 NA
ATOM      8  N   UNL     1      -2.731 -10.732  13.629  0.00  0.00    -0.134 NA
ATOM     18  C   UNL     1      -4.817 -11.161  12.938  0.00  0.00    +0.134 A 
ATOM     20  C   UNL     1      -3.521 -10.961  12.536  0.00  0.00    +0.093 A 
BRANCH  20  22
ATOM     22  C   UNL     1      -2.960 -10.970  11.179  0.00  0.00    +0.133 C 
BRANCH  22   1
ATOM      1  S   UNL     1      -2.899  -9.310  10.415  0.00  0.00    -0.119 S 
BRANCH   1  26
ATOM     26  C   UNL     1      -4.450  -9.284   9.528  0.00  0.00    +0.008 A 
ATOM     27  C   UNL     1      -4.724 -10.263   8.571  0.00  0.00    +0.015 A 
ATOM     28  C   UNL     1      -5.387  -8.286   9.793  0.00  0.00    +0.015 A 
ATOM     29  C   UNL     1      -5.934 -10.241   7.880  0.00  0.00    +0.001 A 
ATOM     30  C   UNL     1      -6.599  -8.266   9.100  0.00  0.00    +0.001 A 
ATOM     31  C   UNL     1      -6.872  -9.243   8.143  0.00  0.00    +0.000 A 
ENDBRANCH   1  26
ENDBRANCH  22   1
ENDBRANCH  20  22
ENDBRANCH  16   5
ENDBRANCH  10  16
TORSDOF 8
ENDMDL
MODEL 10
REMARK VINA RESULT:      -6.0      2.005      3.706
REMARK  Name = 44716236
REMARK  8 active torsions:
REMARK  status: ('A' for Active; 'I' for Inactive)
REMARK    1  A    between atoms: S_1  and  C_22
REMARK    2  A    between atoms: S_1  and  C_26
REMARK    3  A    between atoms: N_5  and  C_16
REMARK    4  A    between atoms: N_6  and  C_19
REMARK    5  A    between atoms: C_10  and  C_16
REMARK    6  A    between atoms: C_11  and  C_17
REMARK    7  A    between atoms: C_19  and  C_21
REMARK    8  A    between atoms: C_20  and  C_22
REMARK                            x       y       z     vdW  Elec       q    Type
REMARK                         _______ _______ _______ _____ _____    ______ ____
ROOT
ATOM      4  N   UNL     1      -5.581 -11.920  15.562  0.00  0.00    -0.297 NA
ATOM      9  C   UNL     1      -4.784 -10.355  17.482  0.00  0.00    +0.005 C 
ATOM     10  C   UNL     1      -5.875 -10.504  15.217  0.00  0.00    +0.078 C 
ATOM     11  C   UNL     1      -5.687 -11.481  18.020  0.00  0.00    +0.092 C 
ATOM     12  C   UNL     1      -5.553  -9.568  16.402  0.00  0.00    +0.025 C 
ATOM     13  C   UNL     1      -3.589 -11.035  16.789  0.00  0.00    +0.020 C 
ATOM     14  C   UNL     1      -6.248 -12.289  16.835  0.00  0.00    +0.097 C 
ATOM     15  C   UNL     1      -4.114 -12.047  15.754  0.00  0.00    +0.085 C 
ENDROOT
BRANCH  11  17
ATOM      2  O   UNL     1      -6.562 -10.445  19.985  0.00  0.00    -0.275 OA
ATOM      6  N   UNL     1      -8.034 -11.107  18.308  0.00  0.00    -0.308 N 
ATOM     17  C   UNL     1      -6.787 -10.945  18.887  0.00  0.00    +0.218 C 
ATOM     32  H   UNL     1      -8.105 -11.526  17.385  0.00  0.00    +0.149 HD
BRANCH   6  19
ATOM     19  C   UNL     1      -9.262 -10.695  18.948  0.00  0.00    +0.178 C 
BRANCH  19  21
ATOM      3  O   UNL     1      -9.153  -8.730  17.520  0.00  0.00    -0.466 OA
ATOM     21  C   UNL     1      -9.955  -9.602  18.184  0.00  0.00    +0.122 A 
ATOM     23  C   UNL     1     -11.279  -9.278  18.001  0.00  0.00    +0.046 A 
ATOM     24  C   UNL     1     -11.291  -8.132  17.171  0.00  0.00    +0.041 A 
ATOM     25  C   UNL     1      -9.974  -7.838  16.906  0.00  0.00    +0.195 A 
ENDBRANCH  19  21
ENDBRANCH   6  19
ENDBRANCH  11  17
BRANCH  10  16
ATOM     16  C   UNL     1      -7.308 -10.311  14.713  0.00  0.00    +0.164 C 
BRANCH  16   5
ATOM      5  N   UNL     1      -7.340 -10.027  13.238  0.00  0.00    -0.250 N 
ATOM      7  N   UNL     1      -8.276 -10.584  12.452  0.00  0.00    -0.065 NA
ATOM      8  N   UNL     1      -8.054 -10.160  11.213  0.00  0.00    -0.134 NA
ATOM     18  C   UNL     1      -6.496  -9.231  12.526  0.00  0.00    +0.134 A 
ATOM     20  C   UNL     1      -6.967  -9.330  11.241  0.00  0.00    +0.093 A 
BRANCH  20  22
ATOM     22  C   UNL     1      -6.463  -8.693  10.018  0.00  0.00    +0.133 C 
BRANCH  22   1
ATOM      1  S   UNL     1      -7.527  -8.989   8.561  0.00  0.00    -0.119 S 
BRANCH   1  26
ATOM     26  C   UNL     1      -8.662  -7.613   8.682  0.00  0.00    +0.008 A 
ATOM     27  C   UNL     1      -8.247  -6.332   8.319  0.00  0.00    +0.015 A 
ATOM     28  C   UNL     1      -9.964  -7.822   9.138  0.00  0.00    +0.015 A 
ATOM     29  C   UNL     1      -9.132  -5.259   8.413  0.00  0.00    +0.001 A 
ATOM     30  C   UNL     1     -10.850  -6.748   9.232  0.00  0.00    +0.001 A 
ATOM     31  C   UNL     1     -10.434  -5.466   8.870  0.00  0.00    +0.000 A 
ENDBRANCH   1  26
ENDBRANCH  22   1
ENDBRANCH  20  22
ENDBRANCH  16   5
ENDBRANCH  10  16
TORSDOF 8
ENDMDL
