REMARK  Name = 11882024
REMARK  9 active torsions:
REMARK  status: ('A' for Active; 'I' for Inactive)
REMARK    1  A    between atoms: N_8  and  C_14
REMARK    2  A    between atoms: N_9  and  C_20
REMARK    3  A    between atoms: N_10  and  C_30
REMARK    4  A    between atoms: N_11  and  C_33
REMARK    5  A    between atoms: C_15  and  C_18
REMARK    6  A    between atoms: C_19  and  C_21
REMARK    7  A    between atoms: C_20  and  C_23
REMARK    8  A    between atoms: C_20  and  C_26
REMARK    9  A    between atoms: C_23  and  C_24
REMARK                            x       y       z     vdW  Elec       q    Type
REMARK                         _______ _______ _______ _____ _____    ______ ____
ROOT
ATOM      4  O   UNL     1      -5.142   1.123  -0.082  0.00  0.00    -0.268 OA
ATOM      7  N   UNL     1      -3.622  -0.364   0.812  0.00  0.00    -0.283 N 
ATOM     14  C   UNL     1      -1.756  -1.512   1.742  0.00  0.00    +0.094 C 
ATOM     15  C   UNL     1      -2.792   0.653   1.441  0.00  0.00    +0.164 C 
ATOM     16  C   UNL     1      -1.847  -0.115   2.364  0.00  0.00    +0.056 C 
ATOM     17  C   UNL     1      -3.129  -1.712   1.109  0.00  0.00    +0.131 C 
ATOM     19  C   UNL     1      -4.797  -0.041   0.128  0.00  0.00    +0.264 C 
ENDROOT
BRANCH  14   8
ATOM      5  O   UNL     1       0.940  -2.351   2.222  0.00  0.00    -0.252 OA
ATOM      8  N   UNL     1      -0.700  -1.613   0.768  0.00  0.00    -0.295 N 
ATOM     11  N   UNL     1       1.404  -2.033  -0.058  0.00  0.00    -0.267 N 
ATOM     22  C   UNL     1       0.599  -2.034   1.085  0.00  0.00    +0.304 C 
ATOM     43  H   UNL     1      -0.886  -1.303  -0.181  0.00  0.00    +0.151 HD
ATOM     45  H   UNL     1       0.966  -1.740  -0.927  0.00  0.00    +0.156 HD
BRANCH  11  33
ATOM      1  F   UNL     1       2.764  -1.929  -2.488  0.00  0.00    -0.203 F 
ATOM      2  F   UNL     1       6.754  -3.432  -0.438  0.00  0.00    -0.205 F 
ATOM     33  C   UNL     1       2.769  -2.390  -0.158  0.00  0.00    +0.070 A 
ATOM     38  C   UNL     1       3.421  -2.327  -1.389  0.00  0.00    +0.147 A 
ATOM     39  C   UNL     1       3.462  -2.805   0.979  0.00  0.00    +0.029 A 
ATOM     40  C   UNL     1       4.767  -2.679  -1.484  0.00  0.00    +0.078 A 
ATOM     41  C   UNL     1       4.809  -3.158   0.884  0.00  0.00    +0.040 A 
ATOM     42  C   UNL     1       5.461  -3.095  -0.347  0.00  0.00    +0.126 A 
ENDBRANCH  11  33
ENDBRANCH  14   8
BRANCH  19  21
ATOM     10  N   UNL     1      -5.902  -1.378  -1.677  0.00  0.00    -0.346 N 
ATOM     21  C   UNL     1      -5.593  -1.159  -0.360  0.00  0.00    +0.104 A 
ATOM     25  C   UNL     1      -6.165  -2.169   0.381  0.00  0.00    +0.032 A 
ATOM     28  C   UNL     1      -6.662  -2.513  -1.788  0.00  0.00    +0.086 A 
ATOM     29  C   UNL     1      -6.842  -3.026  -0.522  0.00  0.00    +0.020 A 
ATOM     30  C   UNL     1      -5.495  -0.551  -2.792  0.00  0.00    +0.149 C 
ENDBRANCH  19  21
BRANCH  15  18
ATOM      3  O   UNL     1      -2.165   1.121  -0.815  0.00  0.00    -0.274 OA
ATOM      9  N   UNL     1      -1.199   2.359   0.904  0.00  0.00    -0.302 N 
ATOM     18  C   UNL     1      -2.037   1.391   0.377  0.00  0.00    +0.234 C 
ATOM     44  H   UNL     1      -1.240   2.554   1.900  0.00  0.00    +0.150 HD
BRANCH   9  20
ATOM     20  C   UNL     1      -0.346   3.194   0.090  0.00  0.00    +0.163 C 
BRANCH  20  26
ATOM      6  O   UNL     1      -2.032   4.923   0.365  0.00  0.00    -0.274 OA
ATOM     13  N   UNL     1      -0.826   4.866  -1.589  0.00  0.00    -0.328 N 
ATOM     26  C   UNL     1      -1.175   4.396  -0.340  0.00  0.00    +0.231 C 
ATOM     47  H   UNL     1      -0.098   4.435  -2.150  0.00  0.00    +0.145 HD
ATOM     48  H   UNL     1      -1.292   5.673  -1.990  0.00  0.00    +0.145 HD
ENDBRANCH  20  26
BRANCH  20  23
ATOM     23  C   UNL     1       0.910   3.651   0.843  0.00  0.00    +0.069 C 
BRANCH  23  24
ATOM     12  N   UNL     1       3.203   0.875   1.586  0.00  0.00    -0.360 N 
ATOM     24  C   UNL     1       1.977   2.595   0.903  0.00  0.00    -0.020 A 
ATOM     27  C   UNL     1       3.023   2.393  -0.040  0.00  0.00    +0.003 A 
ATOM     31  C   UNL     1       2.114   1.647   1.891  0.00  0.00    +0.087 A 
ATOM     32  C   UNL     1       3.778   1.308   0.412  0.00  0.00    +0.047 A 
ATOM     34  C   UNL     1       3.402   3.030  -1.238  0.00  0.00    +0.010 A 
ATOM     35  C   UNL     1       4.896   0.826  -0.278  0.00  0.00    +0.026 A 
ATOM     36  C   UNL     1       4.519   2.560  -1.938  0.00  0.00    +0.001 A 
ATOM     37  C   UNL     1       5.253   1.475  -1.464  0.00  0.00    +0.002 A 
ATOM     46  H   UNL     1       3.537   0.100   2.141  0.00  0.00    +0.165 HD
ENDBRANCH  23  24
ENDBRANCH  20  23
ENDBRANCH   9  20
ENDBRANCH  15  18
TORSDOF 8
