REMARK  Name = 45783350
REMARK  9 active torsions:
REMARK  status: ('A' for Active; 'I' for Inactive)
REMARK    1  A    between atoms: O_2  and  C_27
REMARK    2  A    between atoms: O_2  and  C_29
REMARK    3  A    between atoms: O_3  and  C_30
REMARK    4  A    between atoms: O_3  and  C_31
REMARK    5  A    between atoms: N_4  and  C_13
REMARK    6  A    between atoms: C_9  and  C_14
REMARK    7  A    between atoms: C_13  and  C_15
REMARK    8  A    between atoms: C_19  and  C_23
REMARK    9  A    between atoms: C_29  and  C_30
REMARK                            x       y       z     vdW  Elec       q    Type
REMARK                         _______ _______ _______ _____ _____    ______ ____
ROOT
ATOM      4  N   UNL     1      -3.585  -0.864   0.982  0.00  0.00    -0.287 NA
ATOM      9  C   UNL     1      -3.824   0.580   0.788  0.00  0.00    +0.146 C 
ATOM     10  C   UNL     1      -4.309   1.084   2.160  0.00  0.00    +0.030 C 
ATOM     11  C   UNL     1      -4.491  -1.293   2.047  0.00  0.00    +0.085 C 
ATOM     12  C   UNL     1      -4.369  -0.156   3.041  0.00  0.00    +0.017 C 
ENDROOT
BRANCH   9  14
ATOM      1  O   UNL     1      -2.809   2.437  -0.435  0.00  0.00    -0.336 OA
ATOM      5  N   UNL     1      -1.329   1.024   0.475  0.00  0.00    -0.190 NA
ATOM      7  N   UNL     1      -1.542   2.931  -0.770  0.00  0.00    -0.056 NA
ATOM     14  C   UNL     1      -2.593   1.313   0.298  0.00  0.00    +0.245 A 
ATOM     19  C   UNL     1      -0.722   2.044  -0.198  0.00  0.00    +0.202 A 
BRANCH  19  23
ATOM      8  N   UNL     1       3.489   2.355  -0.438  0.00  0.00    -0.221 NA
ATOM     23  C   UNL     1       0.706   2.150  -0.279  0.00  0.00    +0.029 A 
ATOM     25  C   UNL     1       1.512   1.199   0.336  0.00  0.00    +0.079 A 
ATOM     26  C   UNL     1       1.290   3.203  -0.974  0.00  0.00    +0.031 A 
ATOM     27  C   UNL     1       2.886   1.345   0.229  0.00  0.00    +0.215 A 
ATOM     28  C   UNL     1       2.673   3.260  -1.024  0.00  0.00    +0.115 A 
BRANCH  27   2
ATOM      2  O   UNL     1       3.702   0.421   0.827  0.00  0.00    -0.474 OA
BRANCH   2  29
ATOM     29  C   UNL     1       5.104   0.619   0.686  0.00  0.00    +0.258 C 
BRANCH  29  30
ATOM     30  C   UNL     1       5.836  -0.482   1.429  0.00  0.00    +0.200 C 
BRANCH  30   3
ATOM      3  O   UNL     1       5.451  -1.741   0.891  0.00  0.00    -0.380 OA
ATOM     31  C   UNL     1       6.126  -2.811   1.537  0.00  0.00    +0.194 C 
ENDBRANCH  30   3
ENDBRANCH  29  30
ENDBRANCH   2  29
ENDBRANCH  27   2
ENDBRANCH  19  23
ENDBRANCH   9  14
BRANCH   4  13
ATOM     13  C   UNL     1      -3.761  -1.644  -0.236  0.00  0.00    +0.122 C 
BRANCH  13  15
ATOM      6  N   UNL     1      -1.278  -1.174  -2.910  0.00  0.00    -0.360 N 
ATOM     15  C   UNL     1      -2.559  -1.555  -1.138  0.00  0.00    -0.008 A 
ATOM     16  C   UNL     1      -1.225  -1.927  -0.811  0.00  0.00    +0.004 A 
ATOM     17  C   UNL     1      -2.560  -1.096  -2.435  0.00  0.00    +0.088 A 
ATOM     18  C   UNL     1      -0.442  -1.678  -1.940  0.00  0.00    +0.047 A 
ATOM     20  C   UNL     1      -0.607  -2.453   0.341  0.00  0.00    +0.010 A 
ATOM     21  C   UNL     1       0.934  -1.930  -1.975  0.00  0.00    +0.026 A 
ATOM     22  C   UNL     1       0.768  -2.710   0.320  0.00  0.00    +0.001 A 
ATOM     24  C   UNL     1       1.525  -2.452  -0.821  0.00  0.00    +0.002 A 
ATOM     32  H   UNL     1      -0.987  -0.900  -3.839  0.00  0.00    +0.165 HD
ENDBRANCH  13  15
ENDBRANCH   4  13
TORSDOF 8
