REMARK  Name = 51137933
REMARK  5 active torsions:
REMARK  status: ('A' for Active; 'I' for Inactive)
REMARK    1  A    between atoms: O_5  and  C_22
REMARK    2  A    between atoms: O_5  and  C_28
REMARK    3  A    between atoms: C_11  and  C_15
REMARK    4  A    between atoms: C_17  and  C_19
REMARK    5  A    between atoms: C_18  and  C_23
REMARK                            x       y       z     vdW  Elec       q    Type
REMARK                         _______ _______ _______ _____ _____    ______ ____
ROOT
ATOM      6  N   UNL     1       1.237   1.788   0.459  0.00  0.00    -0.299 N 
ATOM      8  N   UNL     1       2.758   0.254  -0.380  0.00  0.00    -0.210 NA
ATOM      9  N   UNL     1       2.478   0.571   1.992  0.00  0.00    -0.223 NA
ATOM     11  C   UNL     1      -0.457   3.046  -0.634  0.00  0.00    +0.095 C 
ATOM     12  C   UNL     1      -0.194   3.634   0.756  0.00  0.00    +0.033 C 
ATOM     13  C   UNL     1       0.810   2.204  -0.878  0.00  0.00    +0.121 C 
ATOM     14  C   UNL     1       0.526   2.514   1.507  0.00  0.00    +0.109 C 
ATOM     16  C   UNL     1       2.198   0.830   0.701  0.00  0.00    +0.218 A 
ATOM     18  C   UNL     1       3.695  -0.678  -0.107  0.00  0.00    +0.149 A 
ATOM     20  C   UNL     1       3.423  -0.371   2.193  0.00  0.00    +0.116 A 
ATOM     21  C   UNL     1       4.072  -1.035   1.172  0.00  0.00    +0.052 A 
ENDROOT
BRANCH  11  15
ATOM      4  O   UNL     1      -1.763   0.980  -0.394  0.00  0.00    -0.420 OA
ATOM      7  N   UNL     1      -2.981   2.763  -0.981  0.00  0.00    -0.112 NA
ATOM     10  N   UNL     1      -3.832   1.678  -0.881  0.00  0.00    -0.107 NA
ATOM     15  C   UNL     1      -1.784   2.309  -0.688  0.00  0.00    +0.222 A 
ATOM     17  C   UNL     1      -3.078   0.660  -0.537  0.00  0.00    +0.252 A 
BRANCH  17  19
ATOM     19  C   UNL     1      -3.420  -0.712  -0.293  0.00  0.00    +0.080 A 
ATOM     22  C   UNL     1      -2.689  -1.481   0.612  0.00  0.00    +0.132 A 
ATOM     24  C   UNL     1      -4.498  -1.274  -0.976  0.00  0.00    +0.017 A 
ATOM     25  C   UNL     1      -3.036  -2.813   0.835  0.00  0.00    +0.046 A 
ATOM     26  C   UNL     1      -4.846  -2.607  -0.753  0.00  0.00    +0.001 A 
ATOM     27  C   UNL     1      -4.114  -3.377   0.152  0.00  0.00    +0.004 A 
BRANCH  22   5
ATOM      5  O   UNL     1      -1.630  -0.957   1.293  0.00  0.00    -0.494 OA
ATOM     28  C   UNL     1      -0.948  -1.825   2.195  0.00  0.00    +0.277 C 
ENDBRANCH  22   5
ENDBRANCH  17  19
ENDBRANCH  11  15
BRANCH  18  23
ATOM      1  F   UNL     1       5.272  -2.269  -0.904  0.00  0.00    -0.164 F 
ATOM      2  F   UNL     1       3.462  -2.010  -2.080  0.00  0.00    -0.164 F 
ATOM      3  F   UNL     1       4.996  -0.477  -2.104  0.00  0.00    -0.164 F 
ATOM     23  C   UNL     1       4.341  -1.343  -1.276  0.00  0.00    +0.434 C 
ENDBRANCH  18  23
TORSDOF 4
