MODEL 1
REMARK VINA RESULT:      -7.0      0.000      0.000
REMARK  Name = 26744260
REMARK  7 active torsions:
REMARK  status: ('A' for Active; 'I' for Inactive)
REMARK    1  A    between atoms: O_2  and  C_12
REMARK    2  A    between atoms: O_3  and  C_18
REMARK    3  A    between atoms: O_3  and  C_23
REMARK    4  A    between atoms: N_4  and  C_16
REMARK    5  A    between atoms: C_7  and  C_14
REMARK    6  A    between atoms: C_8  and  C_15
REMARK    7  A    between atoms: C_16  and  C_17
REMARK                            x       y       z     vdW  Elec       q    Type
REMARK                         _______ _______ _______ _____ _____    ______ ____
ROOT
ATOM      4  N   UNL     1      12.876   8.053  21.062  0.00  0.00    -0.284 NA
ATOM      8  C   UNL     1      11.528   8.651  20.971  0.00  0.00    +0.149 C 
ATOM     11  C   UNL     1      10.563   7.508  21.342  0.00  0.00    +0.061 C 
ATOM     12  C   UNL     1      11.459   6.298  21.581  0.00  0.00    +0.130 C 
ATOM     13  C   UNL     1      12.714   6.626  20.793  0.00  0.00    +0.116 C 
ENDROOT
BRANCH   8  15
ATOM      1  O   UNL     1      11.481  11.078  21.260  0.00  0.00    -0.336 OA
ATOM      5  N   UNL     1      11.129   9.924  23.148  0.00  0.00    -0.194 NA
ATOM      6  N   UNL     1      11.296  12.030  22.270  0.00  0.00    -0.061 NA
ATOM     14  C   UNL     1      11.094  11.273  23.352  0.00  0.00    +0.175 A 
ATOM     15  C   UNL     1      11.366   9.864  21.862  0.00  0.00    +0.245 A 
BRANCH  14   7
ATOM      7  C   UNL     1      10.839  11.883  24.734  0.00  0.00    +0.060 C 
ATOM      9  C   UNL     1      10.754  13.376  24.858  0.00  0.00    +0.012 C 
ATOM     10  C   UNL     1      11.946  12.644  25.401  0.00  0.00    +0.012 C 
ENDBRANCH  14   7
ENDBRANCH   8  15
BRANCH  12   2
ATOM      2  O   UNL     1      10.839   5.115  21.114  0.00  0.00    -0.390 OA
ATOM     24  H   UNL     1      10.273   4.781  21.829  0.00  0.00    +0.210 HD
ENDBRANCH  12   2
BRANCH   4  16
ATOM     16  C   UNL     1      13.841   8.675  20.167  0.00  0.00    +0.124 C 
BRANCH  16  17
ATOM     17  C   UNL     1      15.161   7.950  20.175  0.00  0.00    +0.008 A 
ATOM     18  C   UNL     1      16.142   8.267  21.116  0.00  0.00    +0.124 A 
ATOM     19  C   UNL     1      15.398   6.953  19.229  0.00  0.00    +0.008 A 
ATOM     20  C   UNL     1      17.359   7.587  21.109  0.00  0.00    +0.046 A 
ATOM     21  C   UNL     1      16.616   6.273  19.222  0.00  0.00    +0.001 A 
ATOM     22  C   UNL     1      17.597   6.590  20.163  0.00  0.00    +0.004 A 
BRANCH  18   3
ATOM      3  O   UNL     1      15.928   9.239  22.047  0.00  0.00    -0.495 OA
ATOM     23  C   UNL     1      16.667  10.449  21.902  0.00  0.00    +0.277 C 
ENDBRANCH  18   3
ENDBRANCH  16  17
ENDBRANCH   4  16
TORSDOF 6
ENDMDL
MODEL 2
REMARK VINA RESULT:      -6.7      1.317      2.329
REMARK  Name = 26744260
REMARK  7 active torsions:
REMARK  status: ('A' for Active; 'I' for Inactive)
REMARK    1  A    between atoms: O_2  and  C_12
REMARK    2  A    between atoms: O_3  and  C_18
REMARK    3  A    between atoms: O_3  and  C_23
REMARK    4  A    between atoms: N_4  and  C_16
REMARK    5  A    between atoms: C_7  and  C_14
REMARK    6  A    between atoms: C_8  and  C_15
REMARK    7  A    between atoms: C_16  and  C_17
REMARK                            x       y       z     vdW  Elec       q    Type
REMARK                         _______ _______ _______ _____ _____    ______ ____
ROOT
ATOM      4  N   UNL     1      12.801   8.167  20.912  0.00  0.00    -0.284 NA
ATOM      8  C   UNL     1      11.427   8.711  20.934  0.00  0.00    +0.149 C 
ATOM     11  C   UNL     1      10.540   7.524  21.355  0.00  0.00    +0.061 C 
ATOM     12  C   UNL     1      11.499   6.348  21.502  0.00  0.00    +0.130 C 
ATOM     13  C   UNL     1      12.676   6.739  20.627  0.00  0.00    +0.116 C 
ENDROOT
BRANCH   8  15
ATOM      1  O   UNL     1      10.992   9.630  23.157  0.00  0.00    -0.336 OA
ATOM      5  N   UNL     1      11.407  11.178  21.591  0.00  0.00    -0.194 NA
ATOM      6  N   UNL     1      10.915  10.870  23.804  0.00  0.00    -0.061 NA
ATOM     14  C   UNL     1      11.171  11.732  22.817  0.00  0.00    +0.175 A 
ATOM     15  C   UNL     1      11.286   9.902  21.858  0.00  0.00    +0.245 A 
BRANCH  14   7
ATOM      7  C   UNL     1      11.198  13.246  23.046  0.00  0.00    +0.060 C 
ATOM      9  C   UNL     1      10.137  13.862  23.910  0.00  0.00    +0.012 C 
ATOM     10  C   UNL     1      10.121  14.088  22.427  0.00  0.00    +0.012 C 
ENDBRANCH  14   7
ENDBRANCH   8  15
BRANCH  12   2
ATOM      2  O   UNL     1      10.893   5.148  21.060  0.00  0.00    -0.390 OA
ATOM     24  H   UNL     1      11.066   5.067  20.107  0.00  0.00    +0.210 HD
ENDBRANCH  12   2
BRANCH   4  16
ATOM     16  C   UNL     1      13.670   8.843  19.958  0.00  0.00    +0.124 C 
BRANCH  16  17
ATOM     17  C   UNL     1      15.043   9.087  20.525  0.00  0.00    +0.008 A 
ATOM     18  C   UNL     1      16.105   8.240  20.208  0.00  0.00    +0.124 A 
ATOM     19  C   UNL     1      15.246  10.173  21.375  0.00  0.00    +0.008 A 
ATOM     20  C   UNL     1      17.371   8.480  20.743  0.00  0.00    +0.046 A 
ATOM     21  C   UNL     1      16.511  10.413  21.910  0.00  0.00    +0.001 A 
ATOM     22  C   UNL     1      17.574   9.566  21.594  0.00  0.00    +0.004 A 
BRANCH  18   3
ATOM      3  O   UNL     1      15.925   7.174  19.379  0.00  0.00    -0.495 OA
ATOM     23  C   UNL     1      16.943   6.175  19.377  0.00  0.00    +0.277 C 
ENDBRANCH  18   3
ENDBRANCH  16  17
ENDBRANCH   4  16
TORSDOF 6
ENDMDL
MODEL 3
REMARK VINA RESULT:      -6.7      1.602      2.348
REMARK  Name = 26744260
REMARK  7 active torsions:
REMARK  status: ('A' for Active; 'I' for Inactive)
REMARK    1  A    between atoms: O_2  and  C_12
REMARK    2  A    between atoms: O_3  and  C_18
REMARK    3  A    between atoms: O_3  and  C_23
REMARK    4  A    between atoms: N_4  and  C_16
REMARK    5  A    between atoms: C_7  and  C_14
REMARK    6  A    between atoms: C_8  and  C_15
REMARK    7  A    between atoms: C_16  and  C_17
REMARK                            x       y       z     vdW  Elec       q    Type
REMARK                         _______ _______ _______ _____ _____    ______ ____
ROOT
ATOM      4  N   UNL     1      12.903   8.623  21.865  0.00  0.00    -0.284 NA
ATOM      8  C   UNL     1      11.693   9.300  21.355  0.00  0.00    +0.149 C 
ATOM     11  C   UNL     1      10.599   8.214  21.368  0.00  0.00    +0.061 C 
ATOM     12  C   UNL     1      11.302   6.953  21.856  0.00  0.00    +0.130 C 
ATOM     13  C   UNL     1      12.761   7.209  21.525  0.00  0.00    +0.116 C 
ENDROOT
BRANCH   8  15
ATOM      1  O   UNL     1      10.841  10.283  23.425  0.00  0.00    -0.336 OA
ATOM      5  N   UNL     1      11.382  11.784  21.853  0.00  0.00    -0.194 NA
ATOM      6  N   UNL     1      10.568  11.540  23.977  0.00  0.00    -0.061 NA
ATOM     14  C   UNL     1      10.912  12.374  22.991  0.00  0.00    +0.175 A 
ATOM     15  C   UNL     1      11.317  10.517  22.173  0.00  0.00    +0.245 A 
BRANCH  14   7
ATOM      7  C   UNL     1      10.788  13.894  23.132  0.00  0.00    +0.060 C 
ATOM      9  C   UNL     1       9.869  14.447  24.181  0.00  0.00    +0.012 C 
ATOM     10  C   UNL     1       9.500  14.551  22.730  0.00  0.00    +0.012 C 
ENDBRANCH  14   7
ENDBRANCH   8  15
BRANCH  12   2
ATOM      2  O   UNL     1      10.804   5.810  21.187  0.00  0.00    -0.390 OA
ATOM     24  H   UNL     1      11.567   5.327  20.827  0.00  0.00    +0.210 HD
ENDBRANCH  12   2
BRANCH   4  16
ATOM     16  C   UNL     1      14.139   9.191  21.344  0.00  0.00    +0.124 C 
BRANCH  16  17
ATOM     17  C   UNL     1      14.995   8.150  20.674  0.00  0.00    +0.008 A 
ATOM     18  C   UNL     1      14.823   7.847  19.323  0.00  0.00    +0.124 A 
ATOM     19  C   UNL     1      15.969   7.485  21.419  0.00  0.00    +0.008 A 
ATOM     20  C   UNL     1      15.624   6.879  18.717  0.00  0.00    +0.046 A 
ATOM     21  C   UNL     1      16.770   6.516  20.814  0.00  0.00    +0.001 A 
ATOM     22  C   UNL     1      16.598   6.214  19.462  0.00  0.00    +0.004 A 
BRANCH  18   3
ATOM      3  O   UNL     1      13.877   8.487  18.580  0.00  0.00    -0.495 OA
ATOM     23  C   UNL     1      12.905   7.672  17.928  0.00  0.00    +0.277 C 
ENDBRANCH  18   3
ENDBRANCH  16  17
ENDBRANCH   4  16
TORSDOF 6
ENDMDL
MODEL 4
REMARK VINA RESULT:      -6.5     25.217     27.708
REMARK  Name = 26744260
REMARK  7 active torsions:
REMARK  status: ('A' for Active; 'I' for Inactive)
REMARK    1  A    between atoms: O_2  and  C_12
REMARK    2  A    between atoms: O_3  and  C_18
REMARK    3  A    between atoms: O_3  and  C_23
REMARK    4  A    between atoms: N_4  and  C_16
REMARK    5  A    between atoms: C_7  and  C_14
REMARK    6  A    between atoms: C_8  and  C_15
REMARK    7  A    between atoms: C_16  and  C_17
REMARK                            x       y       z     vdW  Elec       q    Type
REMARK                         _______ _______ _______ _____ _____    ______ ____
ROOT
ATOM      4  N   UNL     1      -3.180 -10.585  14.113  0.00  0.00    -0.284 NA
ATOM      8  C   UNL     1      -3.494 -11.331  15.350  0.00  0.00    +0.149 C 
ATOM     11  C   UNL     1      -2.373 -10.950  16.336  0.00  0.00    +0.061 C 
ATOM     12  C   UNL     1      -1.454 -10.024  15.548  0.00  0.00    +0.130 C 
ATOM     13  C   UNL     1      -1.731 -10.394  14.103  0.00  0.00    +0.116 C 
ENDROOT
BRANCH   8  15
ATOM      1  O   UNL     1      -5.769 -12.040  15.893  0.00  0.00    -0.336 OA
ATOM      5  N   UNL     1      -5.347  -9.887  16.349  0.00  0.00    -0.194 NA
ATOM      6  N   UNL     1      -6.954 -11.514  16.424  0.00  0.00    -0.061 NA
ATOM     14  C   UNL     1      -6.627 -10.242  16.668  0.00  0.00    +0.175 A 
ATOM     15  C   UNL     1      -4.875 -11.016  15.885  0.00  0.00    +0.245 A 
BRANCH  14   7
ATOM      7  C   UNL     1      -7.625  -9.247  17.268  0.00  0.00    +0.060 C 
ATOM      9  C   UNL     1      -9.009  -9.724  17.595  0.00  0.00    +0.012 C 
ATOM     10  C   UNL     1      -8.788  -8.801  16.432  0.00  0.00    +0.012 C 
ENDBRANCH  14   7
ENDBRANCH   8  15
BRANCH  12   2
ATOM      2  O   UNL     1      -0.100 -10.245  15.897  0.00  0.00    -0.390 OA
ATOM     24  H   UNL     1       0.169 -11.090  15.499  0.00  0.00    +0.210 HD
ENDBRANCH  12   2
BRANCH   4  16
ATOM     16  C   UNL     1      -3.654 -11.249  12.907  0.00  0.00    +0.124 C 
BRANCH  16  17
ATOM     17  C   UNL     1      -4.099 -10.261  11.862  0.00  0.00    +0.008 A 
ATOM     18  C   UNL     1      -5.347  -9.643  11.950  0.00  0.00    +0.124 A 
ATOM     19  C   UNL     1      -3.248  -9.966  10.796  0.00  0.00    +0.008 A 
ATOM     20  C   UNL     1      -5.743  -8.731  10.972  0.00  0.00    +0.046 A 
ATOM     21  C   UNL     1      -3.645  -9.054   9.819  0.00  0.00    +0.001 A 
ATOM     22  C   UNL     1      -4.893  -8.436   9.907  0.00  0.00    +0.004 A 
BRANCH  18   3
ATOM      3  O   UNL     1      -6.191  -9.919  12.983  0.00  0.00    -0.495 OA
ATOM     23  C   UNL     1      -7.556  -9.538  12.824  0.00  0.00    +0.277 C 
ENDBRANCH  18   3
ENDBRANCH  16  17
ENDBRANCH   4  16
TORSDOF 6
ENDMDL
MODEL 5
REMARK VINA RESULT:      -6.5      1.834      2.878
REMARK  Name = 26744260
REMARK  7 active torsions:
REMARK  status: ('A' for Active; 'I' for Inactive)
REMARK    1  A    between atoms: O_2  and  C_12
REMARK    2  A    between atoms: O_3  and  C_18
REMARK    3  A    between atoms: O_3  and  C_23
REMARK    4  A    between atoms: N_4  and  C_16
REMARK    5  A    between atoms: C_7  and  C_14
REMARK    6  A    between atoms: C_8  and  C_15
REMARK    7  A    between atoms: C_16  and  C_17
REMARK                            x       y       z     vdW  Elec       q    Type
REMARK                         _______ _______ _______ _____ _____    ______ ____
ROOT
ATOM      4  N   UNL     1      12.899   8.283  21.573  0.00  0.00    -0.284 NA
ATOM      8  C   UNL     1      11.662   8.957  21.126  0.00  0.00    +0.149 C 
ATOM     11  C   UNL     1      10.556   7.896  21.285  0.00  0.00    +0.061 C 
ATOM     12  C   UNL     1      11.276   6.648  21.782  0.00  0.00    +0.130 C 
ATOM     13  C   UNL     1      12.707   6.856  21.321  0.00  0.00    +0.116 C 
ENDROOT
BRANCH   8  15
ATOM      1  O   UNL     1      11.007  10.064  23.205  0.00  0.00    -0.336 OA
ATOM      5  N   UNL     1      11.426  11.470  21.511  0.00  0.00    -0.194 NA
ATOM      6  N   UNL     1      10.799  11.354  23.708  0.00  0.00    -0.061 NA
ATOM     14  C   UNL     1      11.065  12.128  22.652  0.00  0.00    +0.175 A 
ATOM     15  C   UNL     1      11.375  10.223  21.906  0.00  0.00    +0.245 A 
BRANCH  14   7
ATOM      7  C   UNL     1      10.972  13.655  22.719  0.00  0.00    +0.060 C 
ATOM      9  C   UNL     1       9.887  14.274  23.550  0.00  0.00    +0.012 C 
ATOM     10  C   UNL     1       9.812  14.335  22.053  0.00  0.00    +0.012 C 
ENDBRANCH  14   7
ENDBRANCH   8  15
BRANCH  12   2
ATOM      2  O   UNL     1      10.706   5.482  21.217  0.00  0.00    -0.390 OA
ATOM     24  H   UNL     1      11.334   4.754  21.356  0.00  0.00    +0.210 HD
ENDBRANCH  12   2
BRANCH   4  16
ATOM     16  C   UNL     1      14.098   8.797  20.925  0.00  0.00    +0.124 C 
BRANCH  16  17
ATOM     17  C   UNL     1      13.988   8.752  19.424  0.00  0.00    +0.008 A 
ATOM     18  C   UNL     1      14.454   7.649  18.708  0.00  0.00    +0.124 A 
ATOM     19  C   UNL     1      13.413   9.829  18.750  0.00  0.00    +0.008 A 
ATOM     20  C   UNL     1      14.345   7.623  17.318  0.00  0.00    +0.046 A 
ATOM     21  C   UNL     1      13.305   9.804  17.360  0.00  0.00    +0.001 A 
ATOM     22  C   UNL     1      13.771   8.701  16.644  0.00  0.00    +0.004 A 
BRANCH  18   3
ATOM      3  O   UNL     1      15.018   6.588  19.350  0.00  0.00    -0.495 OA
ATOM     23  C   UNL     1      16.418   6.387  19.164  0.00  0.00    +0.277 C 
ENDBRANCH  18   3
ENDBRANCH  16  17
ENDBRANCH   4  16
TORSDOF 6
ENDMDL
MODEL 6
REMARK VINA RESULT:      -6.4      3.125      5.288
REMARK  Name = 26744260
REMARK  7 active torsions:
REMARK  status: ('A' for Active; 'I' for Inactive)
REMARK    1  A    between atoms: O_2  and  C_12
REMARK    2  A    between atoms: O_3  and  C_18
REMARK    3  A    between atoms: O_3  and  C_23
REMARK    4  A    between atoms: N_4  and  C_16
REMARK    5  A    between atoms: C_7  and  C_14
REMARK    6  A    between atoms: C_8  and  C_15
REMARK    7  A    between atoms: C_16  and  C_17
REMARK                            x       y       z     vdW  Elec       q    Type
REMARK                         _______ _______ _______ _____ _____    ______ ____
ROOT
ATOM      4  N   UNL     1      13.320   8.207  20.267  0.00  0.00    -0.284 NA
ATOM      8  C   UNL     1      12.398   7.931  19.146  0.00  0.00    +0.149 C 
ATOM     11  C   UNL     1      11.042   8.505  19.599  0.00  0.00    +0.061 C 
ATOM     12  C   UNL     1      11.291   9.040  21.004  0.00  0.00    +0.130 C 
ATOM     13  C   UNL     1      12.499   8.252  21.475  0.00  0.00    +0.116 C 
ENDROOT
BRANCH   8  15
ATOM      1  O   UNL     1      12.219   8.130  16.716  0.00  0.00    -0.336 OA
ATOM      5  N   UNL     1      13.846   9.377  17.620  0.00  0.00    -0.194 NA
ATOM      6  N   UNL     1      12.831   8.803  15.651  0.00  0.00    -0.061 NA
ATOM     14  C   UNL     1      13.779   9.518  16.263  0.00  0.00    +0.175 A 
ATOM     15  C   UNL     1      12.877   8.525  17.838  0.00  0.00    +0.245 A 
BRANCH  14   7
ATOM      7  C   UNL     1      14.730  10.437  15.490  0.00  0.00    +0.060 C 
ATOM      9  C   UNL     1      15.345  11.603  16.206  0.00  0.00    +0.012 C 
ATOM     10  C   UNL     1      14.282  11.833  15.172  0.00  0.00    +0.012 C 
ENDBRANCH  14   7
ENDBRANCH   8  15
BRANCH  12   2
ATOM      2  O   UNL     1      10.165   8.821  21.831  0.00  0.00    -0.390 OA
ATOM     24  H   UNL     1       9.773   9.688  22.028  0.00  0.00    +0.210 HD
ENDBRANCH  12   2
BRANCH   4  16
ATOM     16  C   UNL     1      14.400   7.236  20.374  0.00  0.00    +0.124 C 
BRANCH  16  17
ATOM     17  C   UNL     1      15.704   7.888  20.750  0.00  0.00    +0.008 A 
ATOM     18  C   UNL     1      16.912   7.206  20.600  0.00  0.00    +0.124 A 
ATOM     19  C   UNL     1      15.696   9.189  21.253  0.00  0.00    +0.008 A 
ATOM     20  C   UNL     1      18.111   7.824  20.954  0.00  0.00    +0.046 A 
ATOM     21  C   UNL     1      16.895   9.807  21.608  0.00  0.00    +0.001 A 
ATOM     22  C   UNL     1      18.103   9.125  21.458  0.00  0.00    +0.004 A 
BRANCH  18   3
ATOM      3  O   UNL     1      16.939   5.934  20.110  0.00  0.00    -0.495 OA
ATOM     23  C   UNL     1      17.890   5.655  19.085  0.00  0.00    +0.277 C 
ENDBRANCH  18   3
ENDBRANCH  16  17
ENDBRANCH   4  16
TORSDOF 6
ENDMDL
MODEL 7
REMARK VINA RESULT:      -6.2      2.652      5.026
REMARK  Name = 26744260
REMARK  7 active torsions:
REMARK  status: ('A' for Active; 'I' for Inactive)
REMARK    1  A    between atoms: O_2  and  C_12
REMARK    2  A    between atoms: O_3  and  C_18
REMARK    3  A    between atoms: O_3  and  C_23
REMARK    4  A    between atoms: N_4  and  C_16
REMARK    5  A    between atoms: C_7  and  C_14
REMARK    6  A    between atoms: C_8  and  C_15
REMARK    7  A    between atoms: C_16  and  C_17
REMARK                            x       y       z     vdW  Elec       q    Type
REMARK                         _______ _______ _______ _____ _____    ______ ____
ROOT
ATOM      4  N   UNL     1      12.146   9.466  22.163  0.00  0.00    -0.284 NA
ATOM      8  C   UNL     1      11.854  10.446  21.097  0.00  0.00    +0.149 C 
ATOM     11  C   UNL     1      11.255  11.661  21.830  0.00  0.00    +0.061 C 
ATOM     12  C   UNL     1      11.208  11.252  23.297  0.00  0.00    +0.130 C 
ATOM     13  C   UNL     1      11.198   9.735  23.243  0.00  0.00    +0.116 C 
ENDROOT
BRANCH   8  15
ATOM      1  O   UNL     1      14.252  10.899  20.959  0.00  0.00    -0.336 OA
ATOM      5  N   UNL     1      13.181  11.034  18.996  0.00  0.00    -0.194 NA
ATOM      6  N   UNL     1      15.224  11.232  20.007  0.00  0.00    -0.061 NA
ATOM     14  C   UNL     1      14.516  11.292  18.876  0.00  0.00    +0.175 A 
ATOM     15  C   UNL     1      13.079  10.802  20.280  0.00  0.00    +0.245 A 
BRANCH  14   7
ATOM      7  C   UNL     1      15.164  11.632  17.530  0.00  0.00    +0.060 C 
ATOM      9  C   UNL     1      14.281  12.049  16.391  0.00  0.00    +0.012 C 
ATOM     10  C   UNL     1      14.945  10.703  16.371  0.00  0.00    +0.012 C 
ENDBRANCH  14   7
ENDBRANCH   8  15
BRANCH  12   2
ATOM      2  O   UNL     1      10.047  11.762  23.924  0.00  0.00    -0.390 OA
ATOM     24  H   UNL     1       9.333  11.755  23.265  0.00  0.00    +0.210 HD
ENDBRANCH  12   2
BRANCH   4  16
ATOM     16  C   UNL     1      12.081   8.085  21.707  0.00  0.00    +0.124 C 
BRANCH  16  17
ATOM     17  C   UNL     1      13.399   7.614  21.153  0.00  0.00    +0.008 A 
ATOM     18  C   UNL     1      13.495   7.145  19.842  0.00  0.00    +0.124 A 
ATOM     19  C   UNL     1      14.533   7.651  21.964  0.00  0.00    +0.008 A 
ATOM     20  C   UNL     1      14.723   6.713  19.344  0.00  0.00    +0.046 A 
ATOM     21  C   UNL     1      15.762   7.218  21.467  0.00  0.00    +0.001 A 
ATOM     22  C   UNL     1      15.857   6.749  20.156  0.00  0.00    +0.004 A 
BRANCH  18   3
ATOM      3  O   UNL     1      12.398   7.102  19.035  0.00  0.00    -0.495 OA
ATOM     23  C   UNL     1      12.514   7.712  17.751  0.00  0.00    +0.277 C 
ENDBRANCH  18   3
ENDBRANCH  16  17
ENDBRANCH   4  16
TORSDOF 6
ENDMDL
MODEL 8
REMARK VINA RESULT:      -6.1      2.968      5.148
REMARK  Name = 26744260
REMARK  7 active torsions:
REMARK  status: ('A' for Active; 'I' for Inactive)
REMARK    1  A    between atoms: O_2  and  C_12
REMARK    2  A    between atoms: O_3  and  C_18
REMARK    3  A    between atoms: O_3  and  C_23
REMARK    4  A    between atoms: N_4  and  C_16
REMARK    5  A    between atoms: C_7  and  C_14
REMARK    6  A    between atoms: C_8  and  C_15
REMARK    7  A    between atoms: C_16  and  C_17
REMARK                            x       y       z     vdW  Elec       q    Type
REMARK                         _______ _______ _______ _____ _____    ______ ____
ROOT
ATOM      4  N   UNL     1      15.105   9.950  20.978  0.00  0.00    -0.284 NA
ATOM      8  C   UNL     1      13.668  10.274  21.090  0.00  0.00    +0.149 C 
ATOM     11  C   UNL     1      13.593  11.803  20.920  0.00  0.00    +0.061 C 
ATOM     12  C   UNL     1      15.041  12.253  20.764  0.00  0.00    +0.130 C 
ATOM     13  C   UNL     1      15.832  11.138  21.422  0.00  0.00    +0.116 C 
ENDROOT
BRANCH   8  15
ATOM      1  O   UNL     1      11.734   8.875  20.559  0.00  0.00    -0.336 OA
ATOM      5  N   UNL     1      12.984   9.423  18.782  0.00  0.00    -0.194 NA
ATOM      6  N   UNL     1      11.122   8.275  19.452  0.00  0.00    -0.061 NA
ATOM     14  C   UNL     1      11.915   8.644  18.443  0.00  0.00    +0.175 A 
ATOM     15  C   UNL     1      12.823   9.531  20.077  0.00  0.00    +0.245 A 
BRANCH  14   7
ATOM      7  C   UNL     1      11.642   8.217  16.997  0.00  0.00    +0.060 C 
ATOM      9  C   UNL     1      11.967   9.175  15.890  0.00  0.00    +0.012 C 
ATOM     10  C   UNL     1      10.536   8.895  16.243  0.00  0.00    +0.012 C 
ENDBRANCH  14   7
ENDBRANCH   8  15
BRANCH  12   2
ATOM      2  O   UNL     1      15.252  13.496  21.406  0.00  0.00    -0.390 OA
ATOM     24  H   UNL     1      14.504  14.073  21.177  0.00  0.00    +0.210 HD
ENDBRANCH  12   2
BRANCH   4  16
ATOM     16  C   UNL     1      15.486   8.762  21.728  0.00  0.00    +0.124 C 
BRANCH  16  17
ATOM     17  C   UNL     1      16.256   7.786  20.879  0.00  0.00    +0.008 A 
ATOM     18  C   UNL     1      17.617   7.569  21.098  0.00  0.00    +0.124 A 
ATOM     19  C   UNL     1      15.594   7.095  19.863  0.00  0.00    +0.008 A 
ATOM     20  C   UNL     1      18.315   6.661  20.301  0.00  0.00    +0.046 A 
ATOM     21  C   UNL     1      16.292   6.188  19.067  0.00  0.00    +0.001 A 
ATOM     22  C   UNL     1      17.653   5.971  19.286  0.00  0.00    +0.004 A 
BRANCH  18   3
ATOM      3  O   UNL     1      18.279   8.234  22.084  0.00  0.00    -0.495 OA
ATOM     23  C   UNL     1      19.630   7.850  22.331  0.00  0.00    +0.277 C 
ENDBRANCH  18   3
ENDBRANCH  16  17
ENDBRANCH   4  16
TORSDOF 6
ENDMDL
MODEL 9
REMARK VINA RESULT:      -6.1     26.054     27.893
REMARK  Name = 26744260
REMARK  7 active torsions:
REMARK  status: ('A' for Active; 'I' for Inactive)
REMARK    1  A    between atoms: O_2  and  C_12
REMARK    2  A    between atoms: O_3  and  C_18
REMARK    3  A    between atoms: O_3  and  C_23
REMARK    4  A    between atoms: N_4  and  C_16
REMARK    5  A    between atoms: C_7  and  C_14
REMARK    6  A    between atoms: C_8  and  C_15
REMARK    7  A    between atoms: C_16  and  C_17
REMARK                            x       y       z     vdW  Elec       q    Type
REMARK                         _______ _______ _______ _____ _____    ______ ____
ROOT
ATOM      4  N   UNL     1      -4.183 -10.822  14.843  0.00  0.00    -0.284 NA
ATOM      8  C   UNL     1      -4.752 -11.459  16.048  0.00  0.00    +0.149 C 
ATOM     11  C   UNL     1      -3.678 -11.271  17.137  0.00  0.00    +0.061 C 
ATOM     12  C   UNL     1      -2.527 -10.559  16.436  0.00  0.00    +0.130 C 
ATOM     13  C   UNL     1      -2.730 -10.911  14.974  0.00  0.00    +0.116 C 
ENDROOT
BRANCH   8  15
ATOM      1  O   UNL     1      -7.038 -11.752  16.863  0.00  0.00    -0.336 OA
ATOM      5  N   UNL     1      -6.484  -9.624  16.435  0.00  0.00    -0.194 NA
ATOM      6  N   UNL     1      -8.170 -10.986  17.165  0.00  0.00    -0.061 NA
ATOM     14  C   UNL     1      -7.766  -9.743  16.888  0.00  0.00    +0.175 A 
ATOM     15  C   UNL     1      -6.091 -10.872  16.441  0.00  0.00    +0.245 A 
BRANCH  14   7
ATOM      7  C   UNL     1      -8.684  -8.531  17.068  0.00  0.00    +0.060 C 
ATOM      9  C   UNL     1     -10.150  -8.764  17.288  0.00  0.00    +0.012 C 
ATOM     10  C   UNL     1      -9.667  -8.204  15.982  0.00  0.00    +0.012 C 
ENDBRANCH  14   7
ENDBRANCH   8  15
BRANCH  12   2
ATOM      2  O   UNL     1      -1.281 -11.024  16.920  0.00  0.00    -0.390 OA
ATOM     24  H   UNL     1      -1.080 -11.855  16.458  0.00  0.00    +0.210 HD
ENDBRANCH  12   2
BRANCH   4  16
ATOM     16  C   UNL     1      -4.658 -11.417  13.601  0.00  0.00    +0.124 C 
BRANCH  16  17
ATOM     17  C   UNL     1      -4.908 -10.378  12.541  0.00  0.00    +0.008 A 
ATOM     18  C   UNL     1      -3.962 -10.135  11.544  0.00  0.00    +0.124 A 
ATOM     19  C   UNL     1      -6.100  -9.655  12.562  0.00  0.00    +0.008 A 
ATOM     20  C   UNL     1      -4.208  -9.169  10.570  0.00  0.00    +0.046 A 
ATOM     21  C   UNL     1      -6.346  -8.688  11.588  0.00  0.00    +0.001 A 
ATOM     22  C   UNL     1      -5.400  -8.444  10.592  0.00  0.00    +0.004 A 
BRANCH  18   3
ATOM      3  O   UNL     1      -2.792 -10.832  11.508  0.00  0.00    -0.495 OA
ATOM     23  C   UNL     1      -1.587 -10.084  11.657  0.00  0.00    +0.277 C 
ENDBRANCH  18   3
ENDBRANCH  16  17
ENDBRANCH   4  16
TORSDOF 6
ENDMDL
MODEL 10
REMARK VINA RESULT:      -6.0     29.747     31.055
REMARK  Name = 26744260
REMARK  7 active torsions:
REMARK  status: ('A' for Active; 'I' for Inactive)
REMARK    1  A    between atoms: O_2  and  C_12
REMARK    2  A    between atoms: O_3  and  C_18
REMARK    3  A    between atoms: O_3  and  C_23
REMARK    4  A    between atoms: N_4  and  C_16
REMARK    5  A    between atoms: C_7  and  C_14
REMARK    6  A    between atoms: C_8  and  C_15
REMARK    7  A    between atoms: C_16  and  C_17
REMARK                            x       y       z     vdW  Elec       q    Type
REMARK                         _______ _______ _______ _____ _____    ______ ____
ROOT
ATOM      4  N   UNL     1     -15.354   1.430  29.559  0.00  0.00    -0.284 NA
ATOM      8  C   UNL     1     -15.300   1.150  31.009  0.00  0.00    +0.149 C 
ATOM     11  C   UNL     1     -14.264   0.018  31.153  0.00  0.00    +0.061 C 
ATOM     12  C   UNL     1     -13.827  -0.300  29.728  0.00  0.00    +0.130 C 
ATOM     13  C   UNL     1     -14.990   0.186  28.883  0.00  0.00    +0.116 C 
ENDROOT
BRANCH   8  15
ATOM      1  O   UNL     1     -13.838   3.061  31.441  0.00  0.00    -0.336 OA
ATOM      5  N   UNL     1     -15.556   2.881  32.868  0.00  0.00    -0.194 NA
ATOM      6  N   UNL     1     -13.718   4.134  32.333  0.00  0.00    -0.061 NA
ATOM     14  C   UNL     1     -14.766   3.960  33.143  0.00  0.00    +0.175 A 
ATOM     15  C   UNL     1     -14.946   2.374  31.826  0.00  0.00    +0.245 A 
BRANCH  14   7
ATOM      7  C   UNL     1     -15.060   4.912  34.306  0.00  0.00    +0.060 C 
ATOM      9  C   UNL     1     -14.052   5.969  34.644  0.00  0.00    +0.012 C 
ATOM     10  C   UNL     1     -14.241   4.794  35.558  0.00  0.00    +0.012 C 
ENDBRANCH  14   7
ENDBRANCH   8  15
BRANCH  12   2
ATOM      2  O   UNL     1     -13.606  -1.689  29.569  0.00  0.00    -0.390 OA
ATOM     24  H   UNL     1     -12.808  -1.797  29.026  0.00  0.00    +0.210 HD
ENDBRANCH  12   2
BRANCH   4  16
ATOM     16  C   UNL     1     -16.648   1.934  29.120  0.00  0.00    +0.124 C 
BRANCH  16  17
ATOM     17  C   UNL     1     -16.701   2.117  27.627  0.00  0.00    +0.008 A 
ATOM     18  C   UNL     1     -17.386   1.206  26.821  0.00  0.00    +0.124 A 
ATOM     19  C   UNL     1     -16.056   3.210  27.050  0.00  0.00    +0.008 A 
ATOM     20  C   UNL     1     -17.425   1.390  25.440  0.00  0.00    +0.046 A 
ATOM     21  C   UNL     1     -16.094   3.394  25.668  0.00  0.00    +0.001 A 
ATOM     22  C   UNL     1     -16.779   2.483  24.862  0.00  0.00    +0.004 A 
BRANCH  18   3
ATOM      3  O   UNL     1     -18.021   0.132  27.368  0.00  0.00    -0.495 OA
ATOM     23  C   UNL     1     -19.340  -0.147  26.901  0.00  0.00    +0.277 C 
ENDBRANCH  18   3
ENDBRANCH  16  17
ENDBRANCH   4  16
TORSDOF 6
ENDMDL
