MODEL 1
REMARK VINA RESULT:      -7.0      0.000      0.000
REMARK  Name = 11867446
REMARK  11 active torsions:
REMARK  status: ('A' for Active; 'I' for Inactive)
REMARK    1  A    between atoms: O_3  and  C_12
REMARK    2  A    between atoms: O_3  and  C_17
REMARK    3  A    between atoms: O_5  and  C_30
REMARK    4  A    between atoms: O_5  and  C_31
REMARK    5  A    between atoms: N_6  and  C_11
REMARK    6  A    between atoms: N_6  and  C_15
REMARK    7  A    between atoms: N_7  and  C_23
REMARK    8  A    between atoms: N_8  and  C_22
REMARK    9  A    between atoms: N_8  and  C_26
REMARK   10  A    between atoms: N_8  and  C_27
REMARK   11  A    between atoms: C_15  and  C_16
REMARK                            x       y       z     vdW  Elec       q    Type
REMARK                         _______ _______ _______ _____ _____    ______ ____
ROOT
ATOM      1  O   UNL     1      13.490   7.916  21.444  0.00  0.00    -0.369 OA
ATOM      2  O   UNL     1      11.603   7.922  19.042  0.00  0.00    -0.369 OA
ATOM      9  C   UNL     1      12.987   8.314  19.164  0.00  0.00    +0.170 C 
ATOM     10  C   UNL     1      13.138   8.965  20.525  0.00  0.00    +0.191 C 
ATOM     11  C   UNL     1      13.868   7.086  19.243  0.00  0.00    +0.111 C 
ATOM     12  C   UNL     1      11.748   9.495  20.789  0.00  0.00    +0.235 C 
ATOM     13  C   UNL     1      13.741   6.708  20.711  0.00  0.00    +0.181 C 
ATOM     14  C   UNL     1      10.877   8.422  20.174  0.00  0.00    +0.207 C 
ENDROOT
BRANCH  11   6
ATOM      6  N   UNL     1      15.260   7.403  18.928  0.00  0.00    -0.305 NA
ATOM     32  H   UNL     1      15.553   8.215  19.473  0.00  0.00    +0.123 HD
BRANCH   6  15
ATOM     15  C   UNL     1      16.132   6.288  19.262  0.00  0.00    +0.116 C 
BRANCH  15  16
ATOM     16  C   UNL     1      17.322   6.730  20.073  0.00  0.00    -0.033 A 
ATOM     18  C   UNL     1      17.248   7.890  20.844  0.00  0.00    +0.007 A 
ATOM     19  C   UNL     1      18.497   5.978  20.053  0.00  0.00    +0.007 A 
ATOM     20  C   UNL     1      18.349   8.299  21.595  0.00  0.00    +0.023 A 
ATOM     21  C   UNL     1      19.599   6.388  20.805  0.00  0.00    +0.023 A 
ATOM     22  C   UNL     1      19.525   7.548  21.575  0.00  0.00    +0.029 A 
BRANCH  22   8
ATOM      8  N   UNL     1      20.639   7.962  22.335  0.00  0.00    -0.336 N 
ATOM     26  C   UNL     1      21.985   7.670  21.885  0.00  0.00    +0.129 C 
ATOM     27  C   UNL     1      20.451   8.675  23.582  0.00  0.00    +0.129 C 
ENDBRANCH  22   8
ENDBRANCH  15  16
ENDBRANCH   6  15
ENDBRANCH  11   6
BRANCH  12   3
ATOM      3  O   UNL     1      11.470   9.685  22.158  0.00  0.00    -0.442 OA
BRANCH   3  17
ATOM      4  O   UNL     1      11.167  11.934  21.877  0.00  0.00    -0.226 OA
ATOM      7  N   UNL     1      11.714  11.018  23.961  0.00  0.00    -0.251 N 
ATOM     17  C   UNL     1      11.427  10.987  22.609  0.00  0.00    +0.405 C 
ATOM     33  H   UNL     1      11.905  10.120  24.400  0.00  0.00    +0.158 HD
BRANCH   7  23
ATOM     23  C   UNL     1      11.776  12.144  24.812  0.00  0.00    +0.037 A 
ATOM     24  C   UNL     1      13.001  12.550  25.343  0.00  0.00    +0.027 A 
ATOM     25  C   UNL     1      10.614  12.850  25.121  0.00  0.00    +0.027 A 
ATOM     28  C   UNL     1      13.063  13.662  26.182  0.00  0.00    +0.047 A 
ATOM     29  C   UNL     1      10.676  13.963  25.960  0.00  0.00    +0.047 A 
ATOM     30  C   UNL     1      11.900  14.369  26.491  0.00  0.00    +0.120 A 
BRANCH  30   5
ATOM      5  O   UNL     1      11.961  15.455  27.308  0.00  0.00    -0.495 OA
ATOM     31  C   UNL     1      12.781  15.350  28.470  0.00  0.00    +0.277 C 
ENDBRANCH  30   5
ENDBRANCH   7  23
ENDBRANCH   3  17
ENDBRANCH  12   3
TORSDOF 8
ENDMDL
MODEL 2
REMARK VINA RESULT:      -6.8     28.476     31.085
REMARK  Name = 11867446
REMARK  11 active torsions:
REMARK  status: ('A' for Active; 'I' for Inactive)
REMARK    1  A    between atoms: O_3  and  C_12
REMARK    2  A    between atoms: O_3  and  C_17
REMARK    3  A    between atoms: O_5  and  C_30
REMARK    4  A    between atoms: O_5  and  C_31
REMARK    5  A    between atoms: N_6  and  C_11
REMARK    6  A    between atoms: N_6  and  C_15
REMARK    7  A    between atoms: N_7  and  C_23
REMARK    8  A    between atoms: N_8  and  C_22
REMARK    9  A    between atoms: N_8  and  C_26
REMARK   10  A    between atoms: N_8  and  C_27
REMARK   11  A    between atoms: C_15  and  C_16
REMARK                            x       y       z     vdW  Elec       q    Type
REMARK                         _______ _______ _______ _____ _____    ______ ____
ROOT
ATOM      1  O   UNL     1      -6.435 -11.964  17.570  0.00  0.00    -0.369 OA
ATOM      2  O   UNL     1      -4.828 -11.836  20.166  0.00  0.00    -0.369 OA
ATOM      9  C   UNL     1      -5.766 -10.906  19.581  0.00  0.00    +0.170 C 
ATOM     10  C   UNL     1      -5.549 -10.953  18.081  0.00  0.00    +0.191 C 
ATOM     11  C   UNL     1      -7.180 -11.413  19.765  0.00  0.00    +0.111 C 
ATOM     12  C   UNL     1      -4.103 -11.372  17.973  0.00  0.00    +0.235 C 
ATOM     13  C   UNL     1      -7.303 -12.411  18.623  0.00  0.00    +0.181 C 
ATOM     14  C   UNL     1      -3.962 -12.331  19.134  0.00  0.00    +0.207 C 
ENDROOT
BRANCH  11   6
ATOM      6  N   UNL     1      -8.160 -10.341  19.599  0.00  0.00    -0.305 NA
ATOM     32  H   UNL     1      -7.786  -9.637  18.962  0.00  0.00    +0.123 HD
BRANCH   6  15
ATOM     15  C   UNL     1      -9.399 -10.857  19.037  0.00  0.00    +0.116 C 
BRANCH  15  16
ATOM     16  C   UNL     1     -10.122  -9.815  18.224  0.00  0.00    -0.033 A 
ATOM     18  C   UNL     1      -9.398  -8.838  17.540  0.00  0.00    +0.007 A 
ATOM     19  C   UNL     1     -11.515  -9.827  18.155  0.00  0.00    +0.007 A 
ATOM     20  C   UNL     1     -10.067  -7.873  16.788  0.00  0.00    +0.023 A 
ATOM     21  C   UNL     1     -12.184  -8.862  17.402  0.00  0.00    +0.023 A 
ATOM     22  C   UNL     1     -11.461  -7.885  16.719  0.00  0.00    +0.029 A 
BRANCH  22   8
ATOM      8  N   UNL     1     -12.137  -6.909  15.958  0.00  0.00    -0.336 N 
ATOM     26  C   UNL     1     -11.395  -5.887  15.248  0.00  0.00    +0.129 C 
ATOM     27  C   UNL     1     -13.584  -6.909  15.885  0.00  0.00    +0.129 C 
ENDBRANCH  22   8
ENDBRANCH  15  16
ENDBRANCH   6  15
ENDBRANCH  11   6
BRANCH  12   3
ATOM      3  O   UNL     1      -3.783 -11.979  16.742  0.00  0.00    -0.442 OA
BRANCH   3  17
ATOM      4  O   UNL     1      -2.487 -10.286  15.914  0.00  0.00    -0.226 OA
ATOM      7  N   UNL     1      -3.995 -11.455  14.558  0.00  0.00    -0.251 N 
ATOM     17  C   UNL     1      -3.338 -11.148  15.735  0.00  0.00    +0.405 C 
ATOM     33  H   UNL     1      -4.676 -12.209  14.607  0.00  0.00    +0.158 HD
BRANCH   7  23
ATOM     23  C   UNL     1      -3.840 -10.848  13.291  0.00  0.00    +0.037 A 
ATOM     24  C   UNL     1      -2.605 -10.891  12.644  0.00  0.00    +0.027 A 
ATOM     25  C   UNL     1      -4.920 -10.204  12.689  0.00  0.00    +0.027 A 
ATOM     28  C   UNL     1      -2.451 -10.293  11.394  0.00  0.00    +0.047 A 
ATOM     29  C   UNL     1      -4.767  -9.606  11.438  0.00  0.00    +0.047 A 
ATOM     30  C   UNL     1      -3.532  -9.650  10.790  0.00  0.00    +0.120 A 
BRANCH  30   5
ATOM      5  O   UNL     1      -3.384  -9.069   9.569  0.00  0.00    -0.495 OA
ATOM     31  C   UNL     1      -4.525  -9.051   8.715  0.00  0.00    +0.277 C 
ENDBRANCH  30   5
ENDBRANCH   7  23
ENDBRANCH   3  17
ENDBRANCH  12   3
TORSDOF 8
ENDMDL
MODEL 3
REMARK VINA RESULT:      -6.7     27.741     30.245
REMARK  Name = 11867446
REMARK  11 active torsions:
REMARK  status: ('A' for Active; 'I' for Inactive)
REMARK    1  A    between atoms: O_3  and  C_12
REMARK    2  A    between atoms: O_3  and  C_17
REMARK    3  A    between atoms: O_5  and  C_30
REMARK    4  A    between atoms: O_5  and  C_31
REMARK    5  A    between atoms: N_6  and  C_11
REMARK    6  A    between atoms: N_6  and  C_15
REMARK    7  A    between atoms: N_7  and  C_23
REMARK    8  A    between atoms: N_8  and  C_22
REMARK    9  A    between atoms: N_8  and  C_26
REMARK   10  A    between atoms: N_8  and  C_27
REMARK   11  A    between atoms: C_15  and  C_16
REMARK                            x       y       z     vdW  Elec       q    Type
REMARK                         _______ _______ _______ _____ _____    ______ ____
ROOT
ATOM      1  O   UNL     1      -2.926 -10.353  16.565  0.00  0.00    -0.369 OA
ATOM      2  O   UNL     1      -4.335 -12.849  15.505  0.00  0.00    -0.369 OA
ATOM      9  C   UNL     1      -4.119 -11.552  14.907  0.00  0.00    +0.170 C 
ATOM     10  C   UNL     1      -4.246 -10.531  16.020  0.00  0.00    +0.191 C 
ATOM     11  C   UNL     1      -2.682 -11.425  14.451  0.00  0.00    +0.111 C 
ATOM     12  C   UNL     1      -5.163 -11.226  16.997  0.00  0.00    +0.235 C 
ATOM     13  C   UNL     1      -1.977 -11.055  15.748  0.00  0.00    +0.181 C 
ATOM     14  C   UNL     1      -4.726 -12.668  16.874  0.00  0.00    +0.207 C 
ENDROOT
BRANCH  11   6
ATOM      6  N   UNL     1      -2.522 -10.351  13.472  0.00  0.00    -0.305 NA
ATOM     32  H   UNL     1      -1.904  -9.634  13.855  0.00  0.00    +0.123 HD
BRANCH   6  15
ATOM     15  C   UNL     1      -1.933 -10.856  12.242  0.00  0.00    +0.116 C 
BRANCH  15  16
ATOM     16  C   UNL     1      -2.855 -10.677  11.065  0.00  0.00    -0.033 A 
ATOM     18  C   UNL     1      -3.001  -9.420  10.478  0.00  0.00    +0.007 A 
ATOM     19  C   UNL     1      -3.563 -11.769  10.560  0.00  0.00    +0.007 A 
ATOM     20  C   UNL     1      -3.855  -9.253   9.389  0.00  0.00    +0.023 A 
ATOM     21  C   UNL     1      -4.416 -11.602   9.470  0.00  0.00    +0.023 A 
ATOM     22  C   UNL     1      -4.563 -10.345   8.884  0.00  0.00    +0.029 A 
BRANCH  22   8
ATOM      8  N   UNL     1      -5.426 -10.176   7.782  0.00  0.00    -0.336 N 
ATOM     26  C   UNL     1      -5.157 -10.851   6.528  0.00  0.00    +0.129 C 
ATOM     27  C   UNL     1      -6.587  -9.316   7.884  0.00  0.00    +0.129 C 
ENDBRANCH  22   8
ENDBRANCH  15  16
ENDBRANCH   6  15
ENDBRANCH  11   6
BRANCH  12   3
ATOM      3  O   UNL     1      -5.045 -10.746  18.318  0.00  0.00    -0.442 OA
BRANCH   3  17
ATOM      4  O   UNL     1      -6.257 -10.375  20.221  0.00  0.00    -0.226 OA
ATOM      7  N   UNL     1      -7.278 -10.492  18.117  0.00  0.00    -0.251 N 
ATOM     17  C   UNL     1      -6.219 -10.521  19.006  0.00  0.00    +0.405 C 
ATOM     33  H   UNL     1      -7.045 -10.635  17.137  0.00  0.00    +0.158 HD
BRANCH   7  23
ATOM     23  C   UNL     1      -8.647 -10.290  18.402  0.00  0.00    +0.037 A 
ATOM     24  C   UNL     1      -9.373  -9.335  17.689  0.00  0.00    +0.027 A 
ATOM     25  C   UNL     1      -9.273 -11.044  19.394  0.00  0.00    +0.027 A 
ATOM     28  C   UNL     1     -10.724  -9.135  17.969  0.00  0.00    +0.047 A 
ATOM     29  C   UNL     1     -10.624 -10.844  19.674  0.00  0.00    +0.047 A 
ATOM     30  C   UNL     1     -11.351  -9.890  18.962  0.00  0.00    +0.120 A 
BRANCH  30   5
ATOM      5  O   UNL     1     -12.670  -9.697  19.233  0.00  0.00    -0.495 OA
ATOM     31  C   UNL     1     -13.059  -9.705  20.605  0.00  0.00    +0.277 C 
ENDBRANCH  30   5
ENDBRANCH   7  23
ENDBRANCH   3  17
ENDBRANCH  12   3
TORSDOF 8
ENDMDL
MODEL 4
REMARK VINA RESULT:      -6.6     28.073     30.910
REMARK  Name = 11867446
REMARK  11 active torsions:
REMARK  status: ('A' for Active; 'I' for Inactive)
REMARK    1  A    between atoms: O_3  and  C_12
REMARK    2  A    between atoms: O_3  and  C_17
REMARK    3  A    between atoms: O_5  and  C_30
REMARK    4  A    between atoms: O_5  and  C_31
REMARK    5  A    between atoms: N_6  and  C_11
REMARK    6  A    between atoms: N_6  and  C_15
REMARK    7  A    between atoms: N_7  and  C_23
REMARK    8  A    between atoms: N_8  and  C_22
REMARK    9  A    between atoms: N_8  and  C_26
REMARK   10  A    between atoms: N_8  and  C_27
REMARK   11  A    between atoms: C_15  and  C_16
REMARK                            x       y       z     vdW  Elec       q    Type
REMARK                         _______ _______ _______ _____ _____    ______ ____
ROOT
ATOM      1  O   UNL     1      -3.596 -12.387  12.825  0.00  0.00    -0.369 OA
ATOM      2  O   UNL     1      -1.533 -10.182  13.290  0.00  0.00    -0.369 OA
ATOM      9  C   UNL     1      -2.701 -10.566  14.047  0.00  0.00    +0.170 C 
ATOM     10  C   UNL     1      -3.759 -10.974  13.040  0.00  0.00    +0.191 C 
ATOM     11  C   UNL     1      -2.422 -11.834  14.823  0.00  0.00    +0.111 C 
ATOM     12  C   UNL     1      -3.371 -10.175  11.818  0.00  0.00    +0.235 C 
ATOM     13  C   UNL     1      -2.636 -12.901  13.760  0.00  0.00    +0.181 C 
ATOM     14  C   UNL     1      -1.861 -10.191  11.893  0.00  0.00    +0.207 C 
ENDROOT
BRANCH  11   6
ATOM      6  N   UNL     1      -3.378 -12.018  15.914  0.00  0.00    -0.305 NA
ATOM     32  H   UNL     1      -3.059 -12.775  16.519  0.00  0.00    +0.123 HD
BRANCH   6  15
ATOM     15  C   UNL     1      -3.488 -10.808  16.713  0.00  0.00    +0.116 C 
BRANCH  15  16
ATOM     16  C   UNL     1      -4.924 -10.460  17.008  0.00  0.00    -0.033 A 
ATOM     18  C   UNL     1      -5.462 -10.727  18.266  0.00  0.00    +0.007 A 
ATOM     19  C   UNL     1      -5.715  -9.870  16.021  0.00  0.00    +0.007 A 
ATOM     20  C   UNL     1      -6.791 -10.405  18.539  0.00  0.00    +0.023 A 
ATOM     21  C   UNL     1      -7.045  -9.548  16.294  0.00  0.00    +0.023 A 
ATOM     22  C   UNL     1      -7.582  -9.816  17.552  0.00  0.00    +0.029 A 
BRANCH  22   8
ATOM      8  N   UNL     1      -8.927  -9.490  17.829  0.00  0.00    -0.336 N 
ATOM     26  C   UNL     1      -9.515  -8.280  17.291  0.00  0.00    +0.129 C 
ATOM     27  C   UNL     1      -9.734 -10.356  18.664  0.00  0.00    +0.129 C 
ENDBRANCH  22   8
ENDBRANCH  15  16
ENDBRANCH   6  15
ENDBRANCH  11   6
BRANCH  12   3
ATOM      3  O   UNL     1      -3.849 -10.726  10.612  0.00  0.00    -0.442 OA
BRANCH   3  17
ATOM      4  O   UNL     1      -3.551  -8.865   9.316  0.00  0.00    -0.226 OA
ATOM      7  N   UNL     1      -5.442 -10.227   9.095  0.00  0.00    -0.251 N 
ATOM     17  C   UNL     1      -4.228  -9.837   9.628  0.00  0.00    +0.405 C 
ATOM     33  H   UNL     1      -5.854 -11.070   9.487  0.00  0.00    +0.158 HD
BRANCH   7  23
ATOM     23  C   UNL     1      -6.184  -9.599   8.069  0.00  0.00    +0.037 A 
ATOM     24  C   UNL     1      -7.147  -8.643   8.391  0.00  0.00    +0.027 A 
ATOM     25  C   UNL     1      -5.953  -9.935   6.735  0.00  0.00    +0.027 A 
ATOM     28  C   UNL     1      -7.879  -8.023   7.379  0.00  0.00    +0.047 A 
ATOM     29  C   UNL     1      -6.685  -9.314   5.723  0.00  0.00    +0.047 A 
ATOM     30  C   UNL     1      -7.649  -8.358   6.045  0.00  0.00    +0.120 A 
BRANCH  30   5
ATOM      5  O   UNL     1      -8.361  -7.751   5.057  0.00  0.00    -0.495 OA
ATOM     31  C   UNL     1      -9.699  -7.364   5.365  0.00  0.00    +0.277 C 
ENDBRANCH  30   5
ENDBRANCH   7  23
ENDBRANCH   3  17
ENDBRANCH  12   3
TORSDOF 8
ENDMDL
MODEL 5
REMARK VINA RESULT:      -6.5     27.140     31.260
REMARK  Name = 11867446
REMARK  11 active torsions:
REMARK  status: ('A' for Active; 'I' for Inactive)
REMARK    1  A    between atoms: O_3  and  C_12
REMARK    2  A    between atoms: O_3  and  C_17
REMARK    3  A    between atoms: O_5  and  C_30
REMARK    4  A    between atoms: O_5  and  C_31
REMARK    5  A    between atoms: N_6  and  C_11
REMARK    6  A    between atoms: N_6  and  C_15
REMARK    7  A    between atoms: N_7  and  C_23
REMARK    8  A    between atoms: N_8  and  C_22
REMARK    9  A    between atoms: N_8  and  C_26
REMARK   10  A    between atoms: N_8  and  C_27
REMARK   11  A    between atoms: C_15  and  C_16
REMARK                            x       y       z     vdW  Elec       q    Type
REMARK                         _______ _______ _______ _____ _____    ______ ____
ROOT
ATOM      1  O   UNL     1     -15.807   3.876  31.636  0.00  0.00    -0.369 OA
ATOM      2  O   UNL     1     -14.294   3.064  34.163  0.00  0.00    -0.369 OA
ATOM      9  C   UNL     1     -13.939   3.963  33.090  0.00  0.00    +0.170 C 
ATOM     10  C   UNL     1     -14.479   3.352  31.812  0.00  0.00    +0.191 C 
ATOM     11  C   UNL     1     -14.703   5.261  33.229  0.00  0.00    +0.111 C 
ATOM     12  C   UNL     1     -14.500   1.877  32.139  0.00  0.00    +0.235 C 
ATOM     13  C   UNL     1     -16.047   4.898  32.615  0.00  0.00    +0.181 C 
ATOM     14  C   UNL     1     -14.883   1.881  33.602  0.00  0.00    +0.207 C 
ENDROOT
BRANCH  11   6
ATOM      6  N   UNL     1     -14.078   6.337  32.461  0.00  0.00    -0.305 NA
ATOM     32  H   UNL     1     -14.518   6.395  31.542  0.00  0.00    +0.123 HD
BRANCH   6  15
ATOM     15  C   UNL     1     -14.245   7.616  33.133  0.00  0.00    +0.116 C 
BRANCH  15  16
ATOM     16  C   UNL     1     -12.936   8.347  33.281  0.00  0.00    -0.033 A 
ATOM     18  C   UNL     1     -12.090   8.492  32.182  0.00  0.00    +0.007 A 
ATOM     19  C   UNL     1     -12.571   8.878  34.518  0.00  0.00    +0.007 A 
ATOM     20  C   UNL     1     -10.878   9.168  32.319  0.00  0.00    +0.023 A 
ATOM     21  C   UNL     1     -11.359   9.555  34.655  0.00  0.00    +0.023 A 
ATOM     22  C   UNL     1     -10.513   9.699  33.557  0.00  0.00    +0.029 A 
BRANCH  22   8
ATOM      8  N   UNL     1      -9.287  10.383  33.695  0.00  0.00    -0.336 N 
ATOM     26  C   UNL     1      -8.888  11.380  32.723  0.00  0.00    +0.129 C 
ATOM     27  C   UNL     1      -8.404  10.088  34.806  0.00  0.00    +0.129 C 
ENDBRANCH  22   8
ENDBRANCH  15  16
ENDBRANCH   6  15
ENDBRANCH  11   6
BRANCH  12   3
ATOM      3  O   UNL     1     -15.410   1.140  31.354  0.00  0.00    -0.442 OA
BRANCH   3  17
ATOM      4  O   UNL     1     -14.177   0.512  29.534  0.00  0.00    -0.226 OA
ATOM      7  N   UNL     1     -16.160   1.736  29.312  0.00  0.00    -0.251 N 
ATOM     17  C   UNL     1     -15.157   1.078  30.000  0.00  0.00    +0.405 C 
ATOM     33  H   UNL     1     -16.898   2.147  29.878  0.00  0.00    +0.158 HD
BRANCH   7  23
ATOM     23  C   UNL     1     -16.287   1.909  27.915  0.00  0.00    +0.037 A 
ATOM     24  C   UNL     1     -15.997   3.145  27.336  0.00  0.00    +0.027 A 
ATOM     25  C   UNL     1     -16.702   0.845  27.115  0.00  0.00    +0.027 A 
ATOM     28  C   UNL     1     -16.122   3.316  25.958  0.00  0.00    +0.047 A 
ATOM     29  C   UNL     1     -16.826   1.015  25.736  0.00  0.00    +0.047 A 
ATOM     30  C   UNL     1     -16.537   2.252  25.157  0.00  0.00    +0.120 A 
BRANCH  30   5
ATOM      5  O   UNL     1     -16.656   2.417  23.812  0.00  0.00    -0.495 OA
ATOM     31  C   UNL     1     -16.236   3.669  23.273  0.00  0.00    +0.277 C 
ENDBRANCH  30   5
ENDBRANCH   7  23
ENDBRANCH   3  17
ENDBRANCH  12   3
TORSDOF 8
ENDMDL
MODEL 6
REMARK VINA RESULT:      -6.5     27.875     30.488
REMARK  Name = 11867446
REMARK  11 active torsions:
REMARK  status: ('A' for Active; 'I' for Inactive)
REMARK    1  A    between atoms: O_3  and  C_12
REMARK    2  A    between atoms: O_3  and  C_17
REMARK    3  A    between atoms: O_5  and  C_30
REMARK    4  A    between atoms: O_5  and  C_31
REMARK    5  A    between atoms: N_6  and  C_11
REMARK    6  A    between atoms: N_6  and  C_15
REMARK    7  A    between atoms: N_7  and  C_23
REMARK    8  A    between atoms: N_8  and  C_22
REMARK    9  A    between atoms: N_8  and  C_26
REMARK   10  A    between atoms: N_8  and  C_27
REMARK   11  A    between atoms: C_15  and  C_16
REMARK                            x       y       z     vdW  Elec       q    Type
REMARK                         _______ _______ _______ _____ _____    ______ ____
ROOT
ATOM      1  O   UNL     1      -2.915 -12.598  12.922  0.00  0.00    -0.369 OA
ATOM      2  O   UNL     1      -1.443  -9.940  13.239  0.00  0.00    -0.369 OA
ATOM      9  C   UNL     1      -2.546 -10.509  13.976  0.00  0.00    +0.170 C 
ATOM     10  C   UNL     1      -3.408 -11.247  12.971  0.00  0.00    +0.191 C 
ATOM     11  C   UNL     1      -2.044 -11.597  14.901  0.00  0.00    +0.111 C 
ATOM     12  C   UNL     1      -3.124 -10.503  11.689  0.00  0.00    +0.235 C 
ATOM     13  C   UNL     1      -1.935 -12.782  13.954  0.00  0.00    +0.181 C 
ATOM     14  C   UNL     1      -1.658 -10.161  11.837  0.00  0.00    +0.207 C 
ENDROOT
BRANCH  11   6
ATOM      6  N   UNL     1      -3.011 -11.890  15.958  0.00  0.00    -0.305 NA
ATOM     32  H   UNL     1      -2.665 -12.664  16.527  0.00  0.00    +0.123 HD
BRANCH   6  15
ATOM     15  C   UNL     1      -3.199 -10.735  16.821  0.00  0.00    +0.116 C 
BRANCH  15  16
ATOM     16  C   UNL     1      -4.658 -10.447  17.062  0.00  0.00    -0.033 A 
ATOM     18  C   UNL     1      -5.445  -9.927  16.035  0.00  0.00    +0.007 A 
ATOM     19  C   UNL     1      -5.221 -10.701  18.313  0.00  0.00    +0.007 A 
ATOM     20  C   UNL     1      -6.795  -9.661  16.257  0.00  0.00    +0.023 A 
ATOM     21  C   UNL     1      -6.573 -10.434  18.535  0.00  0.00    +0.023 A 
ATOM     22  C   UNL     1      -7.359  -9.914  17.509  0.00  0.00    +0.029 A 
BRANCH  22   8
ATOM      8  N   UNL     1      -8.725  -9.645  17.734  0.00  0.00    -0.336 N 
ATOM     26  C   UNL     1      -9.318  -8.411  17.257  0.00  0.00    +0.129 C 
ATOM     27  C   UNL     1      -9.550 -10.592  18.455  0.00  0.00    +0.129 C 
ENDBRANCH  22   8
ENDBRANCH  15  16
ENDBRANCH   6  15
ENDBRANCH  11   6
BRANCH  12   3
ATOM      3  O   UNL     1      -3.376 -11.264  10.529  0.00  0.00    -0.442 OA
BRANCH   3  17
ATOM      4  O   UNL     1      -4.845 -11.553   8.801  0.00  0.00    -0.226 OA
ATOM      7  N   UNL     1      -5.163  -9.892  10.419  0.00  0.00    -0.251 N 
ATOM     17  C   UNL     1      -4.512 -10.950   9.813  0.00  0.00    +0.405 C 
ATOM     33  H   UNL     1      -4.729  -9.520  11.261  0.00  0.00    +0.158 HD
BRANCH   7  23
ATOM     23  C   UNL     1      -6.360  -9.260  10.014  0.00  0.00    +0.037 A 
ATOM     24  C   UNL     1      -6.318  -8.216   9.089  0.00  0.00    +0.027 A 
ATOM     25  C   UNL     1      -7.582  -9.678  10.538  0.00  0.00    +0.027 A 
ATOM     28  C   UNL     1      -7.498  -7.592   8.688  0.00  0.00    +0.047 A 
ATOM     29  C   UNL     1      -8.763  -9.054  10.137  0.00  0.00    +0.047 A 
ATOM     30  C   UNL     1      -8.722  -8.010   9.212  0.00  0.00    +0.120 A 
BRANCH  30   5
ATOM      5  O   UNL     1      -9.875  -7.403   8.819  0.00  0.00    -0.495 OA
ATOM     31  C   UNL     1      -9.789  -6.032   8.437  0.00  0.00    +0.277 C 
ENDBRANCH  30   5
ENDBRANCH   7  23
ENDBRANCH   3  17
ENDBRANCH  12   3
TORSDOF 8
ENDMDL
MODEL 7
REMARK VINA RESULT:      -6.4      2.375      9.009
REMARK  Name = 11867446
REMARK  11 active torsions:
REMARK  status: ('A' for Active; 'I' for Inactive)
REMARK    1  A    between atoms: O_3  and  C_12
REMARK    2  A    between atoms: O_3  and  C_17
REMARK    3  A    between atoms: O_5  and  C_30
REMARK    4  A    between atoms: O_5  and  C_31
REMARK    5  A    between atoms: N_6  and  C_11
REMARK    6  A    between atoms: N_6  and  C_15
REMARK    7  A    between atoms: N_7  and  C_23
REMARK    8  A    between atoms: N_8  and  C_22
REMARK    9  A    between atoms: N_8  and  C_26
REMARK   10  A    between atoms: N_8  and  C_27
REMARK   11  A    between atoms: C_15  and  C_16
REMARK                            x       y       z     vdW  Elec       q    Type
REMARK                         _______ _______ _______ _____ _____    ______ ____
ROOT
ATOM      1  O   UNL     1      13.432   9.396  20.881  0.00  0.00    -0.369 OA
ATOM      2  O   UNL     1      11.578   6.994  20.525  0.00  0.00    -0.369 OA
ATOM      9  C   UNL     1      12.056   7.657  21.715  0.00  0.00    +0.170 C 
ATOM     10  C   UNL     1      13.488   8.071  21.439  0.00  0.00    +0.191 C 
ATOM     11  C   UNL     1      11.324   8.968  21.906  0.00  0.00    +0.111 C 
ATOM     12  C   UNL     1      13.929   7.053  20.414  0.00  0.00    +0.235 C 
ATOM     13  C   UNL     1      12.087   9.889  20.965  0.00  0.00    +0.181 C 
ATOM     14  C   UNL     1      12.669   6.849  19.604  0.00  0.00    +0.207 C 
ENDROOT
BRANCH  11   6
ATOM      6  N   UNL     1      11.441   9.452  23.281  0.00  0.00    -0.305 NA
ATOM     32  H   UNL     1      12.420   9.656  23.485  0.00  0.00    +0.123 HD
BRANCH   6  15
ATOM     15  C   UNL     1      10.670  10.671  23.467  0.00  0.00    +0.116 C 
BRANCH  15  16
ATOM     16  C   UNL     1      11.414  11.684  24.296  0.00  0.00    -0.033 A 
ATOM     18  C   UNL     1      12.803  11.612  24.405  0.00  0.00    +0.007 A 
ATOM     19  C   UNL     1      10.715  12.696  24.955  0.00  0.00    +0.007 A 
ATOM     20  C   UNL     1      13.493  12.549  25.173  0.00  0.00    +0.023 A 
ATOM     21  C   UNL     1      11.405  13.634  25.723  0.00  0.00    +0.023 A 
ATOM     22  C   UNL     1      12.793  13.561  25.832  0.00  0.00    +0.029 A 
BRANCH  22   8
ATOM      8  N   UNL     1      13.490  14.509  26.609  0.00  0.00    -0.336 N 
ATOM     26  C   UNL     1      14.734  15.078  26.130  0.00  0.00    +0.129 C 
ATOM     27  C   UNL     1      12.979  14.918  27.901  0.00  0.00    +0.129 C 
ENDBRANCH  22   8
ENDBRANCH  15  16
ENDBRANCH   6  15
ENDBRANCH  11   6
BRANCH  12   3
ATOM      3  O   UNL     1      15.008   7.488  19.617  0.00  0.00    -0.442 OA
BRANCH   3  17
ATOM      4  O   UNL     1      16.305   5.736  18.927  0.00  0.00    -0.226 OA
ATOM      7  N   UNL     1      17.036   7.234  20.571  0.00  0.00    -0.251 N 
ATOM     17  C   UNL     1      16.151   6.718  19.642  0.00  0.00    +0.405 C 
ATOM     33  H   UNL     1      16.728   8.063  21.073  0.00  0.00    +0.158 HD
BRANCH   7  23
ATOM     23  C   UNL     1      18.320   6.751  20.911  0.00  0.00    +0.037 A 
ATOM     24  C   UNL     1      19.002   7.291  22.002  0.00  0.00    +0.027 A 
ATOM     25  C   UNL     1      18.905   5.734  20.158  0.00  0.00    +0.027 A 
ATOM     28  C   UNL     1      20.268   6.815  22.339  0.00  0.00    +0.047 A 
ATOM     29  C   UNL     1      20.172   5.257  20.495  0.00  0.00    +0.047 A 
ATOM     30  C   UNL     1      20.854   5.797  21.585  0.00  0.00    +0.120 A 
BRANCH  30   5
ATOM      5  O   UNL     1      22.088   5.330  21.916  0.00  0.00    -0.495 OA
ATOM     31  C   UNL     1      22.870   6.130  22.800  0.00  0.00    +0.277 C 
ENDBRANCH  30   5
ENDBRANCH   7  23
ENDBRANCH   3  17
ENDBRANCH  12   3
TORSDOF 8
ENDMDL
MODEL 8
REMARK VINA RESULT:      -6.4      4.981      7.172
REMARK  Name = 11867446
REMARK  11 active torsions:
REMARK  status: ('A' for Active; 'I' for Inactive)
REMARK    1  A    between atoms: O_3  and  C_12
REMARK    2  A    between atoms: O_3  and  C_17
REMARK    3  A    between atoms: O_5  and  C_30
REMARK    4  A    between atoms: O_5  and  C_31
REMARK    5  A    between atoms: N_6  and  C_11
REMARK    6  A    between atoms: N_6  and  C_15
REMARK    7  A    between atoms: N_7  and  C_23
REMARK    8  A    between atoms: N_8  and  C_22
REMARK    9  A    between atoms: N_8  and  C_26
REMARK   10  A    between atoms: N_8  and  C_27
REMARK   11  A    between atoms: C_15  and  C_16
REMARK                            x       y       z     vdW  Elec       q    Type
REMARK                         _______ _______ _______ _____ _____    ______ ____
ROOT
ATOM      1  O   UNL     1      13.870   9.483  18.269  0.00  0.00    -0.369 OA
ATOM      2  O   UNL     1      11.486   7.802  17.358  0.00  0.00    -0.369 OA
ATOM      9  C   UNL     1      12.830   7.424  17.729  0.00  0.00    +0.170 C 
ATOM     10  C   UNL     1      13.748   8.514  17.212  0.00  0.00    +0.191 C 
ATOM     11  C   UNL     1      12.989   7.489  19.232  0.00  0.00    +0.111 C 
ATOM     12  C   UNL     1      12.974   9.063  16.038  0.00  0.00    +0.235 C 
ATOM     13  C   UNL     1      13.238   8.974  19.453  0.00  0.00    +0.181 C 
ATOM     14  C   UNL     1      11.546   8.970  16.526  0.00  0.00    +0.207 C 
ENDROOT
BRANCH  11   6
ATOM      6  N   UNL     1      14.146   6.717  19.683  0.00  0.00    -0.305 NA
ATOM     32  H   UNL     1      14.769   6.549  18.893  0.00  0.00    +0.123 HD
BRANCH   6  15
ATOM     15  C   UNL     1      14.885   7.443  20.704  0.00  0.00    +0.116 C 
BRANCH  15  16
ATOM     16  C   UNL     1      16.357   7.127  20.661  0.00  0.00    -0.033 A 
ATOM     18  C   UNL     1      17.235   7.772  21.532  0.00  0.00    +0.007 A 
ATOM     19  C   UNL     1      16.843   6.190  19.748  0.00  0.00    +0.007 A 
ATOM     20  C   UNL     1      18.598   7.480  21.491  0.00  0.00    +0.023 A 
ATOM     21  C   UNL     1      18.206   5.898  19.707  0.00  0.00    +0.023 A 
ATOM     22  C   UNL     1      19.083   6.543  20.578  0.00  0.00    +0.029 A 
BRANCH  22   8
ATOM      8  N   UNL     1      20.462   6.248  20.537  0.00  0.00    -0.336 N 
ATOM     26  C   UNL     1      20.921   4.875  20.584  0.00  0.00    +0.129 C 
ATOM     27  C   UNL     1      21.439   7.316  20.461  0.00  0.00    +0.129 C 
ENDBRANCH  22   8
ENDBRANCH  15  16
ENDBRANCH   6  15
ENDBRANCH  11   6
BRANCH  12   3
ATOM      3  O   UNL     1      13.333  10.383  15.695  0.00  0.00    -0.442 OA
BRANCH   3  17
ATOM      4  O   UNL     1      15.205   9.913  14.469  0.00  0.00    -0.226 OA
ATOM      7  N   UNL     1      15.165  11.655  16.032  0.00  0.00    -0.251 N 
ATOM     17  C   UNL     1      14.642  10.594  15.317  0.00  0.00    +0.405 C 
ATOM     33  H   UNL     1      14.538  12.100  16.698  0.00  0.00    +0.158 HD
BRANCH   7  23
ATOM     23  C   UNL     1      16.466  12.200  15.954  0.00  0.00    +0.037 A 
ATOM     24  C   UNL     1      17.109  12.296  14.719  0.00  0.00    +0.027 A 
ATOM     25  C   UNL     1      17.108  12.642  17.110  0.00  0.00    +0.027 A 
ATOM     28  C   UNL     1      18.393  12.834  14.642  0.00  0.00    +0.047 A 
ATOM     29  C   UNL     1      18.392  13.181  17.033  0.00  0.00    +0.047 A 
ATOM     30  C   UNL     1      19.035  13.277  15.798  0.00  0.00    +0.120 A 
BRANCH  30   5
ATOM      5  O   UNL     1      20.287  13.804  15.722  0.00  0.00    -0.495 OA
ATOM     31  C   UNL     1      20.752  14.538  16.853  0.00  0.00    +0.277 C 
ENDBRANCH  30   5
ENDBRANCH   7  23
ENDBRANCH   3  17
ENDBRANCH  12   3
TORSDOF 8
ENDMDL
MODEL 9
REMARK VINA RESULT:      -6.3     28.000     31.562
REMARK  Name = 11867446
REMARK  11 active torsions:
REMARK  status: ('A' for Active; 'I' for Inactive)
REMARK    1  A    between atoms: O_3  and  C_12
REMARK    2  A    between atoms: O_3  and  C_17
REMARK    3  A    between atoms: O_5  and  C_30
REMARK    4  A    between atoms: O_5  and  C_31
REMARK    5  A    between atoms: N_6  and  C_11
REMARK    6  A    between atoms: N_6  and  C_15
REMARK    7  A    between atoms: N_7  and  C_23
REMARK    8  A    between atoms: N_8  and  C_22
REMARK    9  A    between atoms: N_8  and  C_26
REMARK   10  A    between atoms: N_8  and  C_27
REMARK   11  A    between atoms: C_15  and  C_16
REMARK                            x       y       z     vdW  Elec       q    Type
REMARK                         _______ _______ _______ _____ _____    ______ ____
ROOT
ATOM      1  O   UNL     1      -8.743  -7.998   8.868  0.00  0.00    -0.369 OA
ATOM      2  O   UNL     1      -9.458  -7.126   6.028  0.00  0.00    -0.369 OA
ATOM      9  C   UNL     1      -8.183  -7.235   6.697  0.00  0.00    +0.170 C 
ATOM     10  C   UNL     1      -8.405  -6.808   8.134  0.00  0.00    +0.191 C 
ATOM     11  C   UNL     1      -7.776  -8.689   6.803  0.00  0.00    +0.111 C 
ATOM     12  C   UNL     1      -9.583  -5.871   8.017  0.00  0.00    +0.235 C 
ATOM     13  C   UNL     1      -8.567  -9.143   8.021  0.00  0.00    +0.181 C 
ATOM     14  C   UNL     1     -10.402  -6.524   6.926  0.00  0.00    +0.207 C 
ENDROOT
BRANCH  11   6
ATOM      6  N   UNL     1      -6.343  -8.829   7.057  0.00  0.00    -0.305 NA
ATOM     32  H   UNL     1      -6.060  -8.155   7.769  0.00  0.00    +0.123 HD
BRANCH   6  15
ATOM     15  C   UNL     1      -6.032 -10.165   7.540  0.00  0.00    +0.116 C 
BRANCH  15  16
ATOM     16  C   UNL     1      -4.981 -10.141   8.619  0.00  0.00    -0.033 A 
ATOM     18  C   UNL     1      -4.577 -11.330   9.225  0.00  0.00    +0.007 A 
ATOM     19  C   UNL     1      -4.413  -8.928   9.011  0.00  0.00    +0.007 A 
ATOM     20  C   UNL     1      -3.604 -11.307  10.224  0.00  0.00    +0.023 A 
ATOM     21  C   UNL     1      -3.439  -8.906  10.010  0.00  0.00    +0.023 A 
ATOM     22  C   UNL     1      -3.035 -10.095  10.616  0.00  0.00    +0.029 A 
BRANCH  22   8
ATOM      8  N   UNL     1      -2.051 -10.072  11.627  0.00  0.00    -0.336 N 
ATOM     26  C   UNL     1      -0.828  -9.316  11.444  0.00  0.00    +0.129 C 
ATOM     27  C   UNL     1      -2.244 -10.815  12.855  0.00  0.00    +0.129 C 
ENDBRANCH  22   8
ENDBRANCH  15  16
ENDBRANCH   6  15
ENDBRANCH  11   6
BRANCH  12   3
ATOM      3  O   UNL     1     -10.312  -5.732   9.216  0.00  0.00    -0.442 OA
BRANCH   3  17
ATOM      4  O   UNL     1     -10.517  -3.454   9.252  0.00  0.00    -0.226 OA
ATOM      7  N   UNL     1     -12.337  -4.860   9.693  0.00  0.00    -0.251 N 
ATOM     17  C   UNL     1     -11.024  -4.562   9.379  0.00  0.00    +0.405 C 
ATOM     33  H   UNL     1     -12.571  -5.848   9.754  0.00  0.00    +0.158 HD
BRANCH   7  23
ATOM     23  C   UNL     1     -13.398  -3.960   9.941  0.00  0.00    +0.037 A 
ATOM     24  C   UNL     1     -13.833  -3.738  11.248  0.00  0.00    +0.027 A 
ATOM     25  C   UNL     1     -14.011  -3.294   8.881  0.00  0.00    +0.027 A 
ATOM     28  C   UNL     1     -14.879  -2.850  11.494  0.00  0.00    +0.047 A 
ATOM     29  C   UNL     1     -15.057  -2.404   9.126  0.00  0.00    +0.047 A 
ATOM     30  C   UNL     1     -15.492  -2.183  10.433  0.00  0.00    +0.120 A 
BRANCH  30   5
ATOM      5  O   UNL     1     -16.511  -1.314  10.673  0.00  0.00    -0.495 OA
ATOM     31  C   UNL     1     -16.505  -0.088   9.943  0.00  0.00    +0.277 C 
ENDBRANCH  30   5
ENDBRANCH   7  23
ENDBRANCH   3  17
ENDBRANCH  12   3
TORSDOF 8
ENDMDL
MODEL 10
REMARK VINA RESULT:      -6.3     28.302     30.230
REMARK  Name = 11867446
REMARK  11 active torsions:
REMARK  status: ('A' for Active; 'I' for Inactive)
REMARK    1  A    between atoms: O_3  and  C_12
REMARK    2  A    between atoms: O_3  and  C_17
REMARK    3  A    between atoms: O_5  and  C_30
REMARK    4  A    between atoms: O_5  and  C_31
REMARK    5  A    between atoms: N_6  and  C_11
REMARK    6  A    between atoms: N_6  and  C_15
REMARK    7  A    between atoms: N_7  and  C_23
REMARK    8  A    between atoms: N_8  and  C_22
REMARK    9  A    between atoms: N_8  and  C_26
REMARK   10  A    between atoms: N_8  and  C_27
REMARK   11  A    between atoms: C_15  and  C_16
REMARK                            x       y       z     vdW  Elec       q    Type
REMARK                         _______ _______ _______ _____ _____    ______ ____
ROOT
ATOM      1  O   UNL     1      -5.210  -9.801  16.605  0.00  0.00    -0.369 OA
ATOM      2  O   UNL     1      -5.387 -11.874  18.843  0.00  0.00    -0.369 OA
ATOM      9  C   UNL     1      -5.296 -12.027  17.410  0.00  0.00    +0.170 C 
ATOM     10  C   UNL     1      -6.112 -10.906  16.798  0.00  0.00    +0.191 C 
ATOM     11  C   UNL     1      -3.882 -11.749  16.949  0.00  0.00    +0.111 C 
ATOM     12  C   UNL     1      -7.127 -10.614  17.877  0.00  0.00    +0.235 C 
ATOM     13  C   UNL     1      -3.869 -10.229  16.887  0.00  0.00    +0.181 C 
ATOM     14  C   UNL     1      -6.320 -10.824  19.139  0.00  0.00    +0.207 C 
ENDROOT
BRANCH  11   6
ATOM      6  N   UNL     1      -3.632 -12.305  15.619  0.00  0.00    -0.305 NA
ATOM     32  H   UNL     1      -4.498 -12.290  15.080  0.00  0.00    +0.123 HD
BRANCH   6  15
ATOM     15  C   UNL     1      -2.635 -11.518  14.910  0.00  0.00    +0.116 C 
BRANCH  15  16
ATOM     16  C   UNL     1      -3.125 -11.085  13.553  0.00  0.00    -0.033 A 
ATOM     18  C   UNL     1      -2.279 -11.169  12.447  0.00  0.00    +0.007 A 
ATOM     19  C   UNL     1      -4.425 -10.601  13.403  0.00  0.00    +0.007 A 
ATOM     20  C   UNL     1      -2.732 -10.768  11.191  0.00  0.00    +0.023 A 
ATOM     21  C   UNL     1      -4.878 -10.201  12.145  0.00  0.00    +0.023 A 
ATOM     22  C   UNL     1      -4.032 -10.284  11.040  0.00  0.00    +0.029 A 
BRANCH  22   8
ATOM      8  N   UNL     1      -4.490  -9.878   9.769  0.00  0.00    -0.336 N 
ATOM     26  C   UNL     1      -4.506 -10.813   8.662  0.00  0.00    +0.129 C 
ATOM     27  C   UNL     1      -4.940  -8.518   9.551  0.00  0.00    +0.129 C 
ENDBRANCH  22   8
ENDBRANCH  15  16
ENDBRANCH   6  15
ENDBRANCH  11   6
BRANCH  12   3
ATOM      3  O   UNL     1      -7.669  -9.315  17.804  0.00  0.00    -0.442 OA
BRANCH   3  17
ATOM      4  O   UNL     1      -8.775  -9.711  15.842  0.00  0.00    -0.226 OA
ATOM      7  N   UNL     1      -9.590  -8.194  17.427  0.00  0.00    -0.251 N 
ATOM     17  C   UNL     1      -8.704  -9.121  16.913  0.00  0.00    +0.405 C 
ATOM     33  H   UNL     1      -9.359  -7.810  18.341  0.00  0.00    +0.158 HD
BRANCH   7  23
ATOM     23  C   UNL     1     -10.780  -7.709  16.840  0.00  0.00    +0.037 A 
ATOM     24  C   UNL     1     -11.957  -8.452  16.934  0.00  0.00    +0.027 A 
ATOM     25  C   UNL     1     -10.779  -6.488  16.167  0.00  0.00    +0.027 A 
ATOM     28  C   UNL     1     -13.132  -7.974  16.355  0.00  0.00    +0.047 A 
ATOM     29  C   UNL     1     -11.955  -6.009  15.589  0.00  0.00    +0.047 A 
ATOM     30  C   UNL     1     -13.132  -6.752  15.682  0.00  0.00    +0.120 A 
BRANCH  30   5
ATOM      5  O   UNL     1     -14.279  -6.284  15.120  0.00  0.00    -0.495 OA
ATOM     31  C   UNL     1     -14.153  -5.555  13.900  0.00  0.00    +0.277 C 
ENDBRANCH  30   5
ENDBRANCH   7  23
ENDBRANCH   3  17
ENDBRANCH  12   3
TORSDOF 8
ENDMDL
