MODEL 1
REMARK VINA RESULT:      -6.4      0.000      0.000
REMARK  Name = 25338363
REMARK  9 active torsions:
REMARK  status: ('A' for Active; 'I' for Inactive)
REMARK    1  A    between atoms: S_1  and  N_6
REMARK    2  A    between atoms: S_1  and  C_15
REMARK    3  A    between atoms: N_5  and  C_14
REMARK    4  A    between atoms: N_6  and  C_9
REMARK    5  A    between atoms: C_10  and  C_13
REMARK    6  A    between atoms: C_15  and  C_16
REMARK    7  A    between atoms: C_16  and  C_18
REMARK    8  A    between atoms: C_17  and  C_19
REMARK    9  A    between atoms: C_24  and  C_25
REMARK                            x       y       z     vdW  Elec       q    Type
REMARK                         _______ _______ _______ _____ _____    ______ ____
ROOT
ATOM      5  N   UNL     1      -4.212 -11.397  10.189  0.00  0.00    -0.293 NA
ATOM      9  C   UNL     1      -4.484  -9.366   9.074  0.00  0.00    +0.092 C 
ATOM     10  C   UNL     1      -3.156 -10.535  10.755  0.00  0.00    +0.147 C 
ATOM     11  C   UNL     1      -3.445  -9.140  10.169  0.00  0.00    +0.050 C 
ATOM     12  C   UNL     1      -4.482 -10.869   8.847  0.00  0.00    +0.105 C 
ATOM     14  C   UNL     1      -3.844 -12.808  10.153  0.00  0.00    +0.105 C 
ENDROOT
BRANCH  10  13
ATOM      2  O   UNL     1      -1.893 -10.490  12.846  0.00  0.00    -0.336 OA
ATOM      7  N   UNL     1      -4.115 -10.574  13.121  0.00  0.00    -0.190 NA
ATOM      8  N   UNL     1      -2.114 -10.500  14.229  0.00  0.00    -0.056 NA
ATOM     13  C   UNL     1      -3.122 -10.535  12.269  0.00  0.00    +0.245 A 
ATOM     17  C   UNL     1      -3.447 -10.550  14.311  0.00  0.00    +0.202 A 
BRANCH  17  19
ATOM     19  C   UNL     1      -4.143 -10.577  15.566  0.00  0.00    +0.022 A 
ATOM     20  C   UNL     1      -5.427 -10.040  15.663  0.00  0.00    +0.012 A 
ATOM     21  C   UNL     1      -3.534 -11.138  16.689  0.00  0.00    +0.012 A 
ATOM     22  C   UNL     1      -6.103 -10.066  16.884  0.00  0.00    +0.004 A 
ATOM     23  C   UNL     1      -4.210 -11.164  17.908  0.00  0.00    +0.004 A 
ATOM     24  C   UNL     1      -5.494 -10.627  18.006  0.00  0.00    -0.050 A 
ATOM     25  C   UNL     1      -6.217 -10.654  19.310  0.00  0.00    +0.044 C 
ENDBRANCH  17  19
ENDBRANCH  10  13
BRANCH   9   6
ATOM      6  N   UNL     1      -5.821  -8.925   9.548  0.00  0.00    -0.190 NA
ATOM     26  H   UNL     1      -5.939  -8.769  10.556  0.00  0.00    +0.148 HD
BRANCH   6   1
ATOM      1  S   UNL     1      -7.182  -9.238   8.574  0.00  0.00    +0.030 S 
ATOM      3  O   UNL     1      -7.820 -10.469   8.995  0.00  0.00    -0.158 OA
ATOM      4  O   UNL     1      -6.804  -9.033   7.190  0.00  0.00    -0.158 OA
BRANCH   1  15
ATOM     15  C   UNL     1      -8.238  -7.886   9.042  0.00  0.00    +0.185 C 
BRANCH  15  16
ATOM     16  C   UNL     1      -8.034  -6.685   8.132  0.00  0.00    +0.021 C 
ATOM     18  C   UNL     1      -9.119  -5.642   8.338  0.00  0.00    +0.005 C 
ENDBRANCH  15  16
ENDBRANCH   1  15
ENDBRANCH   6   1
ENDBRANCH   9   6
TORSDOF 6
ENDMDL
MODEL 2
REMARK VINA RESULT:      -6.2     22.645     24.566
REMARK  Name = 25338363
REMARK  9 active torsions:
REMARK  status: ('A' for Active; 'I' for Inactive)
REMARK    1  A    between atoms: S_1  and  N_6
REMARK    2  A    between atoms: S_1  and  C_15
REMARK    3  A    between atoms: N_5  and  C_14
REMARK    4  A    between atoms: N_6  and  C_9
REMARK    5  A    between atoms: C_10  and  C_13
REMARK    6  A    between atoms: C_15  and  C_16
REMARK    7  A    between atoms: C_16  and  C_18
REMARK    8  A    between atoms: C_17  and  C_19
REMARK    9  A    between atoms: C_24  and  C_25
REMARK                            x       y       z     vdW  Elec       q    Type
REMARK                         _______ _______ _______ _____ _____    ______ ____
ROOT
ATOM      5  N   UNL     1      11.453   7.830   1.495  0.00  0.00    -0.293 NA
ATOM      9  C   UNL     1      11.922   5.865   0.329  0.00  0.00    +0.092 C 
ATOM     10  C   UNL     1      10.194   7.064   1.567  0.00  0.00    +0.147 C 
ATOM     11  C   UNL     1      10.547   5.689   0.968  0.00  0.00    +0.050 C 
ATOM     12  C   UNL     1      12.133   7.369   0.280  0.00  0.00    +0.105 C 
ATOM     14  C   UNL     1      11.247   9.274   1.488  0.00  0.00    +0.105 C 
ENDROOT
BRANCH  10  13
ATOM      2  O   UNL     1       8.453   7.608   3.192  0.00  0.00    -0.336 OA
ATOM      7  N   UNL     1      10.103   6.333   4.011  0.00  0.00    -0.190 NA
ATOM      8  N   UNL     1       8.133   7.372   4.535  0.00  0.00    -0.056 NA
ATOM     13  C   UNL     1       9.626   6.961   2.966  0.00  0.00    +0.245 A 
ATOM     17  C   UNL     1       9.153   6.614   4.949  0.00  0.00    +0.202 A 
BRANCH  17  19
ATOM     19  C   UNL     1       9.251   6.121   6.293  0.00  0.00    +0.022 A 
ATOM     20  C   UNL     1       9.725   4.830   6.529  0.00  0.00    +0.012 A 
ATOM     21  C   UNL     1       8.872   6.931   7.363  0.00  0.00    +0.012 A 
ATOM     22  C   UNL     1       9.821   4.350   7.835  0.00  0.00    +0.004 A 
ATOM     23  C   UNL     1       8.968   6.451   8.669  0.00  0.00    +0.004 A 
ATOM     24  C   UNL     1       9.442   5.160   8.905  0.00  0.00    -0.050 A 
ATOM     25  C   UNL     1       9.543   4.646  10.301  0.00  0.00    +0.044 C 
ENDBRANCH  17  19
ENDBRANCH  10  13
BRANCH   9   6
ATOM      6  N   UNL     1      12.960   5.234   1.184  0.00  0.00    -0.190 NA
ATOM     26  H   UNL     1      13.288   5.764   2.000  0.00  0.00    +0.148 HD
BRANCH   6   1
ATOM      1  S   UNL     1      13.939   4.011   0.519  0.00  0.00    +0.030 S 
ATOM      3  O   UNL     1      14.434   3.145   1.572  0.00  0.00    -0.158 OA
ATOM      4  O   UNL     1      14.851   4.625  -0.427  0.00  0.00    -0.158 OA
BRANCH   1  15
ATOM     15  C   UNL     1      12.735   3.099  -0.419  0.00  0.00    +0.185 C 
BRANCH  15  16
ATOM     16  C   UNL     1      12.967   3.252  -1.913  0.00  0.00    +0.021 C 
ATOM     18  C   UNL     1      12.051   2.343  -2.714  0.00  0.00    +0.005 C 
ENDBRANCH  15  16
ENDBRANCH   1  15
ENDBRANCH   6   1
ENDBRANCH   9   6
TORSDOF 6
ENDMDL
MODEL 3
REMARK VINA RESULT:      -6.0      1.356      1.622
REMARK  Name = 25338363
REMARK  9 active torsions:
REMARK  status: ('A' for Active; 'I' for Inactive)
REMARK    1  A    between atoms: S_1  and  N_6
REMARK    2  A    between atoms: S_1  and  C_15
REMARK    3  A    between atoms: N_5  and  C_14
REMARK    4  A    between atoms: N_6  and  C_9
REMARK    5  A    between atoms: C_10  and  C_13
REMARK    6  A    between atoms: C_15  and  C_16
REMARK    7  A    between atoms: C_16  and  C_18
REMARK    8  A    between atoms: C_17  and  C_19
REMARK    9  A    between atoms: C_24  and  C_25
REMARK                            x       y       z     vdW  Elec       q    Type
REMARK                         _______ _______ _______ _____ _____    ______ ____
ROOT
ATOM      5  N   UNL     1      -4.276 -11.371  10.201  0.00  0.00    -0.293 NA
ATOM      9  C   UNL     1      -4.439  -9.330   9.083  0.00  0.00    +0.092 C 
ATOM     10  C   UNL     1      -3.148 -10.581  10.733  0.00  0.00    +0.147 C 
ATOM     11  C   UNL     1      -3.357  -9.172  10.147  0.00  0.00    +0.050 C 
ATOM     12  C   UNL     1      -4.546 -10.830   8.864  0.00  0.00    +0.105 C 
ATOM     14  C   UNL     1      -4.006 -12.804  10.162  0.00  0.00    +0.105 C 
ENDROOT
BRANCH  10  13
ATOM      2  O   UNL     1      -1.831 -10.466  12.788  0.00  0.00    -0.336 OA
ATOM      7  N   UNL     1      -4.037 -10.669  13.125  0.00  0.00    -0.190 NA
ATOM      8  N   UNL     1      -2.013 -10.487  14.177  0.00  0.00    -0.056 NA
ATOM     13  C   UNL     1      -3.072 -10.578  12.245  0.00  0.00    +0.245 A 
ATOM     17  C   UNL     1      -3.338 -10.609  14.296  0.00  0.00    +0.202 A 
BRANCH  17  19
ATOM     19  C   UNL     1      -3.996 -10.672  15.569  0.00  0.00    +0.022 A 
ATOM     20  C   UNL     1      -5.295 -10.183  15.708  0.00  0.00    +0.012 A 
ATOM     21  C   UNL     1      -3.336 -11.221  16.669  0.00  0.00    +0.012 A 
ATOM     22  C   UNL     1      -5.935 -10.244  16.947  0.00  0.00    +0.004 A 
ATOM     23  C   UNL     1      -3.975 -11.281  17.907  0.00  0.00    +0.004 A 
ATOM     24  C   UNL     1      -5.274 -10.792  18.046  0.00  0.00    -0.050 A 
ATOM     25  C   UNL     1      -5.957 -10.856  19.370  0.00  0.00    +0.044 C 
ENDBRANCH  17  19
ENDBRANCH  10  13
BRANCH   9   6
ATOM      6  N   UNL     1      -5.729  -8.797   9.590  0.00  0.00    -0.190 NA
ATOM     26  H   UNL     1      -5.876  -8.799  10.607  0.00  0.00    +0.148 HD
BRANCH   6   1
ATOM      1  S   UNL     1      -7.069  -8.751   8.542  0.00  0.00    +0.030 S 
ATOM      3  O   UNL     1      -6.666  -9.140   7.205  0.00  0.00    -0.158 OA
ATOM      4  O   UNL     1      -7.779  -7.508   8.771  0.00  0.00    -0.158 OA
BRANCH   1  15
ATOM     15  C   UNL     1      -8.062 -10.062   9.218  0.00  0.00    +0.185 C 
BRANCH  15  16
ATOM     16  C   UNL     1      -7.783 -10.259  10.699  0.00  0.00    +0.021 C 
ATOM     18  C   UNL     1      -9.000  -9.921  11.543  0.00  0.00    +0.005 C 
ENDBRANCH  15  16
ENDBRANCH   1  15
ENDBRANCH   6   1
ENDBRANCH   9   6
TORSDOF 6
ENDMDL
MODEL 4
REMARK VINA RESULT:      -6.0      4.478      7.661
REMARK  Name = 25338363
REMARK  9 active torsions:
REMARK  status: ('A' for Active; 'I' for Inactive)
REMARK    1  A    between atoms: S_1  and  N_6
REMARK    2  A    between atoms: S_1  and  C_15
REMARK    3  A    between atoms: N_5  and  C_14
REMARK    4  A    between atoms: N_6  and  C_9
REMARK    5  A    between atoms: C_10  and  C_13
REMARK    6  A    between atoms: C_15  and  C_16
REMARK    7  A    between atoms: C_16  and  C_18
REMARK    8  A    between atoms: C_17  and  C_19
REMARK    9  A    between atoms: C_24  and  C_25
REMARK                            x       y       z     vdW  Elec       q    Type
REMARK                         _______ _______ _______ _____ _____    ______ ____
ROOT
ATOM      5  N   UNL     1      -5.650 -11.805  17.892  0.00  0.00    -0.293 NA
ATOM      9  C   UNL     1      -3.554 -11.270  17.019  0.00  0.00    +0.092 C 
ATOM     10  C   UNL     1      -5.752 -10.367  17.573  0.00  0.00    +0.147 C 
ATOM     11  C   UNL     1      -4.445 -10.047  16.822  0.00  0.00    +0.050 C 
ATOM     12  C   UNL     1      -4.225 -12.061  18.129  0.00  0.00    +0.105 C 
ATOM     14  C   UNL     1      -6.469 -12.200  19.031  0.00  0.00    +0.105 C 
ENDROOT
BRANCH  10  13
ATOM      2  O   UNL     1      -7.108 -10.603  15.555  0.00  0.00    -0.336 OA
ATOM      7  N   UNL     1      -7.969  -9.203  17.078  0.00  0.00    -0.190 NA
ATOM      8  N   UNL     1      -8.308 -10.125  15.011  0.00  0.00    -0.056 NA
ATOM     13  C   UNL     1      -6.986 -10.011  16.772  0.00  0.00    +0.245 A 
ATOM     17  C   UNL     1      -8.756  -9.306  15.967  0.00  0.00    +0.202 A 
BRANCH  17  19
ATOM     19  C   UNL     1      -9.985  -8.577  15.845  0.00  0.00    +0.022 A 
ATOM     20  C   UNL     1     -11.023  -9.086  15.064  0.00  0.00    +0.012 A 
ATOM     21  C   UNL     1     -10.143  -7.359  16.507  0.00  0.00    +0.012 A 
ATOM     22  C   UNL     1     -12.219  -8.376  14.945  0.00  0.00    +0.004 A 
ATOM     23  C   UNL     1     -11.338  -6.651  16.388  0.00  0.00    +0.004 A 
ATOM     24  C   UNL     1     -12.376  -7.159  15.606  0.00  0.00    -0.050 A 
ATOM     25  C   UNL     1     -13.654  -6.401  15.478  0.00  0.00    +0.044 C 
ENDBRANCH  17  19
ENDBRANCH  10  13
BRANCH   9   6
ATOM      6  N   UNL     1      -3.520 -12.075  15.771  0.00  0.00    -0.190 NA
ATOM     26  H   UNL     1      -4.084 -12.933  15.745  0.00  0.00    +0.148 HD
BRANCH   6   1
ATOM      1  S   UNL     1      -2.196 -11.900  14.715  0.00  0.00    +0.030 S 
ATOM      3  O   UNL     1      -1.879 -13.175  14.102  0.00  0.00    -0.158 OA
ATOM      4  O   UNL     1      -1.175 -11.128  15.395  0.00  0.00    -0.158 OA
BRANCH   1  15
ATOM     15  C   UNL     1      -2.908 -10.854  13.465  0.00  0.00    +0.185 C 
BRANCH  15  16
ATOM     16  C   UNL     1      -1.938 -10.622  12.319  0.00  0.00    +0.021 C 
ATOM     18  C   UNL     1      -2.632 -10.001  11.120  0.00  0.00    +0.005 C 
ENDBRANCH  15  16
ENDBRANCH   1  15
ENDBRANCH   6   1
ENDBRANCH   9   6
TORSDOF 6
ENDMDL
MODEL 5
REMARK VINA RESULT:      -5.9      4.404      7.024
REMARK  Name = 25338363
REMARK  9 active torsions:
REMARK  status: ('A' for Active; 'I' for Inactive)
REMARK    1  A    between atoms: S_1  and  N_6
REMARK    2  A    between atoms: S_1  and  C_15
REMARK    3  A    between atoms: N_5  and  C_14
REMARK    4  A    between atoms: N_6  and  C_9
REMARK    5  A    between atoms: C_10  and  C_13
REMARK    6  A    between atoms: C_15  and  C_16
REMARK    7  A    between atoms: C_16  and  C_18
REMARK    8  A    between atoms: C_17  and  C_19
REMARK    9  A    between atoms: C_24  and  C_25
REMARK                            x       y       z     vdW  Elec       q    Type
REMARK                         _______ _______ _______ _____ _____    ______ ____
ROOT
ATOM      5  N   UNL     1      -5.686 -12.151  16.610  0.00  0.00    -0.293 NA
ATOM      9  C   UNL     1      -3.905 -10.821  15.900  0.00  0.00    +0.092 C 
ATOM     10  C   UNL     1      -5.761 -10.960  17.478  0.00  0.00    +0.147 C 
ATOM     11  C   UNL     1      -4.713  -9.993  16.895  0.00  0.00    +0.050 C 
ATOM     12  C   UNL     1      -4.279 -12.262  16.206  0.00  0.00    +0.105 C 
ATOM     14  C   UNL     1      -6.161 -13.367  17.259  0.00  0.00    +0.105 C 
ENDROOT
BRANCH  10  13
ATOM      2  O   UNL     1      -7.368  -9.270  16.751  0.00  0.00    -0.336 OA
ATOM      7  N   UNL     1      -8.174 -10.704  18.271  0.00  0.00    -0.190 NA
ATOM      8  N   UNL     1      -8.695  -8.885  16.985  0.00  0.00    -0.056 NA
ATOM     13  C   UNL     1      -7.144 -10.348  17.547  0.00  0.00    +0.245 A 
ATOM     17  C   UNL     1      -9.102  -9.777  17.892  0.00  0.00    +0.202 A 
BRANCH  17  19
ATOM     19  C   UNL     1     -10.428  -9.772  18.439  0.00  0.00    +0.022 A 
ATOM     20  C   UNL     1     -10.634 -10.115  19.775  0.00  0.00    +0.012 A 
ATOM     21  C   UNL     1     -11.513  -9.424  17.633  0.00  0.00    +0.012 A 
ATOM     22  C   UNL     1     -11.924 -10.110  20.306  0.00  0.00    +0.004 A 
ATOM     23  C   UNL     1     -12.802  -9.420  18.164  0.00  0.00    +0.004 A 
ATOM     24  C   UNL     1     -13.008  -9.763  19.501  0.00  0.00    -0.050 A 
ATOM     25  C   UNL     1     -14.387  -9.759  20.069  0.00  0.00    +0.044 C 
ENDBRANCH  17  19
ENDBRANCH  10  13
BRANCH   9   6
ATOM      6  N   UNL     1      -4.306 -10.476  14.513  0.00  0.00    -0.190 NA
ATOM     26  H   UNL     1      -5.308 -10.340  14.328  0.00  0.00    +0.148 HD
BRANCH   6   1
ATOM      1  S   UNL     1      -3.255 -10.865  13.232  0.00  0.00    +0.030 S 
ATOM      3  O   UNL     1      -3.323 -12.285  12.948  0.00  0.00    -0.158 OA
ATOM      4  O   UNL     1      -1.982 -10.218  13.480  0.00  0.00    -0.158 OA
BRANCH   1  15
ATOM     15  C   UNL     1      -4.038 -10.000  11.889  0.00  0.00    +0.185 C 
BRANCH  15  16
ATOM     16  C   UNL     1      -3.075  -9.788  10.732  0.00  0.00    +0.021 C 
ATOM     18  C   UNL     1      -3.741  -9.052   9.583  0.00  0.00    +0.005 C 
ENDBRANCH  15  16
ENDBRANCH   1  15
ENDBRANCH   6   1
ENDBRANCH   9   6
TORSDOF 6
ENDMDL
MODEL 6
REMARK VINA RESULT:      -5.8     29.269     31.422
REMARK  Name = 25338363
REMARK  9 active torsions:
REMARK  status: ('A' for Active; 'I' for Inactive)
REMARK    1  A    between atoms: S_1  and  N_6
REMARK    2  A    between atoms: S_1  and  C_15
REMARK    3  A    between atoms: N_5  and  C_14
REMARK    4  A    between atoms: N_6  and  C_9
REMARK    5  A    between atoms: C_10  and  C_13
REMARK    6  A    between atoms: C_15  and  C_16
REMARK    7  A    between atoms: C_16  and  C_18
REMARK    8  A    between atoms: C_17  and  C_19
REMARK    9  A    between atoms: C_24  and  C_25
REMARK                            x       y       z     vdW  Elec       q    Type
REMARK                         _______ _______ _______ _____ _____    ______ ____
ROOT
ATOM      5  N   UNL     1      20.868   6.639  22.599  0.00  0.00    -0.293 NA
ATOM      9  C   UNL     1      22.658   6.467  21.114  0.00  0.00    +0.092 C 
ATOM     10  C   UNL     1      20.454   7.459  21.444  0.00  0.00    +0.147 C 
ATOM     11  C   UNL     1      21.539   7.200  20.381  0.00  0.00    +0.050 C 
ATOM     12  C   UNL     1      22.335   6.645  22.588  0.00  0.00    +0.105 C 
ATOM     14  C   UNL     1      20.333   7.120  23.867  0.00  0.00    +0.105 C 
ENDROOT
BRANCH  10  13
ATOM      2  O   UNL     1      18.958   6.123  20.050  0.00  0.00    -0.336 OA
ATOM      7  N   UNL     1      17.921   7.709  21.245  0.00  0.00    -0.190 NA
ATOM      8  N   UNL     1      17.596   6.019  19.737  0.00  0.00    -0.056 NA
ATOM     13  C   UNL     1      19.061   7.141  20.943  0.00  0.00    +0.245 A 
ATOM     17  C   UNL     1      17.052   6.987  20.480  0.00  0.00    +0.202 A 
BRANCH  17  19
ATOM     19  C   UNL     1      15.643   7.257  20.483  0.00  0.00    +0.022 A 
ATOM     20  C   UNL     1      14.993   7.562  21.679  0.00  0.00    +0.012 A 
ATOM     21  C   UNL     1      14.922   7.214  19.289  0.00  0.00    +0.012 A 
ATOM     22  C   UNL     1      13.622   7.825  21.681  0.00  0.00    +0.004 A 
ATOM     23  C   UNL     1      13.552   7.477  19.292  0.00  0.00    +0.004 A 
ATOM     24  C   UNL     1      12.902   7.782  20.488  0.00  0.00    -0.050 A 
ATOM     25  C   UNL     1      11.438   8.061  20.491  0.00  0.00    +0.044 C 
ENDBRANCH  17  19
ENDBRANCH  10  13
BRANCH   9   6
ATOM      6  N   UNL     1      22.634   5.024  20.759  0.00  0.00    -0.190 NA
ATOM     26  H   UNL     1      21.729   4.541  20.804  0.00  0.00    +0.148 HD
BRANCH   6   1
ATOM      1  S   UNL     1      24.078   4.129  20.856  0.00  0.00    +0.030 S 
ATOM      3  O   UNL     1      24.902   4.632  21.937  0.00  0.00    -0.158 OA
ATOM      4  O   UNL     1      24.614   3.991  19.516  0.00  0.00    -0.158 OA
BRANCH   1  15
ATOM     15  C   UNL     1      23.447   2.539  21.342  0.00  0.00    +0.185 C 
BRANCH  15  16
ATOM     16  C   UNL     1      24.423   1.427  20.994  0.00  0.00    +0.021 C 
ATOM     18  C   UNL     1      24.970   0.757  22.243  0.00  0.00    +0.005 C 
ENDBRANCH  15  16
ENDBRANCH   1  15
ENDBRANCH   6   1
ENDBRANCH   9   6
TORSDOF 6
ENDMDL
MODEL 7
REMARK VINA RESULT:      -5.8     24.404     27.603
REMARK  Name = 25338363
REMARK  9 active torsions:
REMARK  status: ('A' for Active; 'I' for Inactive)
REMARK    1  A    between atoms: S_1  and  N_6
REMARK    2  A    between atoms: S_1  and  C_15
REMARK    3  A    between atoms: N_5  and  C_14
REMARK    4  A    between atoms: N_6  and  C_9
REMARK    5  A    between atoms: C_10  and  C_13
REMARK    6  A    between atoms: C_15  and  C_16
REMARK    7  A    between atoms: C_16  and  C_18
REMARK    8  A    between atoms: C_17  and  C_19
REMARK    9  A    between atoms: C_24  and  C_25
REMARK                            x       y       z     vdW  Elec       q    Type
REMARK                         _______ _______ _______ _____ _____    ______ ____
ROOT
ATOM      5  N   UNL     1     -16.163   4.994  33.506  0.00  0.00    -0.293 NA
ATOM      9  C   UNL     1     -15.336   3.118  32.393  0.00  0.00    +0.092 C 
ATOM     10  C   UNL     1     -14.789   4.848  34.024  0.00  0.00    +0.147 C 
ATOM     11  C   UNL     1     -14.169   3.733  33.160  0.00  0.00    +0.050 C 
ATOM     12  C   UNL     1     -16.577   3.649  33.090  0.00  0.00    +0.105 C 
ATOM     14  C   UNL     1     -17.085   5.569  34.478  0.00  0.00    +0.105 C 
ENDROOT
BRANCH  10  13
ATOM      2  O   UNL     1     -13.585   6.633  35.179  0.00  0.00    -0.336 OA
ATOM      7  N   UNL     1     -13.616   6.844  32.949  0.00  0.00    -0.190 NA
ATOM      8  N   UNL     1     -12.872   7.804  34.889  0.00  0.00    -0.056 NA
ATOM     13  C   UNL     1     -13.986   6.131  33.982  0.00  0.00    +0.245 A 
ATOM     17  C   UNL     1     -12.935   7.860  33.555  0.00  0.00    +0.202 A 
BRANCH  17  19
ATOM     19  C   UNL     1     -12.328   8.916  32.798  0.00  0.00    +0.022 A 
ATOM     20  C   UNL     1     -11.333   9.706  33.375  0.00  0.00    +0.012 A 
ATOM     21  C   UNL     1     -12.733   9.155  31.484  0.00  0.00    +0.012 A 
ATOM     22  C   UNL     1     -10.742  10.733  32.638  0.00  0.00    +0.004 A 
ATOM     23  C   UNL     1     -12.143  10.182  30.748  0.00  0.00    +0.004 A 
ATOM     24  C   UNL     1     -11.148  10.972  31.325  0.00  0.00    -0.050 A 
ATOM     25  C   UNL     1     -10.517  12.070  30.539  0.00  0.00    +0.044 C 
ENDBRANCH  17  19
ENDBRANCH  10  13
BRANCH   9   6
ATOM      6  N   UNL     1     -15.310   3.578  30.981  0.00  0.00    -0.190 NA
ATOM     26  H   UNL     1     -15.646   4.529  30.786  0.00  0.00    +0.148 HD
BRANCH   6   1
ATOM      1  S   UNL     1     -15.291   2.416  29.737  0.00  0.00    +0.030 S 
ATOM      3  O   UNL     1     -15.174   3.070  28.449  0.00  0.00    -0.158 OA
ATOM      4  O   UNL     1     -16.353   1.463  29.993  0.00  0.00    -0.158 OA
BRANCH   1  15
ATOM     15  C   UNL     1     -13.749   1.596  30.077  0.00  0.00    +0.185 C 
BRANCH  15  16
ATOM     16  C   UNL     1     -13.971   0.153  30.496  0.00  0.00    +0.021 C 
ATOM     18  C   UNL     1     -13.592  -0.813  29.387  0.00  0.00    +0.005 C 
ENDBRANCH  15  16
ENDBRANCH   1  15
ENDBRANCH   6   1
ENDBRANCH   9   6
TORSDOF 6
ENDMDL
MODEL 8
REMARK VINA RESULT:      -5.7     22.823     25.301
REMARK  Name = 25338363
REMARK  9 active torsions:
REMARK  status: ('A' for Active; 'I' for Inactive)
REMARK    1  A    between atoms: S_1  and  N_6
REMARK    2  A    between atoms: S_1  and  C_15
REMARK    3  A    between atoms: N_5  and  C_14
REMARK    4  A    between atoms: N_6  and  C_9
REMARK    5  A    between atoms: C_10  and  C_13
REMARK    6  A    between atoms: C_15  and  C_16
REMARK    7  A    between atoms: C_16  and  C_18
REMARK    8  A    between atoms: C_17  and  C_19
REMARK    9  A    between atoms: C_24  and  C_25
REMARK                            x       y       z     vdW  Elec       q    Type
REMARK                         _______ _______ _______ _____ _____    ______ ____
ROOT
ATOM      5  N   UNL     1       9.863   5.873   7.503  0.00  0.00    -0.293 NA
ATOM      9  C   UNL     1       8.864   7.966   7.757  0.00  0.00    +0.092 C 
ATOM     10  C   UNL     1       9.248   6.137   6.188  0.00  0.00    +0.147 C 
ATOM     11  C   UNL     1       8.750   7.593   6.282  0.00  0.00    +0.050 C 
ATOM     12  C   UNL     1       9.076   6.642   8.474  0.00  0.00    +0.105 C 
ATOM     14  C   UNL     1       9.908   4.456   7.842  0.00  0.00    +0.105 C 
ENDROOT
BRANCH  10  13
ATOM      2  O   UNL     1      11.362   6.607   5.056  0.00  0.00    -0.336 OA
ATOM      7  N   UNL     1      10.045   5.156   3.970  0.00  0.00    -0.190 NA
ATOM      8  N   UNL     1      12.054   6.248   3.892  0.00  0.00    -0.056 NA
ATOM     13  C   UNL     1      10.190   5.919   5.023  0.00  0.00    +0.245 A 
ATOM     17  C   UNL     1      11.213   5.391   3.305  0.00  0.00    +0.202 A 
BRANCH  17  19
ATOM     19  C   UNL     1      11.511   4.752   2.056  0.00  0.00    +0.022 A 
ATOM     20  C   UNL     1      12.669   3.984   1.923  0.00  0.00    +0.012 A 
ATOM     21  C   UNL     1      10.643   4.898   0.973  0.00  0.00    +0.012 A 
ATOM     22  C   UNL     1      12.958   3.363   0.708  0.00  0.00    +0.004 A 
ATOM     23  C   UNL     1      10.933   4.277  -0.241  0.00  0.00    +0.004 A 
ATOM     24  C   UNL     1      12.091   3.510  -0.374  0.00  0.00    -0.050 A 
ATOM     25  C   UNL     1      12.401   2.846  -1.673  0.00  0.00    +0.044 C 
ENDBRANCH  17  19
ENDBRANCH  10  13
BRANCH   9   6
ATOM      6  N   UNL     1      10.038   8.851   7.966  0.00  0.00    -0.190 NA
ATOM     26  H   UNL     1      10.917   8.410   8.263  0.00  0.00    +0.148 HD
BRANCH   6   1
ATOM      1  S   UNL     1       9.778  10.506   8.266  0.00  0.00    +0.030 S 
ATOM      3  O   UNL     1       9.067  10.677   9.518  0.00  0.00    -0.158 OA
ATOM      4  O   UNL     1       9.288  11.115   7.045  0.00  0.00    -0.158 OA
BRANCH   1  15
ATOM     15  C   UNL     1      11.449  11.064   8.505  0.00  0.00    +0.185 C 
BRANCH  15  16
ATOM     16  C   UNL     1      11.634  11.683   9.880  0.00  0.00    +0.021 C 
ATOM     18  C   UNL     1      11.501  13.195   9.832  0.00  0.00    +0.005 C 
ENDBRANCH  15  16
ENDBRANCH   1  15
ENDBRANCH   6   1
ENDBRANCH   9   6
TORSDOF 6
ENDMDL
MODEL 9
REMARK VINA RESULT:      -5.7     22.641     26.464
REMARK  Name = 25338363
REMARK  9 active torsions:
REMARK  status: ('A' for Active; 'I' for Inactive)
REMARK    1  A    between atoms: S_1  and  N_6
REMARK    2  A    between atoms: S_1  and  C_15
REMARK    3  A    between atoms: N_5  and  C_14
REMARK    4  A    between atoms: N_6  and  C_9
REMARK    5  A    between atoms: C_10  and  C_13
REMARK    6  A    between atoms: C_15  and  C_16
REMARK    7  A    between atoms: C_16  and  C_18
REMARK    8  A    between atoms: C_17  and  C_19
REMARK    9  A    between atoms: C_24  and  C_25
REMARK                            x       y       z     vdW  Elec       q    Type
REMARK                         _______ _______ _______ _____ _____    ______ ____
ROOT
ATOM      5  N   UNL     1       8.887  -5.088  34.688  0.00  0.00    -0.293 NA
ATOM      9  C   UNL     1       7.756  -4.794  36.707  0.00  0.00    +0.092 C 
ATOM     10  C   UNL     1       8.472  -6.453  35.067  0.00  0.00    +0.147 C 
ATOM     11  C   UNL     1       7.563  -6.251  36.294  0.00  0.00    +0.050 C 
ATOM     12  C   UNL     1       8.990  -4.338  35.945  0.00  0.00    +0.105 C 
ATOM     14  C   UNL     1      10.135  -5.055  33.934  0.00  0.00    +0.105 C 
ENDROOT
BRANCH  10  13
ATOM      2  O   UNL     1       6.890  -6.504  33.206  0.00  0.00    -0.336 OA
ATOM      7  N   UNL     1       7.917  -8.458  33.588  0.00  0.00    -0.190 NA
ATOM      8  N   UNL     1       6.390  -7.400  32.252  0.00  0.00    -0.056 NA
ATOM     13  C   UNL     1       7.783  -7.208  33.950  0.00  0.00    +0.245 A 
ATOM     17  C   UNL     1       7.042  -8.529  32.542  0.00  0.00    +0.202 A 
BRANCH  17  19
ATOM     19  C   UNL     1       6.845  -9.745  31.807  0.00  0.00    +0.022 A 
ATOM     20  C   UNL     1       6.939  -9.742  30.415  0.00  0.00    +0.012 A 
ATOM     21  C   UNL     1       6.558 -10.931  32.484  0.00  0.00    +0.012 A 
ATOM     22  C   UNL     1       6.747 -10.925  29.700  0.00  0.00    +0.004 A 
ATOM     23  C   UNL     1       6.366 -12.113  31.769  0.00  0.00    +0.004 A 
ATOM     24  C   UNL     1       6.460 -12.110  30.377  0.00  0.00    -0.050 A 
ATOM     25  C   UNL     1       6.254 -13.373  29.613  0.00  0.00    +0.044 C 
ENDBRANCH  17  19
ENDBRANCH  10  13
BRANCH   9   6
ATOM      6  N   UNL     1       6.577  -3.992  36.291  0.00  0.00    -0.190 NA
ATOM     26  H   UNL     1       6.582  -3.599  35.342  0.00  0.00    +0.148 HD
BRANCH   6   1
ATOM      1  S   UNL     1       5.595  -3.291  37.492  0.00  0.00    +0.030 S 
ATOM      3  O   UNL     1       4.456  -2.635  36.880  0.00  0.00    -0.158 OA
ATOM      4  O   UNL     1       6.453  -2.580  38.419  0.00  0.00    -0.158 OA
BRANCH   1  15
ATOM     15  C   UNL     1       5.004  -4.748  38.325  0.00  0.00    +0.185 C 
BRANCH  15  16
ATOM     16  C   UNL     1       5.405  -4.747  39.790  0.00  0.00    +0.021 C 
ATOM     18  C   UNL     1       6.466  -5.795  40.078  0.00  0.00    +0.005 C 
ENDBRANCH  15  16
ENDBRANCH   1  15
ENDBRANCH   6   1
ENDBRANCH   9   6
TORSDOF 6
ENDMDL
MODEL 10
REMARK VINA RESULT:      -5.7     25.413     27.557
REMARK  Name = 25338363
REMARK  9 active torsions:
REMARK  status: ('A' for Active; 'I' for Inactive)
REMARK    1  A    between atoms: S_1  and  N_6
REMARK    2  A    between atoms: S_1  and  C_15
REMARK    3  A    between atoms: N_5  and  C_14
REMARK    4  A    between atoms: N_6  and  C_9
REMARK    5  A    between atoms: C_10  and  C_13
REMARK    6  A    between atoms: C_15  and  C_16
REMARK    7  A    between atoms: C_16  and  C_18
REMARK    8  A    between atoms: C_17  and  C_19
REMARK    9  A    between atoms: C_24  and  C_25
REMARK                            x       y       z     vdW  Elec       q    Type
REMARK                         _______ _______ _______ _____ _____    ______ ____
ROOT
ATOM      5  N   UNL     1      12.680   6.453   3.090  0.00  0.00    -0.293 NA
ATOM      9  C   UNL     1      11.080   6.795   4.752  0.00  0.00    +0.092 C 
ATOM     10  C   UNL     1      12.752   7.902   3.362  0.00  0.00    +0.147 C 
ATOM     11  C   UNL     1      11.840   8.108   4.587  0.00  0.00    +0.050 C 
ATOM     12  C   UNL     1      11.318   6.046   3.452  0.00  0.00    +0.105 C 
ATOM     14  C   UNL     1      12.999   6.111   1.708  0.00  0.00    +0.105 C 
ENDROOT
BRANCH  10  13
ATOM      2  O   UNL     1      14.442   9.651   3.132  0.00  0.00    -0.336 OA
ATOM      7  N   UNL     1      15.168   7.810   4.181  0.00  0.00    -0.190 NA
ATOM      8  N   UNL     1      15.783   9.892   3.457  0.00  0.00    -0.056 NA
ATOM     13  C   UNL     1      14.161   8.405   3.594  0.00  0.00    +0.245 A 
ATOM     17  C   UNL     1      16.141   8.761   4.073  0.00  0.00    +0.202 A 
BRANCH  17  19
ATOM     19  C   UNL     1      17.461   8.550   4.593  0.00  0.00    +0.022 A 
ATOM     20  C   UNL     1      18.468   8.056   3.763  0.00  0.00    +0.012 A 
ATOM     21  C   UNL     1      17.738   8.838   5.930  0.00  0.00    +0.012 A 
ATOM     22  C   UNL     1      19.752   7.851   4.269  0.00  0.00    +0.004 A 
ATOM     23  C   UNL     1      19.022   8.633   6.436  0.00  0.00    +0.004 A 
ATOM     24  C   UNL     1      20.029   8.139   5.605  0.00  0.00    -0.050 A 
ATOM     25  C   UNL     1      21.400   7.918   6.146  0.00  0.00    +0.044 C 
ENDBRANCH  17  19
ENDBRANCH  10  13
BRANCH   9   6
ATOM      6  N   UNL     1      11.643   6.026   5.892  0.00  0.00    -0.190 NA
ATOM     26  H   UNL     1      12.157   5.163   5.674  0.00  0.00    +0.148 HD
BRANCH   6   1
ATOM      1  S   UNL     1      10.974   6.244   7.442  0.00  0.00    +0.030 S 
ATOM      3  O   UNL     1      10.355   7.551   7.535  0.00  0.00    -0.158 OA
ATOM      4  O   UNL     1      11.953   5.814   8.421  0.00  0.00    -0.158 OA
BRANCH   1  15
ATOM     15  C   UNL     1       9.679   5.025   7.415  0.00  0.00    +0.185 C 
BRANCH  15  16
ATOM     16  C   UNL     1       9.722   4.146   8.654  0.00  0.00    +0.021 C 
ATOM     18  C   UNL     1       9.021   4.807   9.829  0.00  0.00    +0.005 C 
ENDBRANCH  15  16
ENDBRANCH   1  15
ENDBRANCH   6   1
ENDBRANCH   9   6
TORSDOF 6
ENDMDL
