MODEL 1
REMARK VINA RESULT:      -6.5      0.000      0.000
REMARK  Name = 75537039
REMARK  3 active torsions:
REMARK  status: ('A' for Active; 'I' for Inactive)
REMARK    1  A    between atoms: N_3  and  C_11
REMARK    2  A    between atoms: C_11  and  C_12
REMARK    3  A    between atoms: C_13  and  C_16
REMARK                            x       y       z     vdW  Elec       q    Type
REMARK                         _______ _______ _______ _____ _____    ______ ____
ROOT
ATOM      1  O   UNL     1      10.328   8.705  18.712  0.00  0.00    -0.253 OA
ATOM      2  N   UNL     1      12.425   8.263  19.686  0.00  0.00    -0.279 N 
ATOM      3  N   UNL     1      15.103   7.436  19.900  0.00  0.00    -0.295 NA
ATOM      4  N   UNL     1      10.570   7.642  20.790  0.00  0.00    -0.297 N 
ATOM      5  C   UNL     1      12.906   7.767  20.958  0.00  0.00    +0.109 C 
ATOM      6  C   UNL     1      14.071   6.801  20.744  0.00  0.00    +0.109 C 
ATOM      7  C   UNL     1      13.373   8.775  18.719  0.00  0.00    +0.125 C 
ATOM      8  C   UNL     1      11.665   7.146  21.594  0.00  0.00    +0.129 C 
ATOM      9  C   UNL     1      14.551   7.807  18.582  0.00  0.00    +0.104 C 
ATOM     10  C   UNL     1      11.028   8.265  19.613  0.00  0.00    +0.303 C 
ATOM     19  H   UNL     1       9.589   7.487  21.001  0.00  0.00    +0.150 HD
ENDROOT
BRANCH   3  11
ATOM     11  C   UNL     1      16.250   6.543  19.739  0.00  0.00    +0.120 C 
BRANCH  11  12
ATOM     12  C   UNL     1      17.474   7.070  20.439  0.00  0.00    -0.030 A 
ATOM     13  C   UNL     1      18.683   6.375  20.393  0.00  0.00    -0.046 A 
ATOM     14  C   UNL     1      17.388   8.271  21.142  0.00  0.00    +0.005 A 
ATOM     15  C   UNL     1      19.804   6.881  21.049  0.00  0.00    +0.003 A 
ATOM     16  C   UNL     1      18.799   5.086  19.647  0.00  0.00    +0.044 C 
ATOM     17  C   UNL     1      18.510   8.778  21.799  0.00  0.00    +0.000 A 
ATOM     18  C   UNL     1      19.718   8.083  21.752  0.00  0.00    +0.000 A 
ENDBRANCH  11  12
ENDBRANCH   3  11
TORSDOF 2
ENDMDL
MODEL 2
REMARK VINA RESULT:      -6.4      2.077      3.456
REMARK  Name = 75537039
REMARK  3 active torsions:
REMARK  status: ('A' for Active; 'I' for Inactive)
REMARK    1  A    between atoms: N_3  and  C_11
REMARK    2  A    between atoms: C_11  and  C_12
REMARK    3  A    between atoms: C_13  and  C_16
REMARK                            x       y       z     vdW  Elec       q    Type
REMARK                         _______ _______ _______ _____ _____    ______ ____
ROOT
ATOM      1  O   UNL     1      10.608   8.860  15.937  0.00  0.00    -0.253 OA
ATOM      2  N   UNL     1      12.683   8.535  16.998  0.00  0.00    -0.279 N 
ATOM      3  N   UNL     1      14.540   8.077  19.060  0.00  0.00    -0.295 NA
ATOM      4  N   UNL     1      12.488  10.193  15.497  0.00  0.00    -0.297 N 
ATOM      5  C   UNL     1      14.023   9.068  16.867  0.00  0.00    +0.109 C 
ATOM      6  C   UNL     1      14.636   9.306  18.246  0.00  0.00    +0.109 C 
ATOM      7  C   UNL     1      12.448   7.417  17.888  0.00  0.00    +0.125 C 
ATOM      8  C   UNL     1      13.827  10.326  16.025  0.00  0.00    +0.129 C 
ATOM      9  C   UNL     1      13.131   7.670  19.235  0.00  0.00    +0.104 C 
ATOM     10  C   UNL     1      11.781   9.150  16.124  0.00  0.00    +0.303 C 
ATOM     19  H   UNL     1      12.074  10.826  14.819  0.00  0.00    +0.150 HD
ENDROOT
BRANCH   3  11
ATOM     11  C   UNL     1      15.179   8.275  20.360  0.00  0.00    +0.120 C 
BRANCH  11  12
ATOM     12  C   UNL     1      16.553   7.662  20.409  0.00  0.00    -0.030 A 
ATOM     13  C   UNL     1      17.604   8.307  21.062  0.00  0.00    -0.046 A 
ATOM     14  C   UNL     1      16.768   6.432  19.788  0.00  0.00    +0.005 A 
ATOM     15  C   UNL     1      18.868   7.721  21.096  0.00  0.00    +0.003 A 
ATOM     16  C   UNL     1      17.397   9.625  21.734  0.00  0.00    +0.044 C 
ATOM     17  C   UNL     1      18.034   5.846  19.821  0.00  0.00    +0.000 A 
ATOM     18  C   UNL     1      19.084   6.490  20.475  0.00  0.00    +0.000 A 
ENDBRANCH  11  12
ENDBRANCH   3  11
TORSDOF 2
ENDMDL
MODEL 3
REMARK VINA RESULT:      -6.1      4.567      7.441
REMARK  Name = 75537039
REMARK  3 active torsions:
REMARK  status: ('A' for Active; 'I' for Inactive)
REMARK    1  A    between atoms: N_3  and  C_11
REMARK    2  A    between atoms: C_11  and  C_12
REMARK    3  A    between atoms: C_13  and  C_16
REMARK                            x       y       z     vdW  Elec       q    Type
REMARK                         _______ _______ _______ _____ _____    ______ ____
ROOT
ATOM      1  O   UNL     1      13.164   6.726  18.920  0.00  0.00    -0.253 OA
ATOM      2  N   UNL     1      12.050   8.306  20.262  0.00  0.00    -0.279 N 
ATOM      3  N   UNL     1      11.662  10.558  21.902  0.00  0.00    -0.295 NA
ATOM      4  N   UNL     1      11.621   6.125  20.584  0.00  0.00    -0.297 N 
ATOM      5  C   UNL     1      10.986   8.284  21.244  0.00  0.00    +0.109 C 
ATOM      6  C   UNL     1      11.322   9.214  22.410  0.00  0.00    +0.109 C 
ATOM      7  C   UNL     1      12.564   9.579  19.801  0.00  0.00    +0.125 C 
ATOM      8  C   UNL     1      10.869   6.807  21.613  0.00  0.00    +0.129 C 
ATOM      9  C   UNL     1      12.827  10.499  20.996  0.00  0.00    +0.104 C 
ATOM     10  C   UNL     1      12.376   7.025  19.807  0.00  0.00    +0.303 C 
ATOM     19  H   UNL     1      11.670   5.116  20.484  0.00  0.00    +0.150 HD
ENDROOT
BRANCH   3  11
ATOM     11  C   UNL     1      11.926  11.472  23.012  0.00  0.00    +0.120 C 
BRANCH  11  12
ATOM     12  C   UNL     1      11.037  12.686  22.963  0.00  0.00    -0.030 A 
ATOM     13  C   UNL     1      10.508  13.237  24.131  0.00  0.00    -0.046 A 
ATOM     14  C   UNL     1      10.742  13.259  21.726  0.00  0.00    +0.005 A 
ATOM     15  C   UNL     1       9.687  14.361  24.062  0.00  0.00    +0.003 A 
ATOM     16  C   UNL     1      10.810  12.639  25.466  0.00  0.00    +0.044 C 
ATOM     17  C   UNL     1       9.920  14.384  21.658  0.00  0.00    +0.000 A 
ATOM     18  C   UNL     1       9.393  14.936  22.825  0.00  0.00    +0.000 A 
ENDBRANCH  11  12
ENDBRANCH   3  11
TORSDOF 2
ENDMDL
MODEL 4
REMARK VINA RESULT:      -6.0      4.718      7.384
REMARK  Name = 75537039
REMARK  3 active torsions:
REMARK  status: ('A' for Active; 'I' for Inactive)
REMARK    1  A    between atoms: N_3  and  C_11
REMARK    2  A    between atoms: C_11  and  C_12
REMARK    3  A    between atoms: C_13  and  C_16
REMARK                            x       y       z     vdW  Elec       q    Type
REMARK                         _______ _______ _______ _____ _____    ______ ____
ROOT
ATOM      1  O   UNL     1      11.043   5.748  21.142  0.00  0.00    -0.253 OA
ATOM      2  N   UNL     1      11.984   7.763  21.915  0.00  0.00    -0.279 N 
ATOM      3  N   UNL     1      12.232  10.509  22.463  0.00  0.00    -0.295 NA
ATOM      4  N   UNL     1      13.281   6.340  20.758  0.00  0.00    -0.297 N 
ATOM      5  C   UNL     1      13.306   8.351  21.965  0.00  0.00    +0.109 C 
ATOM      6  C   UNL     1      13.238   9.837  21.616  0.00  0.00    +0.109 C 
ATOM      7  C   UNL     1      10.886   8.422  22.592  0.00  0.00    +0.125 C 
ATOM      8  C   UNL     1      14.115   7.498  20.992  0.00  0.00    +0.129 C 
ATOM      9  C   UNL     1      10.894   9.917  22.262  0.00  0.00    +0.104 C 
ATOM     10  C   UNL     1      11.980   6.524  21.265  0.00  0.00    +0.303 C 
ATOM     19  H   UNL     1      13.567   5.528  20.220  0.00  0.00    +0.150 HD
ENDROOT
BRANCH   3  11
ATOM     11  C   UNL     1      12.203  11.943  22.178  0.00  0.00    +0.120 C 
BRANCH  11  12
ATOM     12  C   UNL     1      11.594  12.727  23.311  0.00  0.00    -0.030 A 
ATOM     13  C   UNL     1      10.626  13.703  23.070  0.00  0.00    -0.046 A 
ATOM     14  C   UNL     1      12.012  12.467  24.616  0.00  0.00    +0.005 A 
ATOM     15  C   UNL     1      10.076  14.417  24.134  0.00  0.00    +0.003 A 
ATOM     16  C   UNL     1      10.164  13.999  21.681  0.00  0.00    +0.044 C 
ATOM     17  C   UNL     1      11.462  13.182  25.680  0.00  0.00    +0.000 A 
ATOM     18  C   UNL     1      10.494  14.156  25.439  0.00  0.00    +0.000 A 
ENDBRANCH  11  12
ENDBRANCH   3  11
TORSDOF 2
ENDMDL
MODEL 5
REMARK VINA RESULT:      -5.4     26.331     27.423
REMARK  Name = 75537039
REMARK  3 active torsions:
REMARK  status: ('A' for Active; 'I' for Inactive)
REMARK    1  A    between atoms: N_3  and  C_11
REMARK    2  A    between atoms: C_11  and  C_12
REMARK    3  A    between atoms: C_13  and  C_16
REMARK                            x       y       z     vdW  Elec       q    Type
REMARK                         _______ _______ _______ _____ _____    ______ ____
ROOT
ATOM      1  O   UNL     1     -11.993  10.466  12.260  0.00  0.00    -0.253 OA
ATOM      2  N   UNL     1     -11.753   9.404  14.346  0.00  0.00    -0.279 N 
ATOM      3  N   UNL     1     -11.303   9.096  17.105  0.00  0.00    -0.295 NA
ATOM      4  N   UNL     1     -10.752   8.497  12.552  0.00  0.00    -0.297 N 
ATOM      5  C   UNL     1     -11.193   8.160  14.831  0.00  0.00    +0.109 C 
ATOM      6  C   UNL     1     -10.435   8.393  16.137  0.00  0.00    +0.109 C 
ATOM      7  C   UNL     1     -12.501  10.247  15.255  0.00  0.00    +0.125 C 
ATOM      8  C   UNL     1     -10.332   7.676  13.666  0.00  0.00    +0.129 C 
ATOM      9  C   UNL     1     -11.735  10.403  16.571  0.00  0.00    +0.104 C 
ATOM     10  C   UNL     1     -11.561   9.570  12.971  0.00  0.00    +0.303 C 
ATOM     19  H   UNL     1     -10.434   8.370  11.596  0.00  0.00    +0.150 HD
ENDROOT
BRANCH   3  11
ATOM     11  C   UNL     1     -10.608   9.270  18.379  0.00  0.00    +0.120 C 
BRANCH  11  12
ATOM     12  C   UNL     1     -11.394   8.698  19.529  0.00  0.00    -0.030 A 
ATOM     13  C   UNL     1     -12.068   9.530  20.423  0.00  0.00    -0.046 A 
ATOM     14  C   UNL     1     -11.441   7.314  19.695  0.00  0.00    +0.005 A 
ATOM     15  C   UNL     1     -12.790   8.979  21.480  0.00  0.00    +0.003 A 
ATOM     16  C   UNL     1     -12.032  11.015  20.265  0.00  0.00    +0.044 C 
ATOM     17  C   UNL     1     -12.163   6.762  20.753  0.00  0.00    +0.000 A 
ATOM     18  C   UNL     1     -12.838   7.594  21.646  0.00  0.00    +0.000 A 
ENDBRANCH  11  12
ENDBRANCH   3  11
TORSDOF 2
ENDMDL
MODEL 6
REMARK VINA RESULT:      -5.3     17.118     18.736
REMARK  Name = 75537039
REMARK  3 active torsions:
REMARK  status: ('A' for Active; 'I' for Inactive)
REMARK    1  A    between atoms: N_3  and  C_11
REMARK    2  A    between atoms: C_11  and  C_12
REMARK    3  A    between atoms: C_13  and  C_16
REMARK                            x       y       z     vdW  Elec       q    Type
REMARK                         _______ _______ _______ _____ _____    ______ ____
ROOT
ATOM      1  O   UNL     1       7.802   8.089   4.193  0.00  0.00    -0.253 OA
ATOM      2  N   UNL     1       9.601   6.607   3.868  0.00  0.00    -0.279 N 
ATOM      3  N   UNL     1      11.275   4.743   2.592  0.00  0.00    -0.295 NA
ATOM      4  N   UNL     1       8.477   6.529   5.811  0.00  0.00    -0.297 N 
ATOM      5  C   UNL     1      10.332   5.653   4.675  0.00  0.00    +0.109 C 
ATOM      6  C   UNL     1      10.623   4.388   3.868  0.00  0.00    +0.109 C 
ATOM      7  C   UNL     1      10.073   6.919   2.535  0.00  0.00    +0.125 C 
ATOM      8  C   UNL     1       9.432   5.447   5.891  0.00  0.00    +0.129 C 
ATOM      9  C   UNL     1      10.410   5.627   1.786  0.00  0.00    +0.104 C 
ATOM     10  C   UNL     1       8.541   7.191   4.570  0.00  0.00    +0.303 C 
ATOM     19  H   UNL     1       7.785   6.736   6.524  0.00  0.00    +0.150 HD
ENDROOT
BRANCH   3  11
ATOM     11  C   UNL     1      11.613   3.536   1.838  0.00  0.00    +0.120 C 
BRANCH  11  12
ATOM     12  C   UNL     1      12.887   3.702   1.054  0.00  0.00    -0.030 A 
ATOM     13  C   UNL     1      12.869   3.774  -0.339  0.00  0.00    -0.046 A 
ATOM     14  C   UNL     1      14.099   3.783   1.740  0.00  0.00    +0.005 A 
ATOM     15  C   UNL     1      14.061   3.929  -1.045  0.00  0.00    +0.003 A 
ATOM     16  C   UNL     1      11.583   3.690  -1.095  0.00  0.00    +0.044 C 
ATOM     17  C   UNL     1      15.291   3.937   1.033  0.00  0.00    +0.000 A 
ATOM     18  C   UNL     1      15.273   4.010  -0.359  0.00  0.00    +0.000 A 
ENDBRANCH  11  12
ENDBRANCH   3  11
TORSDOF 2
ENDMDL
MODEL 7
REMARK VINA RESULT:      -5.2     27.624     29.398
REMARK  Name = 75537039
REMARK  3 active torsions:
REMARK  status: ('A' for Active; 'I' for Inactive)
REMARK    1  A    between atoms: N_3  and  C_11
REMARK    2  A    between atoms: C_11  and  C_12
REMARK    3  A    between atoms: C_13  and  C_16
REMARK                            x       y       z     vdW  Elec       q    Type
REMARK                         _______ _______ _______ _____ _____    ______ ____
ROOT
ATOM      1  O   UNL     1     -13.121  -8.042  14.014  0.00  0.00    -0.253 OA
ATOM      2  N   UNL     1     -11.041  -8.112  15.114  0.00  0.00    -0.279 N 
ATOM      3  N   UNL     1      -8.905  -9.121  16.639  0.00  0.00    -0.295 NA
ATOM      4  N   UNL     1     -12.330  -6.290  15.360  0.00  0.00    -0.297 N 
ATOM      5  C   UNL     1     -10.228  -7.190  15.878  0.00  0.00    +0.109 C 
ATOM      6  C   UNL     1      -9.609  -7.900  17.081  0.00  0.00    +0.109 C 
ATOM      7  C   UNL     1     -10.499  -9.405  14.751  0.00  0.00    +0.125 C 
ATOM      8  C   UNL     1     -11.195  -6.062  16.226  0.00  0.00    +0.129 C 
ATOM      9  C   UNL     1      -9.835 -10.052  15.969  0.00  0.00    +0.104 C 
ATOM     10  C   UNL     1     -12.264  -7.550  14.735  0.00  0.00    +0.303 C 
ATOM     19  H   UNL     1     -13.123  -5.660  15.276  0.00  0.00    +0.150 HD
ENDROOT
BRANCH   3  11
ATOM     11  C   UNL     1      -8.257  -9.776  17.774  0.00  0.00    +0.120 C 
BRANCH  11  12
ATOM     12  C   UNL     1      -6.813 -10.094  17.489  0.00  0.00    -0.030 A 
ATOM     13  C   UNL     1      -6.039 -10.801  18.410  0.00  0.00    -0.046 A 
ATOM     14  C   UNL     1      -6.251  -9.670  16.286  0.00  0.00    +0.005 A 
ATOM     15  C   UNL     1      -4.704 -11.085  18.126  0.00  0.00    +0.003 A 
ATOM     16  C   UNL     1      -6.619 -11.265  19.706  0.00  0.00    +0.044 C 
ATOM     17  C   UNL     1      -4.915  -9.954  16.002  0.00  0.00    +0.000 A 
ATOM     18  C   UNL     1      -4.141 -10.661  16.922  0.00  0.00    +0.000 A 
ENDBRANCH  11  12
ENDBRANCH   3  11
TORSDOF 2
ENDMDL
MODEL 8
REMARK VINA RESULT:      -5.2     27.050     28.312
REMARK  Name = 75537039
REMARK  3 active torsions:
REMARK  status: ('A' for Active; 'I' for Inactive)
REMARK    1  A    between atoms: N_3  and  C_11
REMARK    2  A    between atoms: C_11  and  C_12
REMARK    3  A    between atoms: C_13  and  C_16
REMARK                            x       y       z     vdW  Elec       q    Type
REMARK                         _______ _______ _______ _____ _____    ______ ____
ROOT
ATOM      1  O   UNL     1      -3.370 -11.101  10.811  0.00  0.00    -0.253 OA
ATOM      2  N   UNL     1      -3.839 -11.412  13.096  0.00  0.00    -0.279 N 
ATOM      3  N   UNL     1      -4.736 -10.839  15.699  0.00  0.00    -0.295 NA
ATOM      4  N   UNL     1      -1.838 -12.059  12.308  0.00  0.00    -0.297 N 
ATOM      5  C   UNL     1      -3.198 -12.064  14.218  0.00  0.00    +0.109 C 
ATOM      6  C   UNL     1      -3.322 -11.202  15.474  0.00  0.00    +0.109 C 
ATOM      7  C   UNL     1      -5.178 -10.884  13.252  0.00  0.00    +0.125 C 
ATOM      8  C   UNL     1      -1.768 -12.290  13.733  0.00  0.00    +0.129 C 
ATOM      9  C   UNL     1      -5.274 -10.081  14.552  0.00  0.00    +0.104 C 
ATOM     10  C   UNL     1      -3.064 -11.477  11.933  0.00  0.00    +0.303 C 
ATOM     19  H   UNL     1      -1.068 -12.214  11.664  0.00  0.00    +0.150 HD
ENDROOT
BRANCH   3  11
ATOM     11  C   UNL     1      -4.874 -10.065  16.932  0.00  0.00    +0.120 C 
BRANCH  11  12
ATOM     12  C   UNL     1      -5.943 -10.628  17.830  0.00  0.00    -0.030 A 
ATOM     13  C   UNL     1      -5.620 -11.496  18.874  0.00  0.00    -0.046 A 
ATOM     14  C   UNL     1      -7.273 -10.272  17.607  0.00  0.00    +0.005 A 
ATOM     15  C   UNL     1      -6.625 -12.005  19.695  0.00  0.00    +0.003 A 
ATOM     16  C   UNL     1      -4.203 -11.891  19.132  0.00  0.00    +0.044 C 
ATOM     17  C   UNL     1      -8.279 -10.783  18.427  0.00  0.00    +0.000 A 
ATOM     18  C   UNL     1      -7.955 -11.649  19.471  0.00  0.00    +0.000 A 
ENDBRANCH  11  12
ENDBRANCH   3  11
TORSDOF 2
ENDMDL
MODEL 9
REMARK VINA RESULT:      -5.2     15.969     17.868
REMARK  Name = 75537039
REMARK  3 active torsions:
REMARK  status: ('A' for Active; 'I' for Inactive)
REMARK    1  A    between atoms: N_3  and  C_11
REMARK    2  A    between atoms: C_11  and  C_12
REMARK    3  A    between atoms: C_13  and  C_16
REMARK                            x       y       z     vdW  Elec       q    Type
REMARK                         _______ _______ _______ _____ _____    ______ ____
ROOT
ATOM      1  O   UNL     1      11.497   8.962   7.164  0.00  0.00    -0.253 OA
ATOM      2  N   UNL     1      11.256   6.949   5.968  0.00  0.00    -0.279 N 
ATOM      3  N   UNL     1      10.905   5.213   3.784  0.00  0.00    -0.295 NA
ATOM      4  N   UNL     1      10.096   7.217   7.872  0.00  0.00    -0.297 N 
ATOM      5  C   UNL     1      10.608   5.673   6.184  0.00  0.00    +0.109 C 
ATOM      6  C   UNL     1       9.935   5.196   4.897  0.00  0.00    +0.109 C 
ATOM      7  C   UNL     1      12.118   7.122   4.818  0.00  0.00    +0.125 C 
ATOM      8  C   UNL     1       9.655   5.946   7.345  0.00  0.00    +0.129 C 
ATOM      9  C   UNL     1      11.430   6.576   3.564  0.00  0.00    +0.104 C 
ATOM     10  C   UNL     1      11.018   7.847   7.014  0.00  0.00    +0.303 C 
ATOM     19  H   UNL     1       9.725   7.648   8.714  0.00  0.00    +0.150 HD
ENDROOT
BRANCH   3  11
ATOM     11  C   UNL     1      10.288   4.701   2.562  0.00  0.00    +0.120 C 
BRANCH  11  12
ATOM     12  C   UNL     1      11.318   4.274   1.550  0.00  0.00    -0.030 A 
ATOM     13  C   UNL     1      11.165   4.579   0.197  0.00  0.00    -0.046 A 
ATOM     14  C   UNL     1      12.438   3.564   1.981  0.00  0.00    +0.005 A 
ATOM     15  C   UNL     1      12.131   4.175  -0.723  0.00  0.00    +0.003 A 
ATOM     16  C   UNL     1       9.974   5.339  -0.289  0.00  0.00    +0.044 C 
ATOM     17  C   UNL     1      13.404   3.159   1.060  0.00  0.00    +0.000 A 
ATOM     18  C   UNL     1      13.251   3.464  -0.292  0.00  0.00    +0.000 A 
ENDBRANCH  11  12
ENDBRANCH   3  11
TORSDOF 2
ENDMDL
MODEL 10
REMARK VINA RESULT:      -5.1     26.828     28.545
REMARK  Name = 75537039
REMARK  3 active torsions:
REMARK  status: ('A' for Active; 'I' for Inactive)
REMARK    1  A    between atoms: N_3  and  C_11
REMARK    2  A    between atoms: C_11  and  C_12
REMARK    3  A    between atoms: C_13  and  C_16
REMARK                            x       y       z     vdW  Elec       q    Type
REMARK                         _______ _______ _______ _____ _____    ______ ____
ROOT
ATOM      1  O   UNL     1      -1.627 -15.381  12.147  0.00  0.00    -0.253 OA
ATOM      2  N   UNL     1      -2.795 -13.747  13.374  0.00  0.00    -0.279 N 
ATOM      3  N   UNL     1      -3.252 -11.641  15.180  0.00  0.00    -0.295 NA
ATOM      4  N   UNL     1      -3.664 -15.813  13.229  0.00  0.00    -0.297 N 
ATOM      5  C   UNL     1      -4.085 -13.647  14.024  0.00  0.00    +0.109 C 
ATOM      6  C   UNL     1      -3.949 -12.929  15.366  0.00  0.00    +0.109 C 
ATOM      7  C   UNL     1      -1.960 -12.568  13.268  0.00  0.00    +0.125 C 
ATOM      8  C   UNL     1      -4.554 -15.097  14.115  0.00  0.00    +0.129 C 
ATOM      9  C   UNL     1      -1.902 -11.848  14.618  0.00  0.00    +0.104 C 
ATOM     10  C   UNL     1      -2.575 -15.016  12.828  0.00  0.00    +0.303 C 
ATOM     19  H   UNL     1      -3.762 -16.795  12.990  0.00  0.00    +0.150 HD
ENDROOT
BRANCH   3  11
ATOM     11  C   UNL     1      -3.169 -10.918  16.449  0.00  0.00    +0.120 C 
BRANCH  11  12
ATOM     12  C   UNL     1      -4.533 -10.598  17.001  0.00  0.00    -0.030 A 
ATOM     13  C   UNL     1      -4.931 -11.075  18.251  0.00  0.00    -0.046 A 
ATOM     14  C   UNL     1      -5.404  -9.815  16.245  0.00  0.00    +0.005 A 
ATOM     15  C   UNL     1      -6.198 -10.766  18.744  0.00  0.00    +0.003 A 
ATOM     16  C   UNL     1      -4.015 -11.916  19.079  0.00  0.00    +0.044 C 
ATOM     17  C   UNL     1      -6.672  -9.507  16.738  0.00  0.00    +0.000 A 
ATOM     18  C   UNL     1      -7.069  -9.982  17.987  0.00  0.00    +0.000 A 
ENDBRANCH  11  12
ENDBRANCH   3  11
TORSDOF 2
ENDMDL
