REMARK  Name = 51137187
REMARK  4 active torsions:
REMARK  status: ('A' for Active; 'I' for Inactive)
REMARK    1  A    between atoms: N_3  and  C_7
REMARK    2  A    between atoms: C_9  and  C_16
REMARK    3  A    between atoms: C_17  and  C_18
REMARK    4  A    between atoms: C_19  and  C_20
REMARK                            x       y       z     vdW  Elec       q    Type
REMARK                         _______ _______ _______ _____ _____    ______ ____
ROOT
ATOM      3  N   UNL     1       0.126  -0.676   0.442  0.00  0.00    -0.299 NA
ATOM      8  C   UNL     1      -0.955   0.291   0.236  0.00  0.00    +0.097 C 
ATOM      9  C   UNL     1      -2.184  -0.450   0.778  0.00  0.00    +0.092 C 
ATOM     10  C   UNL     1      -0.437  -1.962   0.031  0.00  0.00    +0.085 C 
ATOM     11  C   UNL     1      -1.826  -1.941   0.656  0.00  0.00    +0.029 C 
ENDROOT
BRANCH   3   7
ATOM      2  O   UNL     1       6.266  -0.410   0.264  0.00  0.00    -0.276 OA
ATOM      4  N   UNL     1       4.152   0.319  -0.368  0.00  0.00    -0.302 N 
ATOM      7  C   UNL     1       1.332  -0.332  -0.307  0.00  0.00    +0.060 C 
ATOM     12  C   UNL     1       1.848   1.045   0.131  0.00  0.00    +0.038 C 
ATOM     13  C   UNL     1       2.409  -1.402  -0.090  0.00  0.00    +0.038 C 
ATOM     14  C   UNL     1       3.163   1.385  -0.570  0.00  0.00    +0.109 C 
ATOM     15  C   UNL     1       3.712  -1.014  -0.786  0.00  0.00    +0.109 C 
ATOM     17  C   UNL     1       5.440   0.498   0.137  0.00  0.00    +0.212 C 
ATOM     18  C   UNL     1       5.816   1.899   0.548  0.00  0.00    +0.109 C 
ENDBRANCH   3   7
BRANCH   9  16
ATOM      1  O   UNL     1      -4.441   0.495   0.870  0.00  0.00    -0.425 OA
ATOM      5  N   UNL     1      -3.800  -0.137  -1.178  0.00  0.00    -0.112 NA
ATOM      6  N   UNL     1      -5.081   0.374  -1.270  0.00  0.00    -0.113 NA
ATOM     16  C   UNL     1      -3.467  -0.046   0.088  0.00  0.00    +0.222 A 
ATOM     19  C   UNL     1      -5.415   0.730  -0.052  0.00  0.00    +0.214 A 
ATOM     20  C   UNL     1      -6.660   1.334   0.438  0.00  0.00    +0.111 C 
ENDBRANCH   9  16
TORSDOF 2
