MODEL 1
REMARK VINA RESULT:      -7.3      0.000      0.000
REMARK  Name = 26744784
REMARK  6 active torsions:
REMARK  status: ('A' for Active; 'I' for Inactive)
REMARK    1  A    between atoms: N_8  and  C_18
REMARK    2  A    between atoms: C_13  and  C_19
REMARK    3  A    between atoms: C_18  and  C_20
REMARK    4  A    between atoms: C_24  and  C_28
REMARK    5  A    between atoms: C_27  and  C_29
REMARK    6  A    between atoms: C_34  and  C_35
REMARK                            x       y       z     vdW  Elec       q    Type
REMARK                         _______ _______ _______ _____ _____    ______ ____
ROOT
ATOM      8  N   UNL     1      -0.851 -14.659   2.645  0.00  0.00    -0.281 NA
ATOM      9  N   UNL     1      -2.799 -13.207   5.502  0.00  0.00    -0.347 N 
ATOM     10  N   UNL     1      -3.905 -12.089   3.915  0.00  0.00    -0.240 NA
ATOM     13  C   UNL     1      -1.976 -14.495   1.662  0.00  0.00    +0.152 C 
ATOM     14  C   UNL     1      -2.803 -13.182   1.909  0.00  0.00    +0.086 C 
ATOM     15  C   UNL     1      -1.336 -14.727   4.054  0.00  0.00    +0.140 C 
ATOM     16  C   UNL     1      -2.338 -13.672   4.309  0.00  0.00    +0.053 A 
ATOM     17  C   UNL     1      -3.034 -12.979   3.354  0.00  0.00    +0.065 A 
ATOM     21  C   UNL     1      -3.742 -12.254   5.213  0.00  0.00    +0.197 A 
ATOM     36  H   UNL     1      -2.509 -13.506   6.425  0.00  0.00    +0.167 HD
ENDROOT
BRANCH  13  19
ATOM      7  O   UNL     1      -1.900 -15.570  -0.542  0.00  0.00    -0.336 OA
ATOM     11  N   UNL     1      -0.829 -13.605  -0.451  0.00  0.00    -0.190 NA
ATOM     12  N   UNL     1      -1.381 -15.349  -1.825  0.00  0.00    -0.056 NA
ATOM     19  C   UNL     1      -1.529 -14.496   0.203  0.00  0.00    +0.245 A 
ATOM     24  C   UNL     1      -0.763 -14.172  -1.691  0.00  0.00    +0.202 A 
BRANCH  24  28
ATOM     28  C   UNL     1      -0.074 -13.535  -2.775  0.00  0.00    +0.022 A 
ATOM     30  C   UNL     1      -0.749 -13.257  -3.964  0.00  0.00    +0.012 A 
ATOM     31  C   UNL     1       1.271 -13.192  -2.641  0.00  0.00    +0.012 A 
ATOM     32  C   UNL     1      -0.080 -12.636  -5.017  0.00  0.00    +0.013 A 
ATOM     33  C   UNL     1       1.941 -12.571  -3.696  0.00  0.00    +0.013 A 
ATOM     34  C   UNL     1       1.265 -12.293  -4.884  0.00  0.00    +0.055 A 
BRANCH  34  35
ATOM      4  F   UNL     1       3.102 -12.309  -6.393  0.00  0.00    -0.166 F 
ATOM      5  F   UNL     1       1.226 -11.503  -7.142  0.00  0.00    -0.166 F 
ATOM      6  F   UNL     1       2.403 -10.362  -5.721  0.00  0.00    -0.166 F 
ATOM     35  C   UNL     1       1.981 -11.629  -6.011  0.00  0.00    +0.417 C 
ENDBRANCH  34  35
ENDBRANCH  24  28
ENDBRANCH  13  19
BRANCH   8  18
ATOM     18  C   UNL     1      -0.047 -15.859   2.379  0.00  0.00    +0.120 C 
BRANCH  18  20
ATOM     20  C   UNL     1       1.155 -15.552   1.526  0.00  0.00    -0.033 A 
ATOM     22  C   UNL     1       1.894 -14.391   1.756  0.00  0.00    +0.005 A 
ATOM     23  C   UNL     1       1.531 -16.428   0.507  0.00  0.00    +0.005 A 
ATOM     25  C   UNL     1       3.007 -14.105   0.966  0.00  0.00    +0.012 A 
ATOM     26  C   UNL     1       2.645 -16.142  -0.282  0.00  0.00    +0.012 A 
ATOM     27  C   UNL     1       3.383 -14.981  -0.052  0.00  0.00    +0.055 A 
BRANCH  27  29
ATOM      1  F   UNL     1       4.321 -14.708  -2.235  0.00  0.00    -0.166 F 
ATOM      2  F   UNL     1       5.598 -15.561  -0.696  0.00  0.00    -0.166 F 
ATOM      3  F   UNL     1       5.110 -13.443  -0.661  0.00  0.00    -0.166 F 
ATOM     29  C   UNL     1       4.576 -14.677  -0.894  0.00  0.00    +0.417 C 
ENDBRANCH  27  29
ENDBRANCH  18  20
ENDBRANCH   8  18
TORSDOF 6
ENDMDL
MODEL 2
REMARK VINA RESULT:      -7.2     21.823     23.227
REMARK  Name = 26744784
REMARK  6 active torsions:
REMARK  status: ('A' for Active; 'I' for Inactive)
REMARK    1  A    between atoms: N_8  and  C_18
REMARK    2  A    between atoms: C_13  and  C_19
REMARK    3  A    between atoms: C_18  and  C_20
REMARK    4  A    between atoms: C_24  and  C_28
REMARK    5  A    between atoms: C_27  and  C_29
REMARK    6  A    between atoms: C_34  and  C_35
REMARK                            x       y       z     vdW  Elec       q    Type
REMARK                         _______ _______ _______ _____ _____    ______ ____
ROOT
ATOM      8  N   UNL     1       9.689   7.208   6.245  0.00  0.00    -0.281 NA
ATOM      9  N   UNL     1       8.683   5.830   9.585  0.00  0.00    -0.347 N 
ATOM     10  N   UNL     1       9.726   3.973   8.905  0.00  0.00    -0.240 NA
ATOM     13  C   UNL     1      10.895   6.318   6.127  0.00  0.00    +0.152 C 
ATOM     14  C   UNL     1      10.646   4.888   6.726  0.00  0.00    +0.086 C 
ATOM     15  C   UNL     1       9.274   7.413   7.663  0.00  0.00    +0.140 C 
ATOM     16  C   UNL     1       9.267   6.129   8.392  0.00  0.00    +0.053 A 
ATOM     17  C   UNL     1       9.904   4.980   8.000  0.00  0.00    +0.065 A 
ATOM     21  C   UNL     1       8.988   4.519   9.852  0.00  0.00    +0.197 A 
ATOM     36  H   UNL     1       8.135   6.451  10.167  0.00  0.00    +0.167 HD
ENDROOT
BRANCH  13  19
ATOM      7  O   UNL     1      12.293   7.066   4.255  0.00  0.00    -0.336 OA
ATOM     11  N   UNL     1      11.093   5.226   3.816  0.00  0.00    -0.190 NA
ATOM     12  N   UNL     1      12.603   6.704   2.937  0.00  0.00    -0.056 NA
ATOM     19  C   UNL     1      11.398   6.144   4.698  0.00  0.00    +0.245 A 
ATOM     24  C   UNL     1      11.856   5.612   2.752  0.00  0.00    +0.202 A 
BRANCH  24  28
ATOM     28  C   UNL     1      11.851   4.881   1.518  0.00  0.00    +0.022 A 
ATOM     30  C   UNL     1      12.878   3.980   1.236  0.00  0.00    +0.012 A 
ATOM     31  C   UNL     1      10.819   5.071   0.599  0.00  0.00    +0.012 A 
ATOM     32  C   UNL     1      12.873   3.268   0.038  0.00  0.00    +0.013 A 
ATOM     33  C   UNL     1      10.814   4.359  -0.601  0.00  0.00    +0.013 A 
ATOM     34  C   UNL     1      11.841   3.457  -0.882  0.00  0.00    +0.055 A 
BRANCH  34  35
ATOM      4  F   UNL     1      12.742   3.180  -3.064  0.00  0.00    -0.166 F 
ATOM      5  F   UNL     1      12.133   1.373  -2.017  0.00  0.00    -0.166 F 
ATOM      6  F   UNL     1      10.631   2.722  -2.810  0.00  0.00    -0.166 F 
ATOM     35  C   UNL     1      11.835   2.697  -2.164  0.00  0.00    +0.417 C 
ENDBRANCH  34  35
ENDBRANCH  24  28
ENDBRANCH  13  19
BRANCH   8  18
ATOM     18  C   UNL     1       9.908   8.528   5.637  0.00  0.00    +0.120 C 
BRANCH  18  20
ATOM     20  C   UNL     1       8.820   8.881   4.658  0.00  0.00    -0.033 A 
ATOM     22  C   UNL     1       7.710   9.612   5.082  0.00  0.00    +0.005 A 
ATOM     23  C   UNL     1       8.923   8.477   3.326  0.00  0.00    +0.005 A 
ATOM     25  C   UNL     1       6.703   9.938   4.174  0.00  0.00    +0.012 A 
ATOM     26  C   UNL     1       7.915   8.805   2.419  0.00  0.00    +0.012 A 
ATOM     27  C   UNL     1       6.805   9.536   2.843  0.00  0.00    +0.055 A 
BRANCH  27  29
ATOM      1  F   UNL     1       5.761   9.146   0.727  0.00  0.00    -0.166 F 
ATOM      2  F   UNL     1       5.794  11.190   1.466  0.00  0.00    -0.166 F 
ATOM      3  F   UNL     1       4.468   9.723   2.370  0.00  0.00    -0.166 F 
ATOM     29  C   UNL     1       5.729   9.888   1.872  0.00  0.00    +0.417 C 
ENDBRANCH  27  29
ENDBRANCH  18  20
ENDBRANCH   8  18
TORSDOF 6
ENDMDL
MODEL 3
REMARK VINA RESULT:      -7.2     32.109     33.272
REMARK  Name = 26744784
REMARK  6 active torsions:
REMARK  status: ('A' for Active; 'I' for Inactive)
REMARK    1  A    between atoms: N_8  and  C_18
REMARK    2  A    between atoms: C_13  and  C_19
REMARK    3  A    between atoms: C_18  and  C_20
REMARK    4  A    between atoms: C_24  and  C_28
REMARK    5  A    between atoms: C_27  and  C_29
REMARK    6  A    between atoms: C_34  and  C_35
REMARK                            x       y       z     vdW  Elec       q    Type
REMARK                         _______ _______ _______ _____ _____    ______ ____
ROOT
ATOM      8  N   UNL     1      14.333   7.654  19.535  0.00  0.00    -0.281 NA
ATOM      9  N   UNL     1      11.616   6.412  21.803  0.00  0.00    -0.347 N 
ATOM     10  N   UNL     1      10.537   8.273  21.195  0.00  0.00    -0.240 NA
ATOM     13  C   UNL     1      13.386   8.426  18.658  0.00  0.00    +0.152 C 
ATOM     14  C   UNL     1      12.212   9.079  19.470  0.00  0.00    +0.086 C 
ATOM     15  C   UNL     1      13.653   6.541  20.259  0.00  0.00    +0.140 C 
ATOM     16  C   UNL     1      12.379   7.005  20.844  0.00  0.00    +0.053 A 
ATOM     17  C   UNL     1      11.695   8.137  20.483  0.00  0.00    +0.065 A 
ATOM     21  C   UNL     1      10.517   7.213  21.981  0.00  0.00    +0.197 A 
ATOM     36  H   UNL     1      11.815   5.547  22.290  0.00  0.00    +0.167 HD
ENDROOT
BRANCH  13  19
ATOM      7  O   UNL     1      14.632  10.537  18.545  0.00  0.00    -0.336 OA
ATOM     11  N   UNL     1      14.165   9.649  16.543  0.00  0.00    -0.190 NA
ATOM     12  N   UNL     1      15.173  11.413  17.596  0.00  0.00    -0.056 NA
ATOM     19  C   UNL     1      14.058   9.526  17.841  0.00  0.00    +0.245 A 
ATOM     24  C   UNL     1      14.857  10.821  16.440  0.00  0.00    +0.202 A 
BRANCH  24  28
ATOM     28  C   UNL     1      15.218  11.373  15.167  0.00  0.00    +0.022 A 
ATOM     30  C   UNL     1      14.226  11.764  14.268  0.00  0.00    +0.012 A 
ATOM     31  C   UNL     1      16.563  11.520  14.827  0.00  0.00    +0.012 A 
ATOM     32  C   UNL     1      14.577  12.302  13.031  0.00  0.00    +0.013 A 
ATOM     33  C   UNL     1      16.915  12.058  13.589  0.00  0.00    +0.013 A 
ATOM     34  C   UNL     1      15.921  12.449  12.690  0.00  0.00    +0.055 A 
BRANCH  34  35
ATOM      4  F   UNL     1      16.824  14.279  11.471  0.00  0.00    -0.166 F 
ATOM      5  F   UNL     1      17.233  12.288  10.697  0.00  0.00    -0.166 F 
ATOM      6  F   UNL     1      15.247  13.138  10.501  0.00  0.00    -0.166 F 
ATOM     35  C   UNL     1      16.298  13.023  11.367  0.00  0.00    +0.417 C 
ENDBRANCH  34  35
ENDBRANCH  24  28
ENDBRANCH  13  19
BRANCH   8  18
ATOM     18  C   UNL     1      15.459   7.089  18.780  0.00  0.00    +0.120 C 
BRANCH  18  20
ATOM     20  C   UNL     1      16.695   6.959  19.631  0.00  0.00    -0.033 A 
ATOM     22  C   UNL     1      17.592   5.916  19.401  0.00  0.00    +0.005 A 
ATOM     23  C   UNL     1      16.942   7.881  20.648  0.00  0.00    +0.005 A 
ATOM     25  C   UNL     1      18.737   5.795  20.189  0.00  0.00    +0.012 A 
ATOM     26  C   UNL     1      18.087   7.760  21.435  0.00  0.00    +0.012 A 
ATOM     27  C   UNL     1      18.985   6.717  21.206  0.00  0.00    +0.055 A 
BRANCH  27  29
ATOM      1  F   UNL     1      20.941   5.468  21.781  0.00  0.00    -0.166 F 
ATOM      2  F   UNL     1      19.928   6.535  23.381  0.00  0.00    -0.166 F 
ATOM      3  F   UNL     1      21.085   7.628  21.899  0.00  0.00    -0.166 F 
ATOM     29  C   UNL     1      20.210   6.590  22.046  0.00  0.00    +0.417 C 
ENDBRANCH  27  29
ENDBRANCH  18  20
ENDBRANCH   8  18
TORSDOF 6
ENDMDL
MODEL 4
REMARK VINA RESULT:      -7.0     13.347     17.302
REMARK  Name = 26744784
REMARK  6 active torsions:
REMARK  status: ('A' for Active; 'I' for Inactive)
REMARK    1  A    between atoms: N_8  and  C_18
REMARK    2  A    between atoms: C_13  and  C_19
REMARK    3  A    between atoms: C_18  and  C_20
REMARK    4  A    between atoms: C_24  and  C_28
REMARK    5  A    between atoms: C_27  and  C_29
REMARK    6  A    between atoms: C_34  and  C_35
REMARK                            x       y       z     vdW  Elec       q    Type
REMARK                         _______ _______ _______ _____ _____    ______ ____
ROOT
ATOM      8  N   UNL     1      -7.758 -11.538  18.237  0.00  0.00    -0.281 NA
ATOM      9  N   UNL     1     -10.428 -10.310  20.567  0.00  0.00    -0.347 N 
ATOM     10  N   UNL     1     -11.520  -9.754  18.698  0.00  0.00    -0.240 NA
ATOM     13  C   UNL     1      -8.722 -11.817  17.117  0.00  0.00    +0.152 C 
ATOM     14  C   UNL     1      -9.881 -10.759  17.045  0.00  0.00    +0.086 C 
ATOM     15  C   UNL     1      -8.423 -11.551  19.572  0.00  0.00    +0.140 C 
ATOM     16  C   UNL     1      -9.685 -10.785  19.530  0.00  0.00    +0.053 A 
ATOM     17  C   UNL     1     -10.377 -10.439  18.398  0.00  0.00    +0.065 A 
ATOM     21  C   UNL     1     -11.524  -9.697  20.016  0.00  0.00    +0.197 A 
ATOM     36  H   UNL     1     -10.219 -10.395  21.554  0.00  0.00    +0.167 HD
ENDROOT
BRANCH  13  19
ATOM      7  O   UNL     1      -8.205 -13.059  15.065  0.00  0.00    -0.336 OA
ATOM     11  N   UNL     1      -7.381 -10.976  15.100  0.00  0.00    -0.190 NA
ATOM     12  N   UNL     1      -7.531 -12.886  13.849  0.00  0.00    -0.056 NA
ATOM     19  C   UNL     1      -8.068 -11.888  15.741  0.00  0.00    +0.245 A 
ATOM     24  C   UNL     1      -7.073 -11.635  13.945  0.00  0.00    +0.202 A 
BRANCH  24  28
ATOM     28  C   UNL     1      -6.306 -11.012  12.905  0.00  0.00    +0.022 A 
ATOM     30  C   UNL     1      -6.484  -9.658  12.622  0.00  0.00    +0.012 A 
ATOM     31  C   UNL     1      -5.382 -11.761  12.177  0.00  0.00    +0.012 A 
ATOM     32  C   UNL     1      -5.738  -9.052  11.612  0.00  0.00    +0.013 A 
ATOM     33  C   UNL     1      -4.636 -11.155  11.166  0.00  0.00    +0.013 A 
ATOM     34  C   UNL     1      -4.814  -9.800  10.883  0.00  0.00    +0.055 A 
BRANCH  34  35
ATOM      4  F   UNL     1      -4.544  -7.958   9.405  0.00  0.00    -0.166 F 
ATOM      5  F   UNL     1      -2.726  -8.884  10.161  0.00  0.00    -0.166 F 
ATOM      6  F   UNL     1      -3.921  -9.907   8.667  0.00  0.00    -0.166 F 
ATOM     35  C   UNL     1      -4.016  -9.153   9.803  0.00  0.00    +0.417 C 
ENDBRANCH  34  35
ENDBRANCH  24  28
ENDBRANCH  13  19
BRANCH   8  18
ATOM     18  C   UNL     1      -6.647 -12.498  18.270  0.00  0.00    +0.120 C 
BRANCH  18  20
ATOM     20  C   UNL     1      -5.483 -12.037  17.434  0.00  0.00    -0.033 A 
ATOM     22  C   UNL     1      -5.005 -10.733  17.563  0.00  0.00    +0.005 A 
ATOM     23  C   UNL     1      -4.882 -12.914  16.530  0.00  0.00    +0.005 A 
ATOM     25  C   UNL     1      -3.927 -10.306  16.788  0.00  0.00    +0.012 A 
ATOM     26  C   UNL     1      -3.803 -12.487  15.756  0.00  0.00    +0.012 A 
ATOM     27  C   UNL     1      -3.325 -11.183  15.885  0.00  0.00    +0.055 A 
BRANCH  27  29
ATOM      1  F   UNL     1      -1.418  -9.758  15.659  0.00  0.00    -0.166 F 
ATOM      2  F   UNL     1      -2.557 -10.200  13.861  0.00  0.00    -0.166 F 
ATOM      3  F   UNL     1      -1.289 -11.724  14.753  0.00  0.00    -0.166 F 
ATOM     29  C   UNL     1      -2.170 -10.727  15.060  0.00  0.00    +0.417 C 
ENDBRANCH  27  29
ENDBRANCH  18  20
ENDBRANCH   8  18
TORSDOF 6
ENDMDL
MODEL 5
REMARK VINA RESULT:      -7.0     36.042     39.604
REMARK  Name = 26744784
REMARK  6 active torsions:
REMARK  status: ('A' for Active; 'I' for Inactive)
REMARK    1  A    between atoms: N_8  and  C_18
REMARK    2  A    between atoms: C_13  and  C_19
REMARK    3  A    between atoms: C_18  and  C_20
REMARK    4  A    between atoms: C_24  and  C_28
REMARK    5  A    between atoms: C_27  and  C_29
REMARK    6  A    between atoms: C_34  and  C_35
REMARK                            x       y       z     vdW  Elec       q    Type
REMARK                         _______ _______ _______ _____ _____    ______ ____
ROOT
ATOM      8  N   UNL     1     -14.164   5.858  33.729  0.00  0.00    -0.281 NA
ATOM      9  N   UNL     1     -12.869   9.219  34.774  0.00  0.00    -0.347 N 
ATOM     10  N   UNL     1     -14.173  10.005  33.136  0.00  0.00    -0.240 NA
ATOM     13  C   UNL     1     -15.458   6.409  33.197  0.00  0.00    +0.152 C 
ATOM     14  C   UNL     1     -15.276   7.809  32.509  0.00  0.00    +0.086 C 
ATOM     15  C   UNL     1     -13.547   6.752  34.751  0.00  0.00    +0.140 C 
ATOM     16  C   UNL     1     -13.572   8.156  34.295  0.00  0.00    +0.053 A 
ATOM     17  C   UNL     1     -14.367   8.663  33.300  0.00  0.00    +0.065 A 
ATOM     21  C   UNL     1     -13.265  10.311  34.043  0.00  0.00    +0.197 A 
ATOM     36  H   UNL     1     -12.190   9.212  35.524  0.00  0.00    +0.167 HD
ENDROOT
BRANCH  13  19
ATOM      7  O   UNL     1     -17.358   4.979  32.594  0.00  0.00    -0.336 OA
ATOM     11  N   UNL     1     -15.778   5.107  31.012  0.00  0.00    -0.190 NA
ATOM     12  N   UNL     1     -17.802   4.177  31.535  0.00  0.00    -0.056 NA
ATOM     19  C   UNL     1     -16.161   5.489  32.204  0.00  0.00    +0.245 A 
ATOM     24  C   UNL     1     -16.817   4.303  30.641  0.00  0.00    +0.202 A 
BRANCH  24  28
ATOM     28  C   UNL     1     -16.841   3.643  29.368  0.00  0.00    +0.022 A 
ATOM     30  C   UNL     1     -16.557   4.358  28.205  0.00  0.00    +0.012 A 
ATOM     31  C   UNL     1     -17.146   2.284  29.294  0.00  0.00    +0.012 A 
ATOM     32  C   UNL     1     -16.579   3.716  26.968  0.00  0.00    +0.013 A 
ATOM     33  C   UNL     1     -17.168   1.641  28.056  0.00  0.00    +0.013 A 
ATOM     34  C   UNL     1     -16.885   2.357  26.892  0.00  0.00    +0.055 A 
BRANCH  34  35
ATOM      4  F   UNL     1     -16.461   0.381  25.640  0.00  0.00    -0.166 F 
ATOM      5  F   UNL     1     -18.153   1.595  25.013  0.00  0.00    -0.166 F 
ATOM      6  F   UNL     1     -16.131   2.276  24.623  0.00  0.00    -0.166 F 
ATOM     35  C   UNL     1     -16.909   1.670  25.570  0.00  0.00    +0.417 C 
ENDBRANCH  34  35
ENDBRANCH  24  28
ENDBRANCH  13  19
BRANCH   8  18
ATOM     18  C   UNL     1     -14.328   4.525  34.325  0.00  0.00    +0.120 C 
BRANCH  18  20
ATOM     20  C   UNL     1     -14.246   3.434  33.291  0.00  0.00    -0.033 A 
ATOM     22  C   UNL     1     -13.321   3.528  32.251  0.00  0.00    +0.005 A 
ATOM     23  C   UNL     1     -15.094   2.330  33.373  0.00  0.00    +0.005 A 
ATOM     25  C   UNL     1     -13.245   2.518  31.292  0.00  0.00    +0.012 A 
ATOM     26  C   UNL     1     -15.017   1.319  32.414  0.00  0.00    +0.012 A 
ATOM     27  C   UNL     1     -14.093   1.413  31.374  0.00  0.00    +0.055 A 
BRANCH  27  29
ATOM      1  F   UNL     1     -14.221   0.768  29.075  0.00  0.00    -0.166 F 
ATOM      2  F   UNL     1     -14.927  -0.658  30.556  0.00  0.00    -0.166 F 
ATOM      3  F   UNL     1     -12.796  -0.296  30.316  0.00  0.00    -0.166 F 
ATOM     29  C   UNL     1     -14.009   0.332  30.351  0.00  0.00    +0.417 C 
ENDBRANCH  27  29
ENDBRANCH  18  20
ENDBRANCH   8  18
TORSDOF 6
ENDMDL
MODEL 6
REMARK VINA RESULT:      -6.7     24.873     26.363
REMARK  Name = 26744784
REMARK  6 active torsions:
REMARK  status: ('A' for Active; 'I' for Inactive)
REMARK    1  A    between atoms: N_8  and  C_18
REMARK    2  A    between atoms: C_13  and  C_19
REMARK    3  A    between atoms: C_18  and  C_20
REMARK    4  A    between atoms: C_24  and  C_28
REMARK    5  A    between atoms: C_27  and  C_29
REMARK    6  A    between atoms: C_34  and  C_35
REMARK                            x       y       z     vdW  Elec       q    Type
REMARK                         _______ _______ _______ _____ _____    ______ ____
ROOT
ATOM      8  N   UNL     1      12.064   6.627   4.854  0.00  0.00    -0.281 NA
ATOM      9  N   UNL     1       9.511   4.972   7.047  0.00  0.00    -0.347 N 
ATOM     10  N   UNL     1      10.854   5.583   8.726  0.00  0.00    -0.240 NA
ATOM     13  C   UNL     1      12.516   7.579   5.927  0.00  0.00    +0.152 C 
ATOM     14  C   UNL     1      12.514   6.921   7.353  0.00  0.00    +0.086 C 
ATOM     15  C   UNL     1      10.676   6.132   5.086  0.00  0.00    +0.140 C 
ATOM     16  C   UNL     1      10.498   5.731   6.496  0.00  0.00    +0.053 A 
ATOM     17  C   UNL     1      11.302   6.099   7.543  0.00  0.00    +0.065 A 
ATOM     21  C   UNL     1       9.768   4.911   8.393  0.00  0.00    +0.197 A 
ATOM     36  H   UNL     1       8.734   4.539   6.564  0.00  0.00    +0.167 HD
ENDROOT
BRANCH  13  19
ATOM      7  O   UNL     1      13.965   9.509   5.484  0.00  0.00    -0.336 OA
ATOM     11  N   UNL     1      15.065   7.565   5.644  0.00  0.00    -0.190 NA
ATOM     12  N   UNL     1      15.318   9.811   5.288  0.00  0.00    -0.056 NA
ATOM     19  C   UNL     1      13.903   8.167   5.687  0.00  0.00    +0.245 A 
ATOM     24  C   UNL     1      15.902   8.614   5.397  0.00  0.00    +0.202 A 
BRANCH  24  28
ATOM     28  C   UNL     1      17.319   8.432   5.266  0.00  0.00    +0.022 A 
ATOM     30  C   UNL     1      18.153   8.642   6.364  0.00  0.00    +0.012 A 
ATOM     31  C   UNL     1      17.862   8.044   4.042  0.00  0.00    +0.012 A 
ATOM     32  C   UNL     1      19.530   8.463   6.238  0.00  0.00    +0.013 A 
ATOM     33  C   UNL     1      19.240   7.865   3.915  0.00  0.00    +0.013 A 
ATOM     34  C   UNL     1      20.074   8.076   5.014  0.00  0.00    +0.055 A 
BRANCH  34  35
ATOM      4  F   UNL     1      21.914   6.572   4.947  0.00  0.00    -0.166 F 
ATOM      5  F   UNL     1      22.052   8.345   3.695  0.00  0.00    -0.166 F 
ATOM      6  F   UNL     1      22.273   8.519   5.846  0.00  0.00    -0.166 F 
ATOM     35  C   UNL     1      21.547   7.885   4.878  0.00  0.00    +0.417 C 
ENDBRANCH  34  35
ENDBRANCH  24  28
ENDBRANCH  13  19
BRANCH   8  18
ATOM     18  C   UNL     1      12.117   7.229   3.515  0.00  0.00    +0.120 C 
BRANCH  18  20
ATOM     20  C   UNL     1      13.065   6.492   2.607  0.00  0.00    -0.033 A 
ATOM     22  C   UNL     1      12.748   5.209   2.161  0.00  0.00    +0.005 A 
ATOM     23  C   UNL     1      14.261   7.093   2.212  0.00  0.00    +0.005 A 
ATOM     25  C   UNL     1      13.627   4.526   1.320  0.00  0.00    +0.012 A 
ATOM     26  C   UNL     1      15.139   6.410   1.370  0.00  0.00    +0.012 A 
ATOM     27  C   UNL     1      14.822   5.127   0.924  0.00  0.00    +0.055 A 
BRANCH  27  29
ATOM      1  F   UNL     1      16.767   5.178  -0.467  0.00  0.00    -0.166 F 
ATOM      2  F   UNL     1      15.135   3.877  -1.075  0.00  0.00    -0.166 F 
ATOM      3  F   UNL     1      16.386   3.342   0.622  0.00  0.00    -0.166 F 
ATOM     29  C   UNL     1      15.759   4.397   0.022  0.00  0.00    +0.417 C 
ENDBRANCH  27  29
ENDBRANCH  18  20
ENDBRANCH   8  18
TORSDOF 6
ENDMDL
MODEL 7
REMARK VINA RESULT:      -6.7     22.346     24.188
REMARK  Name = 26744784
REMARK  6 active torsions:
REMARK  status: ('A' for Active; 'I' for Inactive)
REMARK    1  A    between atoms: N_8  and  C_18
REMARK    2  A    between atoms: C_13  and  C_19
REMARK    3  A    between atoms: C_18  and  C_20
REMARK    4  A    between atoms: C_24  and  C_28
REMARK    5  A    between atoms: C_27  and  C_29
REMARK    6  A    between atoms: C_34  and  C_35
REMARK                            x       y       z     vdW  Elec       q    Type
REMARK                         _______ _______ _______ _____ _____    ______ ____
ROOT
ATOM      8  N   UNL     1       8.883   8.655   0.422  0.00  0.00    -0.281 NA
ATOM      9  N   UNL     1       6.297   9.210  -2.238  0.00  0.00    -0.347 N 
ATOM     10  N   UNL     1       4.906   9.569  -0.525  0.00  0.00    -0.240 NA
ATOM     13  C   UNL     1       8.192   9.541   1.421  0.00  0.00    +0.152 C 
ATOM     14  C   UNL     1       6.627   9.438   1.333  0.00  0.00    +0.086 C 
ATOM     15  C   UNL     1       8.518   8.996  -0.984  0.00  0.00    +0.140 C 
ATOM     16  C   UNL     1       7.058   9.184  -1.109  0.00  0.00    +0.053 A 
ATOM     17  C   UNL     1       6.187   9.412  -0.077  0.00  0.00    +0.065 A 
ATOM     21  C   UNL     1       5.007   9.445  -1.835  0.00  0.00    +0.197 A 
ATOM     36  H   UNL     1       6.616   9.087  -3.190  0.00  0.00    +0.167 HD
ENDROOT
BRANCH  13  19
ATOM      7  O   UNL     1       9.156  10.314   3.540  0.00  0.00    -0.336 OA
ATOM     11  N   UNL     1       8.486   8.177   3.572  0.00  0.00    -0.190 NA
ATOM     12  N   UNL     1       9.440   9.836   4.826  0.00  0.00    -0.056 NA
ATOM     19  C   UNL     1       8.596   9.275   2.867  0.00  0.00    +0.245 A 
ATOM     24  C   UNL     1       9.017   8.570   4.766  0.00  0.00    +0.202 A 
BRANCH  24  28
ATOM     28  C   UNL     1       9.107   7.673   5.881  0.00  0.00    +0.022 A 
ATOM     30  C   UNL     1       8.891   8.145   7.176  0.00  0.00    +0.012 A 
ATOM     31  C   UNL     1       9.411   6.327   5.672  0.00  0.00    +0.012 A 
ATOM     32  C   UNL     1       8.978   7.272   8.260  0.00  0.00    +0.013 A 
ATOM     33  C   UNL     1       9.498   5.455   6.756  0.00  0.00    +0.013 A 
ATOM     34  C   UNL     1       9.281   5.928   8.051  0.00  0.00    +0.055 A 
BRANCH  34  35
ATOM      4  F   UNL     1       9.479   3.688   8.825  0.00  0.00    -0.166 F 
ATOM      5  F   UNL     1      10.453   5.226  10.015  0.00  0.00    -0.166 F 
ATOM      6  F   UNL     1       8.292   5.045  10.043  0.00  0.00    -0.166 F 
ATOM     35  C   UNL     1       9.375   4.994   9.210  0.00  0.00    +0.417 C 
ENDBRANCH  34  35
ENDBRANCH  24  28
ENDBRANCH  13  19
BRANCH   8  18
ATOM     18  C   UNL     1      10.346   8.714   0.541  0.00  0.00    +0.120 C 
BRANCH  18  20
ATOM     20  C   UNL     1      10.942   7.356   0.801  0.00  0.00    -0.033 A 
ATOM     22  C   UNL     1      11.541   7.082   2.031  0.00  0.00    +0.005 A 
ATOM     23  C   UNL     1      10.896   6.373  -0.188  0.00  0.00    +0.005 A 
ATOM     25  C   UNL     1      12.093   5.824   2.272  0.00  0.00    +0.012 A 
ATOM     26  C   UNL     1      11.448   5.115   0.054  0.00  0.00    +0.012 A 
ATOM     27  C   UNL     1      12.046   4.840   1.284  0.00  0.00    +0.055 A 
BRANCH  27  29
ATOM      1  F   UNL     1      13.893   3.540   2.071  0.00  0.00    -0.166 F 
ATOM      2  F   UNL     1      12.740   2.740   0.410  0.00  0.00    -0.166 F 
ATOM      3  F   UNL     1      11.908   2.739   2.419  0.00  0.00    -0.166 F 
ATOM     29  C   UNL     1      12.634   3.495   1.543  0.00  0.00    +0.417 C 
ENDBRANCH  27  29
ENDBRANCH  18  20
ENDBRANCH   8  18
TORSDOF 6
ENDMDL
MODEL 8
REMARK VINA RESULT:      -6.6     10.190     14.845
REMARK  Name = 26744784
REMARK  6 active torsions:
REMARK  status: ('A' for Active; 'I' for Inactive)
REMARK    1  A    between atoms: N_8  and  C_18
REMARK    2  A    between atoms: C_13  and  C_19
REMARK    3  A    between atoms: C_18  and  C_20
REMARK    4  A    between atoms: C_24  and  C_28
REMARK    5  A    between atoms: C_27  and  C_29
REMARK    6  A    between atoms: C_34  and  C_35
REMARK                            x       y       z     vdW  Elec       q    Type
REMARK                         _______ _______ _______ _____ _____    ______ ____
ROOT
ATOM      8  N   UNL     1      -6.691 -11.169   6.629  0.00  0.00    -0.281 NA
ATOM      9  N   UNL     1      -6.480 -12.662   3.195  0.00  0.00    -0.347 N 
ATOM     10  N   UNL     1      -4.269 -12.508   3.484  0.00  0.00    -0.240 NA
ATOM     13  C   UNL     1      -5.357 -11.714   7.058  0.00  0.00    +0.152 C 
ATOM     14  C   UNL     1      -4.305 -11.711   5.892  0.00  0.00    +0.086 C 
ATOM     15  C   UNL     1      -7.294 -11.961   5.517  0.00  0.00    +0.140 C 
ATOM     16  C   UNL     1      -6.286 -12.240   4.475  0.00  0.00    +0.053 A 
ATOM     17  C   UNL     1      -4.927 -12.161   4.630  0.00  0.00    +0.065 A 
ATOM     21  C   UNL     1      -5.235 -12.809   2.638  0.00  0.00    +0.197 A 
ATOM     36  H   UNL     1      -7.367 -12.838   2.740  0.00  0.00    +0.167 HD
ENDROOT
BRANCH  13  19
ATOM      7  O   UNL     1      -4.594  -9.633   8.112  0.00  0.00    -0.336 OA
ATOM     11  N   UNL     1      -4.322 -11.453   9.389  0.00  0.00    -0.190 NA
ATOM     12  N   UNL     1      -4.016  -9.187   9.307  0.00  0.00    -0.056 NA
ATOM     19  C   UNL     1      -4.741 -10.978   8.244  0.00  0.00    +0.245 A 
ATOM     24  C   UNL     1      -3.886 -10.318  10.008  0.00  0.00    +0.202 A 
BRANCH  24  28
ATOM     28  C   UNL     1      -3.328 -10.346  11.329  0.00  0.00    +0.022 A 
ATOM     30  C   UNL     1      -1.995  -9.987  11.531  0.00  0.00    +0.012 A 
ATOM     31  C   UNL     1      -4.117 -10.733  12.412  0.00  0.00    +0.012 A 
ATOM     32  C   UNL     1      -1.453 -10.013  12.815  0.00  0.00    +0.013 A 
ATOM     33  C   UNL     1      -3.575 -10.760  13.696  0.00  0.00    +0.013 A 
ATOM     34  C   UNL     1      -2.241 -10.400  13.898  0.00  0.00    +0.055 A 
BRANCH  34  35
ATOM      4  F   UNL     1      -0.849  -9.361  15.520  0.00  0.00    -0.166 F 
ATOM      5  F   UNL     1      -2.601 -10.415  16.263  0.00  0.00    -0.166 F 
ATOM      6  F   UNL     1      -0.898 -11.535  15.520  0.00  0.00    -0.166 F 
ATOM     35  C   UNL     1      -1.662 -10.429  15.271  0.00  0.00    +0.417 C 
ENDBRANCH  34  35
ENDBRANCH  24  28
ENDBRANCH  13  19
BRANCH   8  18
ATOM     18  C   UNL     1      -7.657 -11.124   7.735  0.00  0.00    +0.120 C 
BRANCH  18  20
ATOM     20  C   UNL     1      -8.213  -9.739   7.937  0.00  0.00    -0.033 A 
ATOM     22  C   UNL     1      -9.197  -9.517   8.901  0.00  0.00    +0.005 A 
ATOM     23  C   UNL     1      -7.744  -8.679   7.161  0.00  0.00    +0.005 A 
ATOM     25  C   UNL     1      -9.712  -8.235   9.088  0.00  0.00    +0.012 A 
ATOM     26  C   UNL     1      -8.259  -7.396   7.349  0.00  0.00    +0.012 A 
ATOM     27  C   UNL     1      -9.243  -7.174   8.313  0.00  0.00    +0.055 A 
BRANCH  27  29
ATOM      1  F   UNL     1      -8.835  -4.829   8.543  0.00  0.00    -0.166 F 
ATOM      2  F   UNL     1     -10.473  -5.678   9.692  0.00  0.00    -0.166 F 
ATOM      3  F   UNL     1     -10.668  -5.415   7.543  0.00  0.00    -0.166 F 
ATOM     29  C   UNL     1      -9.792  -5.802   8.516  0.00  0.00    +0.417 C 
ENDBRANCH  27  29
ENDBRANCH  18  20
ENDBRANCH   8  18
TORSDOF 6
ENDMDL
MODEL 9
REMARK VINA RESULT:      -6.6     17.204     21.142
REMARK  Name = 26744784
REMARK  6 active torsions:
REMARK  status: ('A' for Active; 'I' for Inactive)
REMARK    1  A    between atoms: N_8  and  C_18
REMARK    2  A    between atoms: C_13  and  C_19
REMARK    3  A    between atoms: C_18  and  C_20
REMARK    4  A    between atoms: C_24  and  C_28
REMARK    5  A    between atoms: C_27  and  C_29
REMARK    6  A    between atoms: C_34  and  C_35
REMARK                            x       y       z     vdW  Elec       q    Type
REMARK                         _______ _______ _______ _____ _____    ______ ____
ROOT
ATOM      8  N   UNL     1     -10.715 -11.971  19.102  0.00  0.00    -0.281 NA
ATOM      9  N   UNL     1     -12.910 -15.012  19.088  0.00  0.00    -0.347 N 
ATOM     10  N   UNL     1     -11.011 -16.131  18.715  0.00  0.00    -0.240 NA
ATOM     13  C   UNL     1      -9.497 -12.727  19.555  0.00  0.00    +0.152 C 
ATOM     14  C   UNL     1      -9.420 -14.168  18.934  0.00  0.00    +0.086 C 
ATOM     15  C   UNL     1     -11.982 -12.660  19.482  0.00  0.00    +0.140 C 
ATOM     16  C   UNL     1     -11.901 -14.101  19.173  0.00  0.00    +0.053 A 
ATOM     17  C   UNL     1     -10.750 -14.811  18.948  0.00  0.00    +0.065 A 
ATOM     21  C   UNL     1     -12.324 -16.221  18.810  0.00  0.00    +0.197 A 
ATOM     36  H   UNL     1     -13.899 -14.837  19.209  0.00  0.00    +0.167 HD
ENDROOT
BRANCH  13  19
ATOM      7  O   UNL     1      -7.774 -11.086  20.153  0.00  0.00    -0.336 OA
ATOM     11  N   UNL     1      -7.368 -12.174  18.238  0.00  0.00    -0.190 NA
ATOM     12  N   UNL     1      -6.561 -10.580  19.668  0.00  0.00    -0.056 NA
ATOM     19  C   UNL     1      -8.180 -12.019  19.252  0.00  0.00    +0.245 A 
ATOM     24  C   UNL     1      -6.390 -11.270  18.536  0.00  0.00    +0.202 A 
BRANCH  24  28
ATOM     28  C   UNL     1      -5.252 -11.082  17.683  0.00  0.00    +0.022 A 
ATOM     30  C   UNL     1      -3.982 -11.453  18.123  0.00  0.00    +0.012 A 
ATOM     31  C   UNL     1      -5.416 -10.530  16.413  0.00  0.00    +0.012 A 
ATOM     32  C   UNL     1      -2.876 -11.272  17.294  0.00  0.00    +0.013 A 
ATOM     33  C   UNL     1      -4.310 -10.348  15.583  0.00  0.00    +0.013 A 
ATOM     34  C   UNL     1      -3.039 -10.719  16.024  0.00  0.00    +0.055 A 
BRANCH  34  35
ATOM      4  F   UNL     1      -1.028  -9.533  15.577  0.00  0.00    -0.166 F 
ATOM      5  F   UNL     1      -1.070 -11.635  15.021  0.00  0.00    -0.166 F 
ATOM      6  F   UNL     1      -2.184 -10.186  13.854  0.00  0.00    -0.166 F 
ATOM     35  C   UNL     1      -1.857 -10.525  15.137  0.00  0.00    +0.417 C 
ENDBRANCH  34  35
ENDBRANCH  24  28
ENDBRANCH  13  19
BRANCH   8  18
ATOM     18  C   UNL     1     -10.757 -10.605  19.642  0.00  0.00    +0.120 C 
BRANCH  18  20
ATOM     20  C   UNL     1     -10.869  -9.574  18.550  0.00  0.00    -0.033 A 
ATOM     22  C   UNL     1     -12.121  -9.235  18.037  0.00  0.00    +0.005 A 
ATOM     23  C   UNL     1      -9.720  -8.958  18.052  0.00  0.00    +0.005 A 
ATOM     25  C   UNL     1     -12.224  -8.280  17.026  0.00  0.00    +0.012 A 
ATOM     26  C   UNL     1      -9.825  -8.002  17.041  0.00  0.00    +0.012 A 
ATOM     27  C   UNL     1     -11.077  -7.663  16.528  0.00  0.00    +0.055 A 
BRANCH  27  29
ATOM      1  F   UNL     1     -10.057  -5.895  15.282  0.00  0.00    -0.166 F 
ATOM      2  F   UNL     1     -12.188  -5.739  15.681  0.00  0.00    -0.166 F 
ATOM      3  F   UNL     1     -11.452  -7.170  14.218  0.00  0.00    -0.166 F 
ATOM     29  C   UNL     1     -11.188  -6.640  15.449  0.00  0.00    +0.417 C 
ENDBRANCH  27  29
ENDBRANCH  18  20
ENDBRANCH   8  18
TORSDOF 6
ENDMDL
MODEL 10
REMARK VINA RESULT:      -6.6     11.942     15.978
REMARK  Name = 26744784
REMARK  6 active torsions:
REMARK  status: ('A' for Active; 'I' for Inactive)
REMARK    1  A    between atoms: N_8  and  C_18
REMARK    2  A    between atoms: C_13  and  C_19
REMARK    3  A    between atoms: C_18  and  C_20
REMARK    4  A    between atoms: C_24  and  C_28
REMARK    5  A    between atoms: C_27  and  C_29
REMARK    6  A    between atoms: C_34  and  C_35
REMARK                            x       y       z     vdW  Elec       q    Type
REMARK                         _______ _______ _______ _____ _____    ______ ____
ROOT
ATOM      8  N   UNL     1      -8.296  -9.274   7.370  0.00  0.00    -0.281 NA
ATOM      9  N   UNL     1      -9.016 -10.209   3.810  0.00  0.00    -0.347 N 
ATOM     10  N   UNL     1      -6.816 -10.583   3.676  0.00  0.00    -0.240 NA
ATOM     13  C   UNL     1      -7.081 -10.154   7.461  0.00  0.00    +0.152 C 
ATOM     14  C   UNL     1      -6.264 -10.192   6.120  0.00  0.00    +0.086 C 
ATOM     15  C   UNL     1      -9.245  -9.729   6.313  0.00  0.00    +0.140 C 
ATOM     16  C   UNL     1      -8.519 -10.049   5.067  0.00  0.00    +0.053 A 
ATOM     17  C   UNL     1      -7.174 -10.290   4.961  0.00  0.00    +0.065 A 
ATOM     21  C   UNL     1      -7.951 -10.530   3.006  0.00  0.00    +0.197 A 
ATOM     36  H   UNL     1      -9.981 -10.116   3.520  0.00  0.00    +0.167 HD
ENDROOT
BRANCH  13  19
ATOM      7  O   UNL     1      -5.705  -8.473   8.603  0.00  0.00    -0.336 OA
ATOM     11  N   UNL     1      -5.624 -10.505   9.542  0.00  0.00    -0.190 NA
ATOM     12  N   UNL     1      -4.843  -8.360   9.701  0.00  0.00    -0.056 NA
ATOM     19  C   UNL     1      -6.120  -9.767   8.581  0.00  0.00    +0.245 A 
ATOM     24  C   UNL     1      -4.846  -9.599  10.203  0.00  0.00    +0.202 A 
BRANCH  24  28
ATOM     28  C   UNL     1      -4.087  -9.963  11.363  0.00  0.00    +0.022 A 
ATOM     30  C   UNL     1      -4.739 -10.262  12.559  0.00  0.00    +0.012 A 
ATOM     31  C   UNL     1      -2.694 -10.019  11.296  0.00  0.00    +0.012 A 
ATOM     32  C   UNL     1      -4.001 -10.618  13.687  0.00  0.00    +0.013 A 
ATOM     33  C   UNL     1      -1.955 -10.375  12.425  0.00  0.00    +0.013 A 
ATOM     34  C   UNL     1      -2.609 -10.674  13.621  0.00  0.00    +0.055 A 
BRANCH  34  35
ATOM      4  F   UNL     1      -2.603 -11.245  15.928  0.00  0.00    -0.166 F 
ATOM      5  F   UNL     1      -1.110 -12.210  14.675  0.00  0.00    -0.166 F 
ATOM      6  F   UNL     1      -0.896 -10.115  15.195  0.00  0.00    -0.166 F 
ATOM     35  C   UNL     1      -1.819 -11.053  14.827  0.00  0.00    +0.417 C 
ENDBRANCH  34  35
ENDBRANCH  24  28
ENDBRANCH  13  19
BRANCH   8  18
ATOM     18  C   UNL     1      -9.028  -9.199   8.641  0.00  0.00    +0.120 C 
BRANCH  18  20
ATOM     20  C   UNL     1      -9.638  -7.839   8.857  0.00  0.00    -0.033 A 
ATOM     22  C   UNL     1     -10.870  -7.722   9.500  0.00  0.00    +0.005 A 
ATOM     23  C   UNL     1      -8.971  -6.697   8.413  0.00  0.00    +0.005 A 
ATOM     25  C   UNL     1     -11.435  -6.463   9.700  0.00  0.00    +0.012 A 
ATOM     26  C   UNL     1      -9.536  -5.437   8.614  0.00  0.00    +0.012 A 
ATOM     27  C   UNL     1     -10.769  -5.320   9.257  0.00  0.00    +0.055 A 
BRANCH  27  29
ATOM      1  F   UNL     1     -12.534  -3.778   8.786  0.00  0.00    -0.166 F 
ATOM      2  F   UNL     1     -10.544  -2.959   9.088  0.00  0.00    -0.166 F 
ATOM      3  F   UNL     1     -11.682  -3.717  10.779  0.00  0.00    -0.166 F 
ATOM     29  C   UNL     1     -11.372  -3.974   9.474  0.00  0.00    +0.417 C 
ENDBRANCH  27  29
ENDBRANCH  18  20
ENDBRANCH   8  18
TORSDOF 6
ENDMDL
