MODEL 1
REMARK VINA RESULT:      -7.8      0.000      0.000
REMARK  Name = 11912138
REMARK  8 active torsions:
REMARK  status: ('A' for Active; 'I' for Inactive)
REMARK    1  A    between atoms: S_1  and  N_8
REMARK    2  A    between atoms: S_1  and  C_32
REMARK    3  A    between atoms: N_9  and  C_21
REMARK    4  A    between atoms: C_12  and  C_15
REMARK    5  A    between atoms: C_15  and  C_21
REMARK    6  A    between atoms: C_16  and  C_26
REMARK    7  A    between atoms: C_21  and  C_31
REMARK    8  A    between atoms: C_22  and  C_25
REMARK                            x       y       z     vdW  Elec       q    Type
REMARK                         _______ _______ _______ _____ _____    ______ ____
ROOT
ATOM      2  O   UNL     1      13.187  12.979  22.784  0.00  0.00    -0.275 OA
ATOM      7  N   UNL     1      12.288  10.908  22.223  0.00  0.00    -0.298 N 
ATOM      8  N   UNL     1      12.271   8.609  20.500  0.00  0.00    -0.162 NA
ATOM     16  C   UNL     1      13.432   9.543  20.477  0.00  0.00    +0.183 C 
ATOM     20  C   UNL     1      13.566  10.367  21.755  0.00  0.00    +0.137 C 
ATOM     23  C   UNL     1      11.132  10.008  22.160  0.00  0.00    +0.125 C 
ATOM     24  C   UNL     1      11.516   8.584  21.780  0.00  0.00    +0.129 C 
ATOM     25  C   UNL     1      12.225  12.209  22.724  0.00  0.00    +0.219 C 
ENDROOT
BRANCH  25  22
ATOM     10  N   UNL     1      11.169  14.918  25.066  0.00  0.00    -0.316 NA
ATOM     22  C   UNL     1      10.878  12.662  23.214  0.00  0.00    +0.078 C 
ATOM     27  C   UNL     1      10.769  12.500  24.732  0.00  0.00    +0.028 C 
ATOM     28  C   UNL     1      10.605  14.109  22.797  0.00  0.00    +0.028 C 
ATOM     29  C   UNL     1      11.555  13.572  25.488  0.00  0.00    +0.081 C 
ATOM     30  C   UNL     1      11.400  15.113  23.635  0.00  0.00    +0.081 C 
ATOM     39  H   UNL     1      11.711  15.605  25.591  0.00  0.00    +0.122 HD
ENDBRANCH  25  22
BRANCH  16  26
ATOM      3  O   UNL     1      12.705  11.546  19.408  0.00  0.00    -0.274 OA
ATOM      9  N   UNL     1      13.523   9.801  18.101  0.00  0.00    -0.303 N 
ATOM     26  C   UNL     1      13.181  10.419  19.291  0.00  0.00    +0.234 C 
ATOM     38  H   UNL     1      13.848   8.839  18.118  0.00  0.00    +0.149 HD
BRANCH   9  21
ATOM     21  C   UNL     1      13.356  10.426  16.810  0.00  0.00    +0.159 C 
BRANCH  21  31
ATOM      6  O   UNL     1      13.448   8.498  15.332  0.00  0.00    -0.274 OA
ATOM     11  N   UNL     1      11.449   9.605  15.566  0.00  0.00    -0.328 N 
ATOM     31  C   UNL     1      12.784   9.398  15.840  0.00  0.00    +0.231 C 
ATOM     40  H   UNL     1      10.918  10.365  15.977  0.00  0.00    +0.145 HD
ATOM     41  H   UNL     1      10.949   8.994  14.928  0.00  0.00    +0.145 HD
ENDBRANCH  21  31
BRANCH  21  15
ATOM     15  C   UNL     1      14.653  11.062  16.302  0.00  0.00    +0.035 C 
BRANCH  15  12
ATOM     12  C   UNL     1      14.550  11.662  14.899  0.00  0.00    -0.009 C 
ATOM     13  C   UNL     1      15.792  11.313  14.069  0.00  0.00    +0.003 C 
ATOM     14  C   UNL     1      14.350  13.182  14.973  0.00  0.00    +0.003 C 
ATOM     17  C   UNL     1      15.737  11.947  12.680  0.00  0.00    +0.000 C 
ATOM     18  C   UNL     1      14.297  13.811  13.583  0.00  0.00    +0.000 C 
ATOM     19  C   UNL     1      15.529  13.455  12.757  0.00  0.00    +0.000 C 
ENDBRANCH  15  12
ENDBRANCH  21  15
ENDBRANCH   9  21
ENDBRANCH  16  26
BRANCH   8   1
ATOM      1  S   UNL     1      12.482   7.100  19.722  0.00  0.00    +0.062 S 
ATOM      4  O   UNL     1      12.266   7.267  18.300  0.00  0.00    -0.153 OA
ATOM      5  O   UNL     1      11.776   6.082  20.469  0.00  0.00    -0.153 OA
BRANCH   1  32
ATOM     32  C   UNL     1      14.213   6.861  19.979  0.00  0.00    +0.106 A 
ATOM     33  C   UNL     1      14.720   6.783  21.276  0.00  0.00    +0.028 A 
ATOM     34  C   UNL     1      15.072   6.750  18.887  0.00  0.00    +0.028 A 
ATOM     35  C   UNL     1      16.087   6.594  21.481  0.00  0.00    +0.002 A 
ATOM     36  C   UNL     1      16.439   6.561  19.090  0.00  0.00    +0.002 A 
ATOM     37  C   UNL     1      16.947   6.484  20.387  0.00  0.00    +0.000 A 
ENDBRANCH   1  32
ENDBRANCH   8   1
TORSDOF 8
ENDMDL
MODEL 2
REMARK VINA RESULT:      -7.8     13.237     16.384
REMARK  Name = 11912138
REMARK  8 active torsions:
REMARK  status: ('A' for Active; 'I' for Inactive)
REMARK    1  A    between atoms: S_1  and  N_8
REMARK    2  A    between atoms: S_1  and  C_32
REMARK    3  A    between atoms: N_9  and  C_21
REMARK    4  A    between atoms: C_12  and  C_15
REMARK    5  A    between atoms: C_15  and  C_21
REMARK    6  A    between atoms: C_16  and  C_26
REMARK    7  A    between atoms: C_21  and  C_31
REMARK    8  A    between atoms: C_22  and  C_25
REMARK                            x       y       z     vdW  Elec       q    Type
REMARK                         _______ _______ _______ _____ _____    ______ ____
ROOT
ATOM      2  O   UNL     1      15.803   7.922   5.725  0.00  0.00    -0.275 OA
ATOM      7  N   UNL     1      13.561   8.510   5.915  0.00  0.00    -0.298 N 
ATOM      8  N   UNL     1      10.793   7.847   5.529  0.00  0.00    -0.162 NA
ATOM     16  C   UNL     1      11.828   6.776   5.459  0.00  0.00    +0.183 C 
ATOM     20  C   UNL     1      13.120   7.141   6.186  0.00  0.00    +0.137 C 
ATOM     23  C   UNL     1      12.522   9.544   5.900  0.00  0.00    +0.125 C 
ATOM     24  C   UNL     1      11.167   9.021   6.358  0.00  0.00    +0.129 C 
ATOM     25  C   UNL     1      14.916   8.778   5.717  0.00  0.00    +0.219 C 
ENDROOT
BRANCH  25  22
ATOM     10  N   UNL     1      18.038  10.439   4.517  0.00  0.00    -0.316 NA
ATOM     22  C   UNL     1      15.277  10.218   5.482  0.00  0.00    +0.078 C 
ATOM     27  C   UNL     1      16.433  10.645   6.388  0.00  0.00    +0.028 C 
ATOM     28  C   UNL     1      15.617  10.462   4.009  0.00  0.00    +0.028 C 
ATOM     29  C   UNL     1      17.777  10.091   5.913  0.00  0.00    +0.081 C 
ATOM     30  C   UNL     1      16.996   9.915   3.636  0.00  0.00    +0.081 C 
ATOM     39  H   UNL     1      18.941  10.056   4.237  0.00  0.00    +0.122 HD
ENDBRANCH  25  22
BRANCH  16  26
ATOM      3  O   UNL     1      12.588   7.457   3.304  0.00  0.00    -0.274 OA
ATOM      9  N   UNL     1      11.615   5.356   3.546  0.00  0.00    -0.303 N 
ATOM     26  C   UNL     1      12.066   6.585   3.995  0.00  0.00    +0.234 C 
ATOM     38  H   UNL     1      11.139   4.737   4.195  0.00  0.00    +0.149 HD
BRANCH   9  21
ATOM     21  C   UNL     1      11.707   4.935   2.168  0.00  0.00    +0.159 C 
BRANCH  21  31
ATOM      6  O   UNL     1       9.762   4.270   0.871  0.00  0.00    -0.274 OA
ATOM     11  N   UNL     1       9.871   6.426   1.654  0.00  0.00    -0.328 N 
ATOM     31  C   UNL     1      10.351   5.143   1.502  0.00  0.00    +0.231 C 
ATOM     40  H   UNL     1      10.378   7.144   2.161  0.00  0.00    +0.145 HD
ATOM     41  H   UNL     1       8.980   6.699   1.252  0.00  0.00    +0.145 HD
ENDBRANCH  21  31
BRANCH  21  15
ATOM     15  C   UNL     1      12.219   3.498   2.033  0.00  0.00    +0.035 C 
BRANCH  15  12
ATOM     12  C   UNL     1      13.347   3.328   1.015  0.00  0.00    -0.009 C 
ATOM     13  C   UNL     1      14.674   3.842   1.588  0.00  0.00    +0.003 C 
ATOM     14  C   UNL     1      13.004   4.044  -0.298  0.00  0.00    +0.003 C 
ATOM     17  C   UNL     1      15.807   3.732   0.569  0.00  0.00    +0.000 C 
ATOM     18  C   UNL     1      14.139   3.933  -1.314  0.00  0.00    +0.000 C 
ATOM     19  C   UNL     1      15.459   4.436  -0.738  0.00  0.00    +0.000 C 
ENDBRANCH  15  12
ENDBRANCH  21  15
ENDBRANCH   9  21
ENDBRANCH  16  26
BRANCH   8   1
ATOM      1  S   UNL     1       9.165   7.334   5.641  0.00  0.00    +0.062 S 
ATOM      4  O   UNL     1       8.820   6.590   4.448  0.00  0.00    -0.153 OA
ATOM      5  O   UNL     1       8.351   8.444   6.087  0.00  0.00    -0.153 OA
BRANCH   1  32
ATOM     32  C   UNL     1       9.294   6.184   6.974  0.00  0.00    +0.106 A 
ATOM     33  C   UNL     1       9.044   6.602   8.281  0.00  0.00    +0.028 A 
ATOM     34  C   UNL     1       9.646   4.859   6.721  0.00  0.00    +0.028 A 
ATOM     35  C   UNL     1       9.146   5.694   9.336  0.00  0.00    +0.002 A 
ATOM     36  C   UNL     1       9.747   3.950   7.774  0.00  0.00    +0.002 A 
ATOM     37  C   UNL     1       9.498   4.368   9.081  0.00  0.00    +0.000 A 
ENDBRANCH   1  32
ENDBRANCH   8   1
TORSDOF 8
ENDMDL
MODEL 3
REMARK VINA RESULT:      -7.6      3.159      6.899
REMARK  Name = 11912138
REMARK  8 active torsions:
REMARK  status: ('A' for Active; 'I' for Inactive)
REMARK    1  A    between atoms: S_1  and  N_8
REMARK    2  A    between atoms: S_1  and  C_32
REMARK    3  A    between atoms: N_9  and  C_21
REMARK    4  A    between atoms: C_12  and  C_15
REMARK    5  A    between atoms: C_15  and  C_21
REMARK    6  A    between atoms: C_16  and  C_26
REMARK    7  A    between atoms: C_21  and  C_31
REMARK    8  A    between atoms: C_22  and  C_25
REMARK                            x       y       z     vdW  Elec       q    Type
REMARK                         _______ _______ _______ _____ _____    ______ ____
ROOT
ATOM      2  O   UNL     1      15.870  11.091  19.937  0.00  0.00    -0.275 OA
ATOM      7  N   UNL     1      14.374  12.203  21.328  0.00  0.00    -0.298 N 
ATOM      8  N   UNL     1      12.228  12.095  23.235  0.00  0.00    -0.162 NA
ATOM     16  C   UNL     1      13.012  10.864  22.931  0.00  0.00    +0.183 C 
ATOM     20  C   UNL     1      14.394  11.159  22.354  0.00  0.00    +0.137 C 
ATOM     23  C   UNL     1      13.531  13.372  21.597  0.00  0.00    +0.125 C 
ATOM     24  C   UNL     1      12.958  13.369  23.008  0.00  0.00    +0.129 C 
ATOM     25  C   UNL     1      15.156  12.066  20.180  0.00  0.00    +0.219 C 
ENDROOT
BRANCH  25  22
ATOM     10  N   UNL     1      16.730  12.612  16.838  0.00  0.00    -0.316 NA
ATOM     22  C   UNL     1      15.098  13.206  19.202  0.00  0.00    +0.078 C 
ATOM     27  C   UNL     1      16.487  13.812  18.988  0.00  0.00    +0.028 C 
ATOM     28  C   UNL     1      14.488  12.754  17.873  0.00  0.00    +0.028 C 
ATOM     29  C   UNL     1      17.376  12.928  18.112  0.00  0.00    +0.081 C 
ATOM     30  C   UNL     1      15.462  11.915  17.045  0.00  0.00    +0.081 C 
ATOM     39  H   UNL     1      17.351  12.025  16.281  0.00  0.00    +0.122 HD
ENDBRANCH  25  22
BRANCH  16  26
ATOM      3  O   UNL     1      11.133  10.597  21.489  0.00  0.00    -0.274 OA
ATOM      9  N   UNL     1      12.669   8.858  21.675  0.00  0.00    -0.303 N 
ATOM     26  C   UNL     1      12.164  10.116  21.952  0.00  0.00    +0.234 C 
ATOM     38  H   UNL     1      13.498   8.538  22.167  0.00  0.00    +0.149 HD
BRANCH   9  21
ATOM     21  C   UNL     1      12.025   7.927  20.777  0.00  0.00    +0.159 C 
BRANCH  21  31
ATOM      6  O   UNL     1      10.212   7.269  22.257  0.00  0.00    -0.274 OA
ATOM     11  N   UNL     1      11.697   5.661  21.562  0.00  0.00    -0.328 N 
ATOM     31  C   UNL     1      11.200   6.946  21.601  0.00  0.00    +0.231 C 
ATOM     40  H   UNL     1      12.526   5.412  21.032  0.00  0.00    +0.145 HD
ATOM     41  H   UNL     1      11.244   4.912  22.076  0.00  0.00    +0.145 HD
ENDBRANCH  21  31
BRANCH  21  15
ATOM     15  C   UNL     1      13.024   7.230  19.850  0.00  0.00    +0.035 C 
BRANCH  15  12
ATOM     12  C   UNL     1      12.840   7.560  18.369  0.00  0.00    -0.009 C 
ATOM     13  C   UNL     1      14.121   8.172  17.789  0.00  0.00    +0.003 C 
ATOM     14  C   UNL     1      11.645   8.500  18.168  0.00  0.00    +0.003 C 
ATOM     17  C   UNL     1      13.946   8.561  16.322  0.00  0.00    +0.000 C 
ATOM     18  C   UNL     1      11.473   8.888  16.701  0.00  0.00    +0.000 C 
ATOM     19  C   UNL     1      12.751   9.488  16.124  0.00  0.00    +0.000 C 
ENDBRANCH  15  12
ENDBRANCH  21  15
ENDBRANCH   9  21
ENDBRANCH  16  26
BRANCH   8   1
ATOM      1  S   UNL     1      11.217  12.042  24.614  0.00  0.00    +0.062 S 
ATOM      4  O   UNL     1      11.286  10.720  25.200  0.00  0.00    -0.153 OA
ATOM      5  O   UNL     1       9.944  12.647  24.289  0.00  0.00    -0.153 OA
BRANCH   1  32
ATOM     32  C   UNL     1      12.089  13.149  25.678  0.00  0.00    +0.106 A 
ATOM     33  C   UNL     1      13.362  12.814  26.140  0.00  0.00    +0.028 A 
ATOM     34  C   UNL     1      11.506  14.357  26.057  0.00  0.00    +0.028 A 
ATOM     35  C   UNL     1      14.052  13.687  26.980  0.00  0.00    +0.002 A 
ATOM     36  C   UNL     1      12.195  15.232  26.898  0.00  0.00    +0.002 A 
ATOM     37  C   UNL     1      13.467  14.897  27.360  0.00  0.00    +0.000 A 
ENDBRANCH   1  32
ENDBRANCH   8   1
TORSDOF 8
ENDMDL
MODEL 4
REMARK VINA RESULT:      -7.3     13.396     17.547
REMARK  Name = 11912138
REMARK  8 active torsions:
REMARK  status: ('A' for Active; 'I' for Inactive)
REMARK    1  A    between atoms: S_1  and  N_8
REMARK    2  A    between atoms: S_1  and  C_32
REMARK    3  A    between atoms: N_9  and  C_21
REMARK    4  A    between atoms: C_12  and  C_15
REMARK    5  A    between atoms: C_15  and  C_21
REMARK    6  A    between atoms: C_16  and  C_26
REMARK    7  A    between atoms: C_21  and  C_31
REMARK    8  A    between atoms: C_22  and  C_25
REMARK                            x       y       z     vdW  Elec       q    Type
REMARK                         _______ _______ _______ _____ _____    ______ ____
ROOT
ATOM      2  O   UNL     1      14.473   6.631   0.193  0.00  0.00    -0.275 OA
ATOM      7  N   UNL     1      12.396   6.445   1.224  0.00  0.00    -0.298 N 
ATOM      8  N   UNL     1      10.578   7.284   3.283  0.00  0.00    -0.162 NA
ATOM     16  C   UNL     1      11.773   8.116   2.966  0.00  0.00    +0.183 C 
ATOM     20  C   UNL     1      12.325   7.867   1.564  0.00  0.00    +0.137 C 
ATOM     23  C   UNL     1      11.252   5.617   1.618  0.00  0.00    +0.125 C 
ATOM     24  C   UNL     1      10.092   6.439   2.162  0.00  0.00    +0.129 C 
ATOM     25  C   UNL     1      13.503   5.950   0.532  0.00  0.00    +0.219 C 
ENDROOT
BRANCH  25  22
ATOM     10  N   UNL     1      15.983   3.195   0.982  0.00  0.00    -0.316 NA
ATOM     22  C   UNL     1      13.469   4.486   0.194  0.00  0.00    +0.078 C 
ATOM     27  C   UNL     1      14.565   4.134  -0.814  0.00  0.00    +0.028 C 
ATOM     28  C   UNL     1      13.595   3.632   1.458  0.00  0.00    +0.028 C 
ATOM     29  C   UNL     1      15.952   4.093  -0.173  0.00  0.00    +0.081 C 
ATOM     30  C   UNL     1      15.024   3.613   2.004  0.00  0.00    +0.081 C 
ATOM     39  H   UNL     1      16.921   3.192   1.382  0.00  0.00    +0.122 HD
ENDBRANCH  25  22
BRANCH  16  26
ATOM      3  O   UNL     1      12.662   6.720   4.682  0.00  0.00    -0.274 OA
ATOM      9  N   UNL     1      13.777   8.690   4.139  0.00  0.00    -0.303 N 
ATOM     26  C   UNL     1      12.772   7.746   4.015  0.00  0.00    +0.234 C 
ATOM     38  H   UNL     1      13.733   9.536   3.579  0.00  0.00    +0.149 HD
BRANCH   9  21
ATOM     21  C   UNL     1      14.852   8.580   5.097  0.00  0.00    +0.159 C 
BRANCH  21  31
ATOM      6  O   UNL     1      14.635  10.360   6.738  0.00  0.00    -0.274 OA
ATOM     11  N   UNL     1      13.722   8.308   7.221  0.00  0.00    -0.328 N 
ATOM     31  C   UNL     1      14.398   9.199   6.414  0.00  0.00    +0.231 C 
ATOM     40  H   UNL     1      13.551   7.346   6.949  0.00  0.00    +0.145 HD
ATOM     41  H   UNL     1      13.372   8.593   8.130  0.00  0.00    +0.145 HD
ENDBRANCH  21  31
BRANCH  21  15
ATOM     15  C   UNL     1      16.158   9.186   4.576  0.00  0.00    +0.035 C 
BRANCH  15  12
ATOM     12  C   UNL     1      17.418   8.457   5.042  0.00  0.00    -0.009 C 
ATOM     13  C   UNL     1      18.093   9.222   6.187  0.00  0.00    +0.003 C 
ATOM     14  C   UNL     1      18.389   8.253   3.872  0.00  0.00    +0.003 C 
ATOM     17  C   UNL     1      19.385   8.540   6.634  0.00  0.00    +0.000 C 
ATOM     18  C   UNL     1      19.680   7.573   4.323  0.00  0.00    +0.000 C 
ATOM     19  C   UNL     1      20.344   8.330   5.467  0.00  0.00    +0.000 C 
ENDBRANCH  15  12
ENDBRANCH  21  15
ENDBRANCH   9  21
ENDBRANCH  16  26
BRANCH   8   1
ATOM      1  S   UNL     1       9.372   8.010   4.256  0.00  0.00    +0.062 S 
ATOM      4  O   UNL     1       8.079   7.803   3.639  0.00  0.00    -0.153 OA
ATOM      5  O   UNL     1       9.811   9.334   4.640  0.00  0.00    -0.153 OA
BRANCH   1  32
ATOM     32  C   UNL     1       9.461   6.973   5.682  0.00  0.00    +0.106 A 
ATOM     33  C   UNL     1       9.646   5.598   5.533  0.00  0.00    +0.028 A 
ATOM     34  C   UNL     1       9.346   7.528   6.956  0.00  0.00    +0.028 A 
ATOM     35  C   UNL     1       9.717   4.778   6.659  0.00  0.00    +0.002 A 
ATOM     36  C   UNL     1       9.417   6.708   8.083  0.00  0.00    +0.002 A 
ATOM     37  C   UNL     1       9.601   5.334   7.934  0.00  0.00    +0.000 A 
ENDBRANCH   1  32
ENDBRANCH   8   1
TORSDOF 8
ENDMDL
MODEL 5
REMARK VINA RESULT:      -7.3      1.976      3.161
REMARK  Name = 11912138
REMARK  8 active torsions:
REMARK  status: ('A' for Active; 'I' for Inactive)
REMARK    1  A    between atoms: S_1  and  N_8
REMARK    2  A    between atoms: S_1  and  C_32
REMARK    3  A    between atoms: N_9  and  C_21
REMARK    4  A    between atoms: C_12  and  C_15
REMARK    5  A    between atoms: C_15  and  C_21
REMARK    6  A    between atoms: C_16  and  C_26
REMARK    7  A    between atoms: C_21  and  C_31
REMARK    8  A    between atoms: C_22  and  C_25
REMARK                            x       y       z     vdW  Elec       q    Type
REMARK                         _______ _______ _______ _____ _____    ______ ____
ROOT
ATOM      2  O   UNL     1      13.368  12.172  23.879  0.00  0.00    -0.275 OA
ATOM      7  N   UNL     1      12.539  10.339  22.712  0.00  0.00    -0.298 N 
ATOM      8  N   UNL     1      12.768   8.501  20.515  0.00  0.00    -0.162 NA
ATOM     16  C   UNL     1      13.934   9.348  20.897  0.00  0.00    +0.183 C 
ATOM     20  C   UNL     1      13.867   9.848  22.338  0.00  0.00    +0.137 C 
ATOM     23  C   UNL     1      11.394   9.544  22.256  0.00  0.00    +0.125 C 
ATOM     24  C   UNL     1      11.810   8.226  21.617  0.00  0.00    +0.129 C 
ATOM     25  C   UNL     1      12.416  11.492  23.488  0.00  0.00    +0.219 C 
ENDROOT
BRANCH  25  22
ATOM     10  N   UNL     1      10.968  14.663  24.824  0.00  0.00    -0.316 NA
ATOM     22  C   UNL     1      11.015  11.896  23.852  0.00  0.00    +0.078 C 
ATOM     27  C   UNL     1      10.918  12.244  25.339  0.00  0.00    +0.028 C 
ATOM     28  C   UNL     1      10.543  13.065  22.984  0.00  0.00    +0.028 C 
ATOM     29  C   UNL     1      11.538  13.605  25.658  0.00  0.00    +0.081 C 
ATOM     30  C   UNL     1      11.180  14.391  23.403  0.00  0.00    +0.081 C 
ATOM     39  H   UNL     1      11.403  15.554  25.065  0.00  0.00    +0.122 HD
ENDBRANCH  25  22
BRANCH  16  26
ATOM      3  O   UNL     1      12.843  10.996  19.563  0.00  0.00    -0.274 OA
ATOM      9  N   UNL     1      15.166  10.848  19.500  0.00  0.00    -0.303 N 
ATOM     26  C   UNL     1      13.900  10.486  19.927  0.00  0.00    +0.234 C 
ATOM     38  H   UNL     1      15.968  10.312  19.818  0.00  0.00    +0.149 HD
BRANCH   9  21
ATOM     21  C   UNL     1      15.406  11.905  18.545  0.00  0.00    +0.159 C 
BRANCH  21  31
ATOM      6  O   UNL     1      16.304  13.695  19.923  0.00  0.00    -0.274 OA
ATOM     11  N   UNL     1      14.143  13.876  19.163  0.00  0.00    -0.328 N 
ATOM     31  C   UNL     1      15.362  13.242  19.276  0.00  0.00    +0.231 C 
ATOM     40  H   UNL     1      13.368  13.480  18.643  0.00  0.00    +0.145 HD
ATOM     41  H   UNL     1      13.980  14.772  19.611  0.00  0.00    +0.145 HD
ENDBRANCH  21  31
BRANCH  21  15
ATOM     15  C   UNL     1      14.439  11.845  17.359  0.00  0.00    +0.035 C 
BRANCH  15  12
ATOM     12  C   UNL     1      15.021  12.377  16.050  0.00  0.00    -0.009 C 
ATOM     13  C   UNL     1      13.918  12.542  14.996  0.00  0.00    +0.003 C 
ATOM     14  C   UNL     1      16.133  11.453  15.536  0.00  0.00    +0.003 C 
ATOM     17  C   UNL     1      14.482  13.022  13.660  0.00  0.00    +0.000 C 
ATOM     18  C   UNL     1      16.694  11.935  14.200  0.00  0.00    +0.000 C 
ATOM     19  C   UNL     1      15.594  12.107  13.158  0.00  0.00    +0.000 C 
ENDBRANCH  15  12
ENDBRANCH  21  15
ENDBRANCH   9  21
ENDBRANCH  16  26
BRANCH   8   1
ATOM      1  S   UNL     1      13.080   7.201  19.448  0.00  0.00    +0.062 S 
ATOM      4  O   UNL     1      12.042   6.204  19.602  0.00  0.00    -0.153 OA
ATOM      5  O   UNL     1      14.478   6.842  19.538  0.00  0.00    -0.153 OA
BRANCH   1  32
ATOM     32  C   UNL     1      12.825   8.008  17.898  0.00  0.00    +0.106 A 
ATOM     33  C   UNL     1      11.553   8.467  17.552  0.00  0.00    +0.028 A 
ATOM     34  C   UNL     1      13.893   8.187  17.020  0.00  0.00    +0.028 A 
ATOM     35  C   UNL     1      11.351   9.104  16.328  0.00  0.00    +0.002 A 
ATOM     36  C   UNL     1      13.691   8.824  15.795  0.00  0.00    +0.002 A 
ATOM     37  C   UNL     1      12.420   9.282  15.449  0.00  0.00    +0.000 A 
ENDBRANCH   1  32
ENDBRANCH   8   1
TORSDOF 8
ENDMDL
MODEL 6
REMARK VINA RESULT:      -7.2     27.261     29.909
REMARK  Name = 11912138
REMARK  8 active torsions:
REMARK  status: ('A' for Active; 'I' for Inactive)
REMARK    1  A    between atoms: S_1  and  N_8
REMARK    2  A    between atoms: S_1  and  C_32
REMARK    3  A    between atoms: N_9  and  C_21
REMARK    4  A    between atoms: C_12  and  C_15
REMARK    5  A    between atoms: C_15  and  C_21
REMARK    6  A    between atoms: C_16  and  C_26
REMARK    7  A    between atoms: C_21  and  C_31
REMARK    8  A    between atoms: C_22  and  C_25
REMARK                            x       y       z     vdW  Elec       q    Type
REMARK                         _______ _______ _______ _____ _____    ______ ____
ROOT
ATOM      2  O   UNL     1      -9.294 -10.450  16.243  0.00  0.00    -0.275 OA
ATOM      7  N   UNL     1      -8.642 -10.613  14.016  0.00  0.00    -0.298 N 
ATOM      8  N   UNL     1      -6.678 -11.394  12.070  0.00  0.00    -0.162 NA
ATOM     16  C   UNL     1      -6.577 -11.900  13.468  0.00  0.00    +0.183 C 
ATOM     20  C   UNL     1      -7.906 -11.863  14.218  0.00  0.00    +0.137 C 
ATOM     23  C   UNL     1      -8.662 -10.077  12.652  0.00  0.00    +0.125 C 
ATOM     24  C   UNL     1      -8.052 -11.033  11.635  0.00  0.00    +0.129 C 
ATOM     25  C   UNL     1      -9.301 -10.013  15.090  0.00  0.00    +0.219 C 
ENDROOT
BRANCH  25  22
ATOM     10  N   UNL     1     -11.890  -8.088  16.970  0.00  0.00    -0.316 NA
ATOM     22  C   UNL     1     -10.059  -8.753  14.777  0.00  0.00    +0.078 C 
ATOM     27  C   UNL     1     -11.563  -9.027  14.705  0.00  0.00    +0.028 C 
ATOM     28  C   UNL     1      -9.750  -7.661  15.804  0.00  0.00    +0.028 C 
ATOM     29  C   UNL     1     -12.184  -9.218  16.089  0.00  0.00    +0.081 C 
ATOM     30  C   UNL     1     -10.448  -7.911  17.142  0.00  0.00    +0.081 C 
ATOM     39  H   UNL     1     -12.320  -8.249  17.881  0.00  0.00    +0.122 HD
ENDBRANCH  25  22
BRANCH  16  26
ATOM      3  O   UNL     1      -5.518  -9.804  13.876  0.00  0.00    -0.274 OA
ATOM      9  N   UNL     1      -4.717 -11.703  14.958  0.00  0.00    -0.303 N 
ATOM     26  C   UNL     1      -5.565 -11.008  14.114  0.00  0.00    +0.234 C 
ATOM     38  H   UNL     1      -4.807 -12.713  15.029  0.00  0.00    +0.149 HD
BRANCH   9  21
ATOM     21  C   UNL     1      -3.638 -11.077  15.686  0.00  0.00    +0.159 C 
BRANCH  21  31
ATOM      6  O   UNL     1      -1.260 -11.039  15.183  0.00  0.00    -0.274 OA
ATOM     11  N   UNL     1      -2.439 -12.965  14.759  0.00  0.00    -0.328 N 
ATOM     31  C   UNL     1      -2.317 -11.665  15.203  0.00  0.00    +0.231 C 
ATOM     40  H   UNL     1      -3.322 -13.463  14.763  0.00  0.00    +0.145 HD
ATOM     41  H   UNL     1      -1.634 -13.470  14.404  0.00  0.00    +0.145 HD
ENDBRANCH  21  31
BRANCH  21  15
ATOM     15  C   UNL     1      -3.819 -11.191  17.202  0.00  0.00    +0.035 C 
BRANCH  15  12
ATOM     12  C   UNL     1      -5.269 -11.372  17.648  0.00  0.00    -0.009 C 
ATOM     13  C   UNL     1      -5.550 -10.558  18.918  0.00  0.00    +0.003 C 
ATOM     14  C   UNL     1      -5.587 -12.857  17.869  0.00  0.00    +0.003 C 
ATOM     17  C   UNL     1      -6.979 -10.765  19.416  0.00  0.00    +0.000 C 
ATOM     18  C   UNL     1      -7.016 -13.060  18.367  0.00  0.00    +0.000 C 
ATOM     19  C   UNL     1      -7.295 -12.242  19.624  0.00  0.00    +0.000 C 
ENDBRANCH  15  12
ENDBRANCH  21  15
ENDBRANCH   9  21
ENDBRANCH  16  26
BRANCH   8   1
ATOM      1  S   UNL     1      -5.698 -12.166  10.900  0.00  0.00    +0.062 S 
ATOM      4  O   UNL     1      -6.365 -12.116   9.616  0.00  0.00    -0.153 OA
ATOM      5  O   UNL     1      -5.216 -13.418  11.441  0.00  0.00    -0.153 OA
BRANCH   1  32
ATOM     32  C   UNL     1      -4.339 -11.040  10.844  0.00  0.00    +0.106 A 
ATOM     33  C   UNL     1      -3.189 -11.298  11.592  0.00  0.00    +0.028 A 
ATOM     34  C   UNL     1      -4.414  -9.893  10.055  0.00  0.00    +0.028 A 
ATOM     35  C   UNL     1      -2.115 -10.409  11.549  0.00  0.00    +0.002 A 
ATOM     36  C   UNL     1      -3.340  -9.004  10.011  0.00  0.00    +0.002 A 
ATOM     37  C   UNL     1      -2.191  -9.261  10.758  0.00  0.00    +0.000 A 
ENDBRANCH   1  32
ENDBRANCH   8   1
TORSDOF 8
ENDMDL
MODEL 7
REMARK VINA RESULT:      -7.1     25.406     28.157
REMARK  Name = 11912138
REMARK  8 active torsions:
REMARK  status: ('A' for Active; 'I' for Inactive)
REMARK    1  A    between atoms: S_1  and  N_8
REMARK    2  A    between atoms: S_1  and  C_32
REMARK    3  A    between atoms: N_9  and  C_21
REMARK    4  A    between atoms: C_12  and  C_15
REMARK    5  A    between atoms: C_15  and  C_21
REMARK    6  A    between atoms: C_16  and  C_26
REMARK    7  A    between atoms: C_21  and  C_31
REMARK    8  A    between atoms: C_22  and  C_25
REMARK                            x       y       z     vdW  Elec       q    Type
REMARK                         _______ _______ _______ _____ _____    ______ ____
ROOT
ATOM      2  O   UNL     1     -14.129   4.792  23.558  0.00  0.00    -0.275 OA
ATOM      7  N   UNL     1     -14.869   6.070  21.761  0.00  0.00    -0.298 N 
ATOM      8  N   UNL     1     -14.711   8.491  20.222  0.00  0.00    -0.162 NA
ATOM     16  C   UNL     1     -13.621   8.150  21.180  0.00  0.00    +0.183 C 
ATOM     20  C   UNL     1     -13.553   6.661  21.508  0.00  0.00    +0.137 C 
ATOM     23  C   UNL     1     -15.955   6.479  20.865  0.00  0.00    +0.125 C 
ATOM     24  C   UNL     1     -15.465   7.324  19.696  0.00  0.00    +0.129 C 
ATOM     25  C   UNL     1     -15.030   5.147  22.795  0.00  0.00    +0.219 C 
ENDROOT
BRANCH  25  22
ATOM     10  N   UNL     1     -16.905   3.860  25.756  0.00  0.00    -0.316 NA
ATOM     22  C   UNL     1     -16.408   4.568  22.954  0.00  0.00    +0.078 C 
ATOM     27  C   UNL     1     -16.338   3.127  23.463  0.00  0.00    +0.028 C 
ATOM     28  C   UNL     1     -17.260   5.436  23.883  0.00  0.00    +0.028 C 
ATOM     29  C   UNL     1     -15.989   3.054  24.950  0.00  0.00    +0.081 C 
ATOM     30  C   UNL     1     -16.871   5.265  25.353  0.00  0.00    +0.081 C 
ATOM     39  H   UNL     1     -16.643   3.786  26.740  0.00  0.00    +0.122 HD
ENDBRANCH  25  22
BRANCH  16  26
ATOM      3  O   UNL     1     -14.847   8.656  23.162  0.00  0.00    -0.274 OA
ATOM      9  N   UNL     1     -13.101  10.058  22.526  0.00  0.00    -0.303 N 
ATOM     26  C   UNL     1     -13.933   8.959  22.399  0.00  0.00    +0.234 C 
ATOM     38  H   UNL     1     -12.418  10.248  21.798  0.00  0.00    +0.149 HD
BRANCH   9  21
ATOM     21  C   UNL     1     -13.208  11.011  23.606  0.00  0.00    +0.159 C 
BRANCH  21  31
ATOM      6  O   UNL     1     -14.509  13.064  23.561  0.00  0.00    -0.274 OA
ATOM     11  N   UNL     1     -13.048  12.657  21.837  0.00  0.00    -0.328 N 
ATOM     31  C   UNL     1     -13.663  12.349  23.032  0.00  0.00    +0.231 C 
ATOM     40  H   UNL     1     -12.365  12.047  21.401  0.00  0.00    +0.145 HD
ATOM     41  H   UNL     1     -13.268  13.517  21.346  0.00  0.00    +0.145 HD
ENDBRANCH  21  31
BRANCH  21  15
ATOM     15  C   UNL     1     -11.912  11.122  24.413  0.00  0.00    +0.035 C 
BRANCH  15  12
ATOM     12  C   UNL     1     -12.096  10.945  25.920  0.00  0.00    -0.009 C 
ATOM     13  C   UNL     1     -12.345  12.298  26.598  0.00  0.00    +0.003 C 
ATOM     14  C   UNL     1     -10.879  10.241  26.535  0.00  0.00    +0.003 C 
ATOM     17  C   UNL     1     -12.478  12.154  28.112  0.00  0.00    +0.000 C 
ATOM     18  C   UNL     1     -11.015  10.099  28.049  0.00  0.00    +0.000 C 
ATOM     19  C   UNL     1     -11.272  11.445  28.719  0.00  0.00    +0.000 C 
ENDBRANCH  15  12
ENDBRANCH  21  15
ENDBRANCH   9  21
ENDBRANCH  16  26
BRANCH   8   1
ATOM      1  S   UNL     1     -14.385   9.743  19.102  0.00  0.00    +0.062 S 
ATOM      4  O   UNL     1     -14.457  11.017  19.784  0.00  0.00    -0.153 OA
ATOM      5  O   UNL     1     -15.141   9.501  17.892  0.00  0.00    -0.153 OA
BRANCH   1  32
ATOM     32  C   UNL     1     -12.685   9.412  18.756  0.00  0.00    +0.106 A 
ATOM     33  C   UNL     1     -11.697  10.270  19.240  0.00  0.00    +0.028 A 
ATOM     34  C   UNL     1     -12.331   8.295  18.001  0.00  0.00    +0.028 A 
ATOM     35  C   UNL     1     -10.353  10.011  18.967  0.00  0.00    +0.002 A 
ATOM     36  C   UNL     1     -10.987   8.034  17.729  0.00  0.00    +0.002 A 
ATOM     37  C   UNL     1      -9.999   8.892  18.211  0.00  0.00    +0.000 A 
ENDBRANCH   1  32
ENDBRANCH   8   1
TORSDOF 8
ENDMDL
MODEL 8
REMARK VINA RESULT:      -7.1     14.398     18.528
REMARK  Name = 11912138
REMARK  8 active torsions:
REMARK  status: ('A' for Active; 'I' for Inactive)
REMARK    1  A    between atoms: S_1  and  N_8
REMARK    2  A    between atoms: S_1  and  C_32
REMARK    3  A    between atoms: N_9  and  C_21
REMARK    4  A    between atoms: C_12  and  C_15
REMARK    5  A    between atoms: C_15  and  C_21
REMARK    6  A    between atoms: C_16  and  C_26
REMARK    7  A    between atoms: C_21  and  C_31
REMARK    8  A    between atoms: C_22  and  C_25
REMARK                            x       y       z     vdW  Elec       q    Type
REMARK                         _______ _______ _______ _____ _____    ______ ____
ROOT
ATOM      2  O   UNL     1      17.479  -6.958  29.761  0.00  0.00    -0.275 OA
ATOM      7  N   UNL     1      17.170  -6.867  27.458  0.00  0.00    -0.298 N 
ATOM      8  N   UNL     1      17.862  -5.718  24.917  0.00  0.00    -0.162 NA
ATOM     16  C   UNL     1      18.754  -5.509  26.093  0.00  0.00    +0.183 C 
ATOM     20  C   UNL     1      18.575  -6.566  27.179  0.00  0.00    +0.137 C 
ATOM     23  C   UNL     1      16.281  -6.985  26.298  0.00  0.00    +0.125 C 
ATOM     24  C   UNL     1      17.035  -6.951  24.975  0.00  0.00    +0.129 C 
ATOM     25  C   UNL     1      16.746  -7.054  28.774  0.00  0.00    +0.219 C 
ENDROOT
BRANCH  25  22
ATOM     10  N   UNL     1      14.707  -7.885  31.789  0.00  0.00    -0.316 NA
ATOM     22  C   UNL     1      15.294  -7.395  28.958  0.00  0.00    +0.078 C 
ATOM     27  C   UNL     1      15.134  -8.804  29.533  0.00  0.00    +0.028 C 
ATOM     28  C   UNL     1      14.598  -6.360  29.845  0.00  0.00    +0.028 C 
ATOM     29  C   UNL     1      15.475  -8.864  31.022  0.00  0.00    +0.081 C 
ATOM     30  C   UNL     1      14.963  -6.524  31.321  0.00  0.00    +0.081 C 
ATOM     39  H   UNL     1      14.958  -7.955  32.776  0.00  0.00    +0.122 HD
ENDBRANCH  25  22
BRANCH  16  26
ATOM      3  O   UNL     1      17.251  -3.703  26.497  0.00  0.00    -0.274 OA
ATOM      9  N   UNL     1      19.477  -3.485  27.143  0.00  0.00    -0.303 N 
ATOM     26  C   UNL     1      18.392  -4.148  26.596  0.00  0.00    +0.234 C 
ATOM     38  H   UNL     1      20.392  -3.925  27.114  0.00  0.00    +0.149 HD
BRANCH   9  21
ATOM     21  C   UNL     1      19.397  -2.146  27.680  0.00  0.00    +0.159 C 
BRANCH  21  31
ATOM      6  O   UNL     1      20.516  -0.959  25.878  0.00  0.00    -0.274 OA
ATOM     11  N   UNL     1      21.511  -0.997  27.948  0.00  0.00    -0.328 N 
ATOM     31  C   UNL     1      20.505  -1.304  27.057  0.00  0.00    +0.231 C 
ATOM     40  H   UNL     1      21.499  -1.306  28.914  0.00  0.00    +0.145 HD
ATOM     41  H   UNL     1      22.313  -0.447  27.657  0.00  0.00    +0.145 HD
ENDBRANCH  21  31
BRANCH  21  15
ATOM     15  C   UNL     1      19.432  -2.132  29.210  0.00  0.00    +0.035 C 
BRANCH  15  12
ATOM     12  C   UNL     1      18.071  -1.895  29.865  0.00  0.00    -0.009 C 
ATOM     13  C   UNL     1      18.234  -1.140  31.191  0.00  0.00    +0.003 C 
ATOM     14  C   UNL     1      17.333  -3.223  30.079  0.00  0.00    +0.003 C 
ATOM     17  C   UNL     1      16.893  -0.937  31.892  0.00  0.00    +0.000 C 
ATOM     18  C   UNL     1      15.993  -3.016  30.782  0.00  0.00    +0.000 C 
ATOM     19  C   UNL     1      16.157  -2.258  32.095  0.00  0.00    +0.000 C 
ENDBRANCH  15  12
ENDBRANCH  21  15
ENDBRANCH   9  21
ENDBRANCH  16  26
BRANCH   8   1
ATOM      1  S   UNL     1      18.503  -5.312  23.384  0.00  0.00    +0.062 S 
ATOM      4  O   UNL     1      18.032  -6.270  22.406  0.00  0.00    -0.153 OA
ATOM      5  O   UNL     1      19.913  -5.024  23.524  0.00  0.00    -0.153 OA
BRANCH   1  32
ATOM     32  C   UNL     1      17.662  -3.787  23.092  0.00  0.00    +0.106 A 
ATOM     33  C   UNL     1      18.393  -2.613  22.907  0.00  0.00    +0.028 A 
ATOM     34  C   UNL     1      16.269  -3.756  23.046  0.00  0.00    +0.028 A 
ATOM     35  C   UNL     1      17.730  -1.408  22.677  0.00  0.00    +0.002 A 
ATOM     36  C   UNL     1      15.605  -2.550  22.815  0.00  0.00    +0.002 A 
ATOM     37  C   UNL     1      16.336  -1.377  22.631  0.00  0.00    +0.000 A 
ENDBRANCH   1  32
ENDBRANCH   8   1
TORSDOF 8
ENDMDL
MODEL 9
REMARK VINA RESULT:      -7.0      4.005      7.619
REMARK  Name = 11912138
REMARK  8 active torsions:
REMARK  status: ('A' for Active; 'I' for Inactive)
REMARK    1  A    between atoms: S_1  and  N_8
REMARK    2  A    between atoms: S_1  and  C_32
REMARK    3  A    between atoms: N_9  and  C_21
REMARK    4  A    between atoms: C_12  and  C_15
REMARK    5  A    between atoms: C_15  and  C_21
REMARK    6  A    between atoms: C_16  and  C_26
REMARK    7  A    between atoms: C_21  and  C_31
REMARK    8  A    between atoms: C_22  and  C_25
REMARK                            x       y       z     vdW  Elec       q    Type
REMARK                         _______ _______ _______ _____ _____    ______ ____
ROOT
ATOM      2  O   UNL     1      17.166  11.441  22.685  0.00  0.00    -0.275 OA
ATOM      7  N   UNL     1      15.327  12.798  23.115  0.00  0.00    -0.298 N 
ATOM      8  N   UNL     1      12.520  13.048  23.672  0.00  0.00    -0.162 NA
ATOM     16  C   UNL     1      13.189  11.724  23.818  0.00  0.00    +0.183 C 
ATOM     20  C   UNL     1      14.698  11.832  24.019  0.00  0.00    +0.137 C 
ATOM     23  C   UNL     1      14.616  14.064  22.910  0.00  0.00    +0.125 C 
ATOM     24  C   UNL     1      13.417  14.221  23.836  0.00  0.00    +0.129 C 
ATOM     25  C   UNL     1      16.555  12.500  22.524  0.00  0.00    +0.219 C 
ENDROOT
BRANCH  25  22
ATOM     10  N   UNL     1      18.844  12.371  19.577  0.00  0.00    -0.316 NA
ATOM     22  C   UNL     1      17.139  13.568  21.642  0.00  0.00    +0.078 C 
ATOM     27  C   UNL     1      18.667  13.573  21.731  0.00  0.00    +0.028 C 
ATOM     28  C   UNL     1      16.676  13.392  20.193  0.00  0.00    +0.028 C 
ATOM     29  C   UNL     1      19.296  12.408  20.967  0.00  0.00    +0.081 C 
ATOM     30  C   UNL     1      17.390  12.233  19.495  0.00  0.00    +0.081 C 
ATOM     39  H   UNL     1      19.284  11.584  19.099  0.00  0.00    +0.122 HD
ENDBRANCH  25  22
BRANCH  16  26
ATOM      3  O   UNL     1      12.737  11.592  21.481  0.00  0.00    -0.274 OA
ATOM      9  N   UNL     1      12.702   9.640  22.750  0.00  0.00    -0.303 N 
ATOM     26  C   UNL     1      12.861  11.000  22.551  0.00  0.00    +0.234 C 
ATOM     38  H   UNL     1      12.764   9.267  23.693  0.00  0.00    +0.149 HD
BRANCH   9  21
ATOM     21  C   UNL     1      12.361   8.720  21.690  0.00  0.00    +0.159 C 
BRANCH  21  31
ATOM      6  O   UNL     1      10.061   9.036  22.411  0.00  0.00    -0.274 OA
ATOM     11  N   UNL     1      10.592   7.127  21.250  0.00  0.00    -0.328 N 
ATOM     31  C   UNL     1      10.890   8.344  21.825  0.00  0.00    +0.231 C 
ATOM     40  H   UNL     1      11.290   6.556  20.787  0.00  0.00    +0.145 HD
ATOM     41  H   UNL     1       9.648   6.756  21.278  0.00  0.00    +0.145 HD
ENDBRANCH  21  31
BRANCH  21  15
ATOM     15  C   UNL     1      13.285   7.500  21.661  0.00  0.00    +0.035 C 
BRANCH  15  12
ATOM     12  C   UNL     1      14.563   7.701  20.848  0.00  0.00    -0.009 C 
ATOM     13  C   UNL     1      14.999   6.385  20.191  0.00  0.00    +0.003 C 
ATOM     14  C   UNL     1      15.683   8.268  21.731  0.00  0.00    +0.003 C 
ATOM     17  C   UNL     1      16.305   6.548  19.416  0.00  0.00    +0.000 C 
ATOM     18  C   UNL     1      16.988   8.428  20.954  0.00  0.00    +0.000 C 
ATOM     19  C   UNL     1      17.413   7.120  20.294  0.00  0.00    +0.000 C 
ENDBRANCH  15  12
ENDBRANCH  21  15
ENDBRANCH   9  21
ENDBRANCH  16  26
BRANCH   8   1
ATOM      1  S   UNL     1      10.955  13.197  24.349  0.00  0.00    +0.062 S 
ATOM      4  O   UNL     1      11.026  14.045  25.520  0.00  0.00    -0.153 OA
ATOM      5  O   UNL     1      10.343  11.888  24.413  0.00  0.00    -0.153 OA
BRANCH   1  32
ATOM     32  C   UNL     1      10.152  14.111  23.069  0.00  0.00    +0.106 A 
ATOM     33  C   UNL     1       9.000  14.845  23.355  0.00  0.00    +0.028 A 
ATOM     34  C   UNL     1      10.668  14.100  21.774  0.00  0.00    +0.028 A 
ATOM     35  C   UNL     1       8.365  15.567  22.345  0.00  0.00    +0.002 A 
ATOM     36  C   UNL     1      10.034  14.823  20.763  0.00  0.00    +0.002 A 
ATOM     37  C   UNL     1       8.882  15.555  21.049  0.00  0.00    +0.000 A 
ENDBRANCH   1  32
ENDBRANCH   8   1
TORSDOF 8
ENDMDL
MODEL 10
REMARK VINA RESULT:      -6.9     13.574     17.885
REMARK  Name = 11912138
REMARK  8 active torsions:
REMARK  status: ('A' for Active; 'I' for Inactive)
REMARK    1  A    between atoms: S_1  and  N_8
REMARK    2  A    between atoms: S_1  and  C_32
REMARK    3  A    between atoms: N_9  and  C_21
REMARK    4  A    between atoms: C_12  and  C_15
REMARK    5  A    between atoms: C_15  and  C_21
REMARK    6  A    between atoms: C_16  and  C_26
REMARK    7  A    between atoms: C_21  and  C_31
REMARK    8  A    between atoms: C_22  and  C_25
REMARK                            x       y       z     vdW  Elec       q    Type
REMARK                         _______ _______ _______ _____ _____    ______ ____
ROOT
ATOM      2  O   UNL     1      13.297   4.572   1.622  0.00  0.00    -0.275 OA
ATOM      7  N   UNL     1      14.080   6.762   1.640  0.00  0.00    -0.298 N 
ATOM      8  N   UNL     1      14.818   9.109   3.124  0.00  0.00    -0.162 NA
ATOM     16  C   UNL     1      14.666   7.804   3.828  0.00  0.00    +0.183 C 
ATOM     20  C   UNL     1      14.806   6.600   2.901  0.00  0.00    +0.137 C 
ATOM     23  C   UNL     1      14.166   8.077   0.998  0.00  0.00    +0.125 C 
ATOM     24  C   UNL     1      15.164   9.001   1.683  0.00  0.00    +0.129 C 
ATOM     25  C   UNL     1      13.380   5.684   1.096  0.00  0.00    +0.219 C 
ENDROOT
BRANCH  25  22
ATOM     10  N   UNL     1      10.678   3.873  -0.737  0.00  0.00    -0.316 NA
ATOM     22  C   UNL     1      12.697   5.937  -0.219  0.00  0.00    +0.078 C 
ATOM     27  C   UNL     1      12.936   4.776  -1.188  0.00  0.00    +0.028 C 
ATOM     28  C   UNL     1      11.200   6.182  -0.017  0.00  0.00    +0.028 C 
ATOM     29  C   UNL     1      12.100   3.545  -0.836  0.00  0.00    +0.081 C 
ATOM     30  C   UNL     1      10.438   4.891   0.286  0.00  0.00    +0.081 C 
ATOM     39  H   UNL     1      10.152   3.030  -0.503  0.00  0.00    +0.122 HD
ENDBRANCH  25  22
BRANCH  16  26
ATOM      3  O   UNL     1      12.518   8.779   4.175  0.00  0.00    -0.274 OA
ATOM      9  N   UNL     1      13.060   6.813   5.299  0.00  0.00    -0.303 N 
ATOM     26  C   UNL     1      13.299   7.866   4.433  0.00  0.00    +0.234 C 
ATOM     38  H   UNL     1      13.805   6.149   5.487  0.00  0.00    +0.149 HD
BRANCH   9  21
ATOM     21  C   UNL     1      11.824   6.654   6.028  0.00  0.00    +0.159 C 
BRANCH  21  31
ATOM      6  O   UNL     1      11.286   5.821   8.248  0.00  0.00    -0.274 OA
ATOM     11  N   UNL     1      13.497   6.019   7.658  0.00  0.00    -0.328 N 
ATOM     31  C   UNL     1      12.143   6.113   7.417  0.00  0.00    +0.231 C 
ATOM     40  H   UNL     1      14.194   6.283   6.971  0.00  0.00    +0.145 HD
ATOM     41  H   UNL     1      13.844   5.680   8.550  0.00  0.00    +0.145 HD
ENDBRANCH  21  31
BRANCH  21  15
ATOM     15  C   UNL     1      10.813   5.787   5.273  0.00  0.00    +0.035 C 
BRANCH  15  12
ATOM     12  C   UNL     1       9.582   6.547   4.778  0.00  0.00    -0.009 C 
ATOM     13  C   UNL     1       9.773   6.995   3.323  0.00  0.00    +0.003 C 
ATOM     14  C   UNL     1       9.286   7.749   5.686  0.00  0.00    +0.003 C 
ATOM     17  C   UNL     1       8.578   7.804   2.822  0.00  0.00    +0.000 C 
ATOM     18  C   UNL     1       8.092   8.556   5.181  0.00  0.00    +0.000 C 
ATOM     19  C   UNL     1       8.280   8.991   3.732  0.00  0.00    +0.000 C 
ENDBRANCH  15  12
ENDBRANCH  21  15
ENDBRANCH   9  21
ENDBRANCH  16  26
BRANCH   8   1
ATOM      1  S   UNL     1      15.590  10.365   3.991  0.00  0.00    +0.062 S 
ATOM      4  O   UNL     1      14.831  10.646   5.192  0.00  0.00    -0.153 OA
ATOM      5  O   UNL     1      15.947  11.423   3.071  0.00  0.00    -0.153 OA
BRANCH   1  32
ATOM     32  C   UNL     1      17.075   9.540   4.473  0.00  0.00    +0.106 A 
ATOM     33  C   UNL     1      17.327   9.292   5.823  0.00  0.00    +0.028 A 
ATOM     34  C   UNL     1      17.994   9.136   3.506  0.00  0.00    +0.028 A 
ATOM     35  C   UNL     1      18.500   8.640   6.205  0.00  0.00    +0.002 A 
ATOM     36  C   UNL     1      19.167   8.484   3.887  0.00  0.00    +0.002 A 
ATOM     37  C   UNL     1      19.420   8.236   5.236  0.00  0.00    +0.000 A 
ENDBRANCH   1  32
ENDBRANCH   8   1
TORSDOF 8
ENDMDL
