MODEL 1
REMARK VINA RESULT:      -7.7      0.000      0.000
REMARK  Name = 11883385
REMARK  6 active torsions:
REMARK  status: ('A' for Active; 'I' for Inactive)
REMARK    1  A    between atoms: O_6  and  C_14
REMARK    2  A    between atoms: O_6  and  C_18
REMARK    3  A    between atoms: N_9  and  C_13
REMARK    4  A    between atoms: N_10  and  C_22
REMARK    5  A    between atoms: C_17  and  C_19
REMARK    6  A    between atoms: C_28  and  C_31
REMARK                            x       y       z     vdW  Elec       q    Type
REMARK                         _______ _______ _______ _____ _____    ______ ____
ROOT
ATOM      4  O   UNL     1     -16.519   4.879  25.322  0.00  0.00    -0.368 OA
ATOM      5  O   UNL     1     -16.962   2.084  24.144  0.00  0.00    -0.368 OA
ATOM     11  C   UNL     1     -16.149   2.539  25.246  0.00  0.00    +0.173 C 
ATOM     12  C   UNL     1     -15.589   3.890  24.850  0.00  0.00    +0.192 C 
ATOM     13  C   UNL     1     -17.021   2.844  26.442  0.00  0.00    +0.130 C 
ATOM     14  C   UNL     1     -15.576   3.810  23.343  0.00  0.00    +0.235 C 
ATOM     15  C   UNL     1     -17.523   4.242  26.126  0.00  0.00    +0.185 C 
ATOM     16  C   UNL     1     -16.826   3.009  23.055  0.00  0.00    +0.207 C 
ENDROOT
BRANCH  13   9
ATOM      7  O   UNL     1     -16.569   0.577  28.146  0.00  0.00    -0.270 OA
ATOM      9  N   UNL     1     -16.257   2.824  27.665  0.00  0.00    -0.304 N 
ATOM     17  C   UNL     1     -16.093   1.674  28.424  0.00  0.00    +0.244 C 
ATOM     32  H   UNL     1     -15.931   3.719  28.016  0.00  0.00    +0.149 HD
BRANCH  17  19
ATOM     19  C   UNL     1     -15.300   1.826  29.671  0.00  0.00    +0.037 A 
ATOM     20  C   UNL     1     -15.323   0.809  30.603  0.00  0.00    +0.013 A 
ATOM     21  C   UNL     1     -14.566   2.978  29.858  0.00  0.00    +0.013 A 
ATOM     23  C   UNL     1     -14.577   0.950  31.774  0.00  0.00    +0.001 A 
ATOM     24  C   UNL     1     -13.820   3.120  31.028  0.00  0.00    +0.001 A 
ATOM     27  C   UNL     1     -13.826   2.105  31.986  0.00  0.00    +0.000 A 
ENDBRANCH  17  19
ENDBRANCH  13   9
BRANCH  14   6
ATOM      6  O   UNL     1     -15.595   5.069  22.711  0.00  0.00    -0.442 OA
BRANCH   6  18
ATOM      8  O   UNL     1     -13.317   5.016  22.525  0.00  0.00    -0.226 OA
ATOM     10  N   UNL     1     -14.574   6.816  21.714  0.00  0.00    -0.251 N 
ATOM     18  C   UNL     1     -14.379   5.593  22.327  0.00  0.00    +0.405 C 
ATOM     33  H   UNL     1     -15.539   7.132  21.641  0.00  0.00    +0.158 HD
BRANCH  10  22
ATOM     22  C   UNL     1     -13.599   7.685  21.174  0.00  0.00    +0.037 A 
ATOM     25  C   UNL     1     -12.927   7.318  20.019  0.00  0.00    +0.035 A 
ATOM     26  C   UNL     1     -13.334   8.887  21.809  0.00  0.00    +0.023 A 
ATOM     28  C   UNL     1     -11.965   8.176  19.486  0.00  0.00    +0.057 A 
ATOM     29  C   UNL     1     -12.372   9.745  21.277  0.00  0.00    +0.002 A 
ATOM     30  C   UNL     1     -11.687   9.389  20.115  0.00  0.00    +0.012 A 
BRANCH  28  31
ATOM      1  F   UNL     1     -10.833   6.490  18.221  0.00  0.00    -0.166 F 
ATOM      2  F   UNL     1     -10.094   8.520  18.035  0.00  0.00    -0.166 F 
ATOM      3  F   UNL     1     -11.985   7.967  17.117  0.00  0.00    -0.166 F 
ATOM     31  C   UNL     1     -11.233   7.796  18.243  0.00  0.00    +0.417 C 
ENDBRANCH  28  31
ENDBRANCH  10  22
ENDBRANCH   6  18
ENDBRANCH  14   6
TORSDOF 6
ENDMDL
MODEL 2
REMARK VINA RESULT:      -7.7      1.593      2.258
REMARK  Name = 11883385
REMARK  6 active torsions:
REMARK  status: ('A' for Active; 'I' for Inactive)
REMARK    1  A    between atoms: O_6  and  C_14
REMARK    2  A    between atoms: O_6  and  C_18
REMARK    3  A    between atoms: N_9  and  C_13
REMARK    4  A    between atoms: N_10  and  C_22
REMARK    5  A    between atoms: C_17  and  C_19
REMARK    6  A    between atoms: C_28  and  C_31
REMARK                            x       y       z     vdW  Elec       q    Type
REMARK                         _______ _______ _______ _____ _____    ______ ____
ROOT
ATOM      4  O   UNL     1     -16.981   4.626  25.508  0.00  0.00    -0.368 OA
ATOM      5  O   UNL     1     -16.910   1.883  24.141  0.00  0.00    -0.368 OA
ATOM     11  C   UNL     1     -16.158   2.418  25.250  0.00  0.00    +0.173 C 
ATOM     12  C   UNL     1     -15.895   3.878  24.938  0.00  0.00    +0.192 C 
ATOM     13  C   UNL     1     -17.021   2.461  26.489  0.00  0.00    +0.130 C 
ATOM     14  C   UNL     1     -15.930   3.901  23.429  0.00  0.00    +0.235 C 
ATOM     15  C   UNL     1     -17.804   3.748  26.291  0.00  0.00    +0.185 C 
ATOM     16  C   UNL     1     -17.007   2.886  23.119  0.00  0.00    +0.207 C 
ENDROOT
BRANCH  13   9
ATOM      7  O   UNL     1     -16.877   0.467  28.550  0.00  0.00    -0.270 OA
ATOM      9  N   UNL     1     -16.217   2.515  27.686  0.00  0.00    -0.304 N 
ATOM     17  C   UNL     1     -16.212   1.497  28.628  0.00  0.00    +0.244 C 
ATOM     32  H   UNL     1     -15.731   3.386  27.872  0.00  0.00    +0.149 HD
BRANCH  17  19
ATOM     19  C   UNL     1     -15.350   1.716  29.818  0.00  0.00    +0.037 A 
ATOM     20  C   UNL     1     -14.569   2.851  29.875  0.00  0.00    +0.013 A 
ATOM     21  C   UNL     1     -15.357   0.776  30.827  0.00  0.00    +0.013 A 
ATOM     23  C   UNL     1     -13.759   3.057  30.992  0.00  0.00    +0.001 A 
ATOM     24  C   UNL     1     -14.548   0.981  31.944  0.00  0.00    +0.001 A 
ATOM     27  C   UNL     1     -13.749   2.122  32.026  0.00  0.00    +0.000 A 
ENDBRANCH  17  19
ENDBRANCH  13   9
BRANCH  14   6
ATOM      6  O   UNL     1     -16.226   5.170  22.893  0.00  0.00    -0.442 OA
BRANCH   6  18
ATOM      8  O   UNL     1     -15.614   5.281  20.692  0.00  0.00    -0.226 OA
ATOM     10  N   UNL     1     -14.442   6.442  22.353  0.00  0.00    -0.251 N 
ATOM     18  C   UNL     1     -15.428   5.611  21.857  0.00  0.00    +0.405 C 
ATOM     33  H   UNL     1     -14.451   6.598  23.359  0.00  0.00    +0.158 HD
BRANCH  10  22
ATOM     22  C   UNL     1     -13.421   7.106  21.637  0.00  0.00    +0.037 A 
ATOM     25  C   UNL     1     -13.429   8.490  21.567  0.00  0.00    +0.035 A 
ATOM     26  C   UNL     1     -12.431   6.360  21.017  0.00  0.00    +0.023 A 
ATOM     28  C   UNL     1     -12.421   9.145  20.860  0.00  0.00    +0.057 A 
ATOM     29  C   UNL     1     -11.423   7.014  20.310  0.00  0.00    +0.002 A 
ATOM     30  C   UNL     1     -11.418   8.407  20.231  0.00  0.00    +0.012 A 
BRANCH  28  31
ATOM      1  F   UNL     1     -13.571  11.158  20.271  0.00  0.00    -0.166 F 
ATOM      2  F   UNL     1     -11.422  11.134  19.982  0.00  0.00    -0.166 F 
ATOM      3  F   UNL     1     -12.245  11.228  21.992  0.00  0.00    -0.166 F 
ATOM     31  C   UNL     1     -12.415  10.634  20.775  0.00  0.00    +0.417 C 
ENDBRANCH  28  31
ENDBRANCH  10  22
ENDBRANCH   6  18
ENDBRANCH  14   6
TORSDOF 6
ENDMDL
MODEL 3
REMARK VINA RESULT:      -7.5     18.003     19.517
REMARK  Name = 11883385
REMARK  6 active torsions:
REMARK  status: ('A' for Active; 'I' for Inactive)
REMARK    1  A    between atoms: O_6  and  C_14
REMARK    2  A    between atoms: O_6  and  C_18
REMARK    3  A    between atoms: N_9  and  C_13
REMARK    4  A    between atoms: N_10  and  C_22
REMARK    5  A    between atoms: C_17  and  C_19
REMARK    6  A    between atoms: C_28  and  C_31
REMARK                            x       y       z     vdW  Elec       q    Type
REMARK                         _______ _______ _______ _____ _____    ______ ____
ROOT
ATOM      4  O   UNL     1      -6.905 -11.655  17.118  0.00  0.00    -0.368 OA
ATOM      5  O   UNL     1      -6.386 -10.993  20.067  0.00  0.00    -0.368 OA
ATOM     11  C   UNL     1      -6.965 -10.213  18.999  0.00  0.00    +0.173 C 
ATOM     12  C   UNL     1      -6.203 -10.564  17.737  0.00  0.00    +0.192 C 
ATOM     13  C   UNL     1      -8.373 -10.684  18.716  0.00  0.00    +0.130 C 
ATOM     14  C   UNL     1      -4.860 -10.997  18.274  0.00  0.00    +0.235 C 
ATOM     15  C   UNL     1      -8.136 -11.888  17.821  0.00  0.00    +0.185 C 
ATOM     16  C   UNL     1      -5.241 -11.695  19.560  0.00  0.00    +0.207 C 
ENDROOT
BRANCH  13   9
ATOM      7  O   UNL     1     -11.233 -10.428  18.678  0.00  0.00    -0.270 OA
ATOM      9  N   UNL     1      -9.138  -9.666  18.037  0.00  0.00    -0.304 N 
ATOM     17  C   UNL     1     -10.524  -9.625  18.078  0.00  0.00    +0.244 C 
ATOM     32  H   UNL     1      -8.625  -9.038  17.428  0.00  0.00    +0.149 HD
BRANCH  17  19
ATOM     19  C   UNL     1     -11.164  -8.529  17.305  0.00  0.00    +0.037 A 
ATOM     20  C   UNL     1     -10.426  -7.402  17.011  0.00  0.00    +0.013 A 
ATOM     21  C   UNL     1     -12.477  -8.674  16.907  0.00  0.00    +0.013 A 
ATOM     23  C   UNL     1     -11.027  -6.373  16.284  0.00  0.00    +0.001 A 
ATOM     24  C   UNL     1     -13.078  -7.646  16.180  0.00  0.00    +0.001 A 
ATOM     27  C   UNL     1     -12.352  -6.495  15.869  0.00  0.00    +0.000 A 
ENDBRANCH  17  19
ENDBRANCH  13   9
BRANCH  14   6
ATOM      6  O   UNL     1      -4.150 -11.844  17.401  0.00  0.00    -0.442 OA
BRANCH   6  18
ATOM      8  O   UNL     1      -2.558 -10.512  16.442  0.00  0.00    -0.226 OA
ATOM     10  N   UNL     1      -4.171 -11.618  15.156  0.00  0.00    -0.251 N 
ATOM     18  C   UNL     1      -3.529 -11.248  16.323  0.00  0.00    +0.405 C 
ATOM     33  H   UNL     1      -4.967 -12.244  15.261  0.00  0.00    +0.158 HD
BRANCH  10  22
ATOM     22  C   UNL     1      -3.860 -11.236  13.831  0.00  0.00    +0.037 A 
ATOM     25  C   UNL     1      -4.690 -10.346  13.168  0.00  0.00    +0.035 A 
ATOM     26  C   UNL     1      -2.731 -11.759  13.222  0.00  0.00    +0.023 A 
ATOM     28  C   UNL     1      -4.383  -9.970  11.860  0.00  0.00    +0.057 A 
ATOM     29  C   UNL     1      -2.423 -11.383  11.915  0.00  0.00    +0.002 A 
ATOM     30  C   UNL     1      -3.249 -10.489  11.234  0.00  0.00    +0.012 A 
BRANCH  28  31
ATOM      1  F   UNL     1      -6.039  -9.604  10.174  0.00  0.00    -0.166 F 
ATOM      2  F   UNL     1      -4.582  -8.027  10.479  0.00  0.00    -0.166 F 
ATOM      3  F   UNL     1      -6.137  -8.367  11.961  0.00  0.00    -0.166 F 
ATOM     31  C   UNL     1      -5.265  -9.013  11.132  0.00  0.00    +0.417 C 
ENDBRANCH  28  31
ENDBRANCH  10  22
ENDBRANCH   6  18
ENDBRANCH  14   6
TORSDOF 6
ENDMDL
MODEL 4
REMARK VINA RESULT:      -7.5     15.905     18.696
REMARK  Name = 11883385
REMARK  6 active torsions:
REMARK  status: ('A' for Active; 'I' for Inactive)
REMARK    1  A    between atoms: O_6  and  C_14
REMARK    2  A    between atoms: O_6  and  C_18
REMARK    3  A    between atoms: N_9  and  C_13
REMARK    4  A    between atoms: N_10  and  C_22
REMARK    5  A    between atoms: C_17  and  C_19
REMARK    6  A    between atoms: C_28  and  C_31
REMARK                            x       y       z     vdW  Elec       q    Type
REMARK                         _______ _______ _______ _____ _____    ______ ____
ROOT
ATOM      4  O   UNL     1     -12.347  -7.936  14.609  0.00  0.00    -0.368 OA
ATOM      5  O   UNL     1     -11.105  -5.955  16.593  0.00  0.00    -0.368 OA
ATOM     11  C   UNL     1     -11.099  -5.994  15.150  0.00  0.00    +0.173 C 
ATOM     12  C   UNL     1     -11.001  -7.454  14.751  0.00  0.00    +0.192 C 
ATOM     13  C   UNL     1     -12.443  -5.561  14.613  0.00  0.00    +0.130 C 
ATOM     14  C   UNL     1     -10.308  -8.072  15.942  0.00  0.00    +0.235 C 
ATOM     15  C   UNL     1     -13.261  -6.836  14.727  0.00  0.00    +0.185 C 
ATOM     16  C   UNL     1     -10.887  -7.282  17.094  0.00  0.00    +0.207 C 
ENDROOT
BRANCH  13   9
ATOM      7  O   UNL     1     -13.953  -3.460  13.367  0.00  0.00    -0.270 OA
ATOM      9  N   UNL     1     -12.341  -5.123  13.242  0.00  0.00    -0.304 N 
ATOM     17  C   UNL     1     -13.117  -4.094  12.729  0.00  0.00    +0.244 C 
ATOM     32  H   UNL     1     -11.754  -5.676  12.626  0.00  0.00    +0.149 HD
BRANCH  17  19
ATOM     19  C   UNL     1     -12.912  -3.780  11.291  0.00  0.00    +0.037 A 
ATOM     20  C   UNL     1     -14.009  -3.471  10.514  0.00  0.00    +0.013 A 
ATOM     21  C   UNL     1     -11.631  -3.807  10.779  0.00  0.00    +0.013 A 
ATOM     23  C   UNL     1     -13.817  -3.176   9.164  0.00  0.00    +0.001 A 
ATOM     24  C   UNL     1     -11.439  -3.512   9.430  0.00  0.00    +0.001 A 
ATOM     27  C   UNL     1     -12.532  -3.196   8.622  0.00  0.00    +0.000 A 
ENDBRANCH  17  19
ENDBRANCH  13   9
BRANCH  14   6
ATOM      6  O   UNL     1     -10.543  -9.455  16.075  0.00  0.00    -0.442 OA
BRANCH   6  18
ATOM      8  O   UNL     1      -9.360 -11.392  15.798  0.00  0.00    -0.226 OA
ATOM     10  N   UNL     1      -8.501  -9.591  17.024  0.00  0.00    -0.251 N 
ATOM     18  C   UNL     1      -9.440 -10.260  16.262  0.00  0.00    +0.405 C 
ATOM     33  H   UNL     1      -8.752  -8.649  17.318  0.00  0.00    +0.158 HD
BRANCH  10  22
ATOM     22  C   UNL     1      -7.233 -10.051  17.445  0.00  0.00    +0.037 A 
ATOM     25  C   UNL     1      -6.209 -10.167  16.518  0.00  0.00    +0.035 A 
ATOM     26  C   UNL     1      -7.037 -10.377  18.777  0.00  0.00    +0.023 A 
ATOM     28  C   UNL     1      -4.958 -10.621  16.934  0.00  0.00    +0.057 A 
ATOM     29  C   UNL     1      -5.786 -10.831  19.194  0.00  0.00    +0.002 A 
ATOM     30  C   UNL     1      -4.746 -10.953  18.272  0.00  0.00    +0.012 A 
BRANCH  28  31
ATOM      1  F   UNL     1      -4.138 -10.228  14.722  0.00  0.00    -0.166 F 
ATOM      2  F   UNL     1      -3.477 -12.043  15.706  0.00  0.00    -0.166 F 
ATOM      3  F   UNL     1      -2.707 -10.116  16.356  0.00  0.00    -0.166 F 
ATOM     31  C   UNL     1      -3.845 -10.751  15.949  0.00  0.00    +0.417 C 
ENDBRANCH  28  31
ENDBRANCH  10  22
ENDBRANCH   6  18
ENDBRANCH  14   6
TORSDOF 6
ENDMDL
MODEL 5
REMARK VINA RESULT:      -7.3     27.799     30.807
REMARK  Name = 11883385
REMARK  6 active torsions:
REMARK  status: ('A' for Active; 'I' for Inactive)
REMARK    1  A    between atoms: O_6  and  C_14
REMARK    2  A    between atoms: O_6  and  C_18
REMARK    3  A    between atoms: N_9  and  C_13
REMARK    4  A    between atoms: N_10  and  C_22
REMARK    5  A    between atoms: C_17  and  C_19
REMARK    6  A    between atoms: C_28  and  C_31
REMARK                            x       y       z     vdW  Elec       q    Type
REMARK                         _______ _______ _______ _____ _____    ______ ____
ROOT
ATOM      4  O   UNL     1      14.009   9.393  19.967  0.00  0.00    -0.368 OA
ATOM      5  O   UNL     1      11.725   7.594  18.993  0.00  0.00    -0.368 OA
ATOM     11  C   UNL     1      11.946   8.260  20.254  0.00  0.00    +0.173 C 
ATOM     12  C   UNL     1      13.437   8.200  20.526  0.00  0.00    +0.192 C 
ATOM     13  C   UNL     1      11.662   9.737  20.118  0.00  0.00    +0.130 C 
ATOM     14  C   UNL     1      13.859   6.966  19.764  0.00  0.00    +0.235 C 
ATOM     15  C   UNL     1      12.956  10.261  19.520  0.00  0.00    +0.185 C 
ATOM     16  C   UNL     1      12.963   7.022  18.546  0.00  0.00    +0.207 C 
ENDROOT
BRANCH  13   9
ATOM      7  O   UNL     1      11.673  12.542  20.734  0.00  0.00    -0.270 OA
ATOM      9  N   UNL     1      11.396  10.339  21.402  0.00  0.00    -0.304 N 
ATOM     17  C   UNL     1      11.424  11.711  21.603  0.00  0.00    +0.244 C 
ATOM     32  H   UNL     1      11.296   9.709  22.192  0.00  0.00    +0.149 HD
BRANCH  17  19
ATOM     19  C   UNL     1      11.154  12.171  22.990  0.00  0.00    +0.037 A 
ATOM     20  C   UNL     1      10.694  13.457  23.188  0.00  0.00    +0.013 A 
ATOM     21  C   UNL     1      11.373  11.299  24.035  0.00  0.00    +0.013 A 
ATOM     23  C   UNL     1      10.440  13.888  24.490  0.00  0.00    +0.001 A 
ATOM     24  C   UNL     1      11.119  11.730  25.337  0.00  0.00    +0.001 A 
ATOM     27  C   UNL     1      10.652  13.026  25.564  0.00  0.00    +0.000 A 
ENDBRANCH  17  19
ENDBRANCH  13   9
BRANCH  14   6
ATOM      6  O   UNL     1      15.224   6.958  19.418  0.00  0.00    -0.442 OA
BRANCH   6  18
ATOM      8  O   UNL     1      15.780   6.059  21.446  0.00  0.00    -0.226 OA
ATOM     10  N   UNL     1      17.387   7.038  20.053  0.00  0.00    -0.251 N 
ATOM     18  C   UNL     1      16.118   6.629  20.415  0.00  0.00    +0.405 C 
ATOM     33  H   UNL     1      17.469   7.498  19.149  0.00  0.00    +0.158 HD
BRANCH  10  22
ATOM     22  C   UNL     1      18.590   6.896  20.783  0.00  0.00    +0.037 A 
ATOM     25  C   UNL     1      19.373   5.769  20.589  0.00  0.00    +0.035 A 
ATOM     26  C   UNL     1      18.962   7.886  21.677  0.00  0.00    +0.023 A 
ATOM     28  C   UNL     1      20.559   5.629  21.309  0.00  0.00    +0.057 A 
ATOM     29  C   UNL     1      20.148   7.747  22.397  0.00  0.00    +0.002 A 
ATOM     30  C   UNL     1      20.947   6.618  22.214  0.00  0.00    +0.012 A 
BRANCH  28  31
ATOM      1  F   UNL     1      22.528   4.659  20.358  0.00  0.00    -0.166 F 
ATOM      2  F   UNL     1      20.772   3.392  20.488  0.00  0.00    -0.166 F 
ATOM      3  F   UNL     1      21.874   3.907  22.291  0.00  0.00    -0.166 F 
ATOM     31  C   UNL     1      21.414   4.423  21.113  0.00  0.00    +0.417 C 
ENDBRANCH  28  31
ENDBRANCH  10  22
ENDBRANCH   6  18
ENDBRANCH  14   6
TORSDOF 6
ENDMDL
MODEL 6
REMARK VINA RESULT:      -7.2     19.809     21.293
REMARK  Name = 11883385
REMARK  6 active torsions:
REMARK  status: ('A' for Active; 'I' for Inactive)
REMARK    1  A    between atoms: O_6  and  C_14
REMARK    2  A    between atoms: O_6  and  C_18
REMARK    3  A    between atoms: N_9  and  C_13
REMARK    4  A    between atoms: N_10  and  C_22
REMARK    5  A    between atoms: C_17  and  C_19
REMARK    6  A    between atoms: C_28  and  C_31
REMARK                            x       y       z     vdW  Elec       q    Type
REMARK                         _______ _______ _______ _____ _____    ______ ____
ROOT
ATOM      4  O   UNL     1      -4.695 -12.042  12.372  0.00  0.00    -0.368 OA
ATOM      5  O   UNL     1      -1.988 -10.630  12.647  0.00  0.00    -0.368 OA
ATOM     11  C   UNL     1      -3.173 -10.595  13.470  0.00  0.00    +0.173 C 
ATOM     12  C   UNL     1      -4.361 -10.654  12.531  0.00  0.00    +0.192 C 
ATOM     13  C   UNL     1      -3.283 -11.868  14.276  0.00  0.00    +0.130 C 
ATOM     14  C   UNL     1      -3.803 -10.063  11.259  0.00  0.00    +0.235 C 
ATOM     15  C   UNL     1      -3.905 -12.828  13.276  0.00  0.00    +0.185 C 
ATOM     16  C   UNL     1      -2.380 -10.575  11.267  0.00  0.00    +0.207 C 
ENDROOT
BRANCH  13   9
ATOM      7  O   UNL     1      -2.494 -10.862  16.847  0.00  0.00    -0.270 OA
ATOM      9  N   UNL     1      -4.133 -11.687  15.428  0.00  0.00    -0.304 N 
ATOM     17  C   UNL     1      -3.658 -11.190  16.633  0.00  0.00    +0.244 C 
ATOM     32  H   UNL     1      -5.080 -12.044  15.359  0.00  0.00    +0.149 HD
BRANCH  17  19
ATOM     19  C   UNL     1      -4.654 -11.088  17.731  0.00  0.00    +0.037 A 
ATOM     20  C   UNL     1      -4.386 -11.708  18.934  0.00  0.00    +0.013 A 
ATOM     21  C   UNL     1      -5.815 -10.377  17.512  0.00  0.00    +0.013 A 
ATOM     23  C   UNL     1      -5.321 -11.611  19.965  0.00  0.00    +0.001 A 
ATOM     24  C   UNL     1      -6.750 -10.280  18.543  0.00  0.00    +0.001 A 
ATOM     27  C   UNL     1      -6.502 -10.897  19.770  0.00  0.00    +0.000 A 
ENDBRANCH  17  19
ENDBRANCH  13   9
BRANCH  14   6
ATOM      6  O   UNL     1      -4.502 -10.457  10.101  0.00  0.00    -0.442 OA
BRANCH   6  18
ATOM      8  O   UNL     1      -4.108  -8.588   8.844  0.00  0.00    -0.226 OA
ATOM     10  N   UNL     1      -6.213  -9.611   8.899  0.00  0.00    -0.251 N 
ATOM     18  C   UNL     1      -4.881  -9.456   9.230  0.00  0.00    +0.405 C 
ATOM     33  H   UNL     1      -6.692 -10.402   9.325  0.00  0.00    +0.158 HD
BRANCH  10  22
ATOM     22  C   UNL     1      -6.996  -8.808   8.039  0.00  0.00    +0.037 A 
ATOM     25  C   UNL     1      -7.792  -7.810   8.578  0.00  0.00    +0.035 A 
ATOM     26  C   UNL     1      -6.953  -9.035   6.673  0.00  0.00    +0.023 A 
ATOM     28  C   UNL     1      -8.564  -7.018   7.729  0.00  0.00    +0.057 A 
ATOM     29  C   UNL     1      -7.725  -8.243   5.823  0.00  0.00    +0.002 A 
ATOM     30  C   UNL     1      -8.531  -7.235   6.351  0.00  0.00    +0.012 A 
BRANCH  28  31
ATOM      1  F   UNL     1     -10.394  -5.506   7.432  0.00  0.00    -0.166 F 
ATOM      2  F   UNL     1      -8.736  -4.814   8.645  0.00  0.00    -0.166 F 
ATOM      3  F   UNL     1     -10.088  -6.330   9.421  0.00  0.00    -0.166 F 
ATOM     31  C   UNL     1      -9.426  -5.938   8.293  0.00  0.00    +0.417 C 
ENDBRANCH  28  31
ENDBRANCH  10  22
ENDBRANCH   6  18
ENDBRANCH  14   6
TORSDOF 6
ENDMDL
MODEL 7
REMARK VINA RESULT:      -7.1     16.279     18.983
REMARK  Name = 11883385
REMARK  6 active torsions:
REMARK  status: ('A' for Active; 'I' for Inactive)
REMARK    1  A    between atoms: O_6  and  C_14
REMARK    2  A    between atoms: O_6  and  C_18
REMARK    3  A    between atoms: N_9  and  C_13
REMARK    4  A    between atoms: N_10  and  C_22
REMARK    5  A    between atoms: C_17  and  C_19
REMARK    6  A    between atoms: C_28  and  C_31
REMARK                            x       y       z     vdW  Elec       q    Type
REMARK                         _______ _______ _______ _____ _____    ______ ____
ROOT
ATOM      4  O   UNL     1     -11.634  -8.113  14.299  0.00  0.00    -0.368 OA
ATOM      5  O   UNL     1     -11.578  -5.947  16.468  0.00  0.00    -0.368 OA
ATOM     11  C   UNL     1     -11.394  -5.873  15.039  0.00  0.00    +0.173 C 
ATOM     12  C   UNL     1     -10.644  -7.125  14.628  0.00  0.00    +0.192 C 
ATOM     13  C   UNL     1     -12.726  -6.002  14.336  0.00  0.00    +0.130 C 
ATOM     14  C   UNL     1      -9.892  -7.484  15.888  0.00  0.00    +0.235 C 
ATOM     15  C   UNL     1     -12.935  -7.507  14.316  0.00  0.00    +0.185 C 
ATOM     16  C   UNL     1     -10.876  -7.094  16.968  0.00  0.00    +0.207 C 
ENDROOT
BRANCH  13   9
ATOM      7  O   UNL     1     -13.825  -3.503  13.445  0.00  0.00    -0.270 OA
ATOM      9  N   UNL     1     -12.667  -5.462  13.000  0.00  0.00    -0.304 N 
ATOM     17  C   UNL     1     -13.229  -4.240  12.664  0.00  0.00    +0.244 C 
ATOM     32  H   UNL     1     -12.290  -6.068  12.277  0.00  0.00    +0.149 HD
BRANCH  17  19
ATOM     19  C   UNL     1     -13.106  -3.837  11.239  0.00  0.00    +0.037 A 
ATOM     20  C   UNL     1     -14.239  -3.450  10.555  0.00  0.00    +0.013 A 
ATOM     21  C   UNL     1     -11.861  -3.862  10.645  0.00  0.00    +0.013 A 
ATOM     23  C   UNL     1     -14.123  -3.071   9.218  0.00  0.00    +0.001 A 
ATOM     24  C   UNL     1     -11.745  -3.483   9.308  0.00  0.00    +0.001 A 
ATOM     27  C   UNL     1     -12.877  -3.087   8.594  0.00  0.00    +0.000 A 
ENDBRANCH  17  19
ENDBRANCH  13   9
BRANCH  14   6
ATOM      6  O   UNL     1      -9.534  -8.844  15.962  0.00  0.00    -0.442 OA
BRANCH   6  18
ATOM      8  O   UNL     1      -8.173  -8.876  17.799  0.00  0.00    -0.226 OA
ATOM     10  N   UNL     1      -7.487  -9.767  15.745  0.00  0.00    -0.251 N 
ATOM     18  C   UNL     1      -8.359  -9.145  16.618  0.00  0.00    +0.405 C 
ATOM     33  H   UNL     1      -7.826  -9.905  14.795  0.00  0.00    +0.158 HD
BRANCH  10  22
ATOM     22  C   UNL     1      -6.181 -10.240  16.008  0.00  0.00    +0.037 A 
ATOM     25  C   UNL     1      -5.905 -10.832  17.230  0.00  0.00    +0.035 A 
ATOM     26  C   UNL     1      -5.201 -10.101  15.038  0.00  0.00    +0.023 A 
ATOM     28  C   UNL     1      -4.616 -11.297  17.489  0.00  0.00    +0.057 A 
ATOM     29  C   UNL     1      -3.912 -10.566  15.296  0.00  0.00    +0.002 A 
ATOM     30  C   UNL     1      -3.619 -11.164  16.522  0.00  0.00    +0.012 A 
BRANCH  28  31
ATOM      1  F   UNL     1      -4.451 -13.296  18.793  0.00  0.00    -0.166 F 
ATOM      2  F   UNL     1      -5.088 -11.498  19.826  0.00  0.00    -0.166 F 
ATOM      3  F   UNL     1      -3.017 -11.713  19.199  0.00  0.00    -0.166 F 
ATOM     31  C   UNL     1      -4.302 -11.938  18.799  0.00  0.00    +0.417 C 
ENDBRANCH  28  31
ENDBRANCH  10  22
ENDBRANCH   6  18
ENDBRANCH  14   6
TORSDOF 6
ENDMDL
MODEL 8
REMARK VINA RESULT:      -7.0     16.911     19.040
REMARK  Name = 11883385
REMARK  6 active torsions:
REMARK  status: ('A' for Active; 'I' for Inactive)
REMARK    1  A    between atoms: O_6  and  C_14
REMARK    2  A    between atoms: O_6  and  C_18
REMARK    3  A    between atoms: N_9  and  C_13
REMARK    4  A    between atoms: N_10  and  C_22
REMARK    5  A    between atoms: C_17  and  C_19
REMARK    6  A    between atoms: C_28  and  C_31
REMARK                            x       y       z     vdW  Elec       q    Type
REMARK                         _______ _______ _______ _____ _____    ______ ____
ROOT
ATOM      4  O   UNL     1     -10.267  -9.316  14.794  0.00  0.00    -0.368 OA
ATOM      5  O   UNL     1     -10.308  -8.347  17.703  0.00  0.00    -0.368 OA
ATOM     11  C   UNL     1     -10.380  -7.627  16.454  0.00  0.00    +0.173 C 
ATOM     12  C   UNL     1      -9.464  -8.342  15.482  0.00  0.00    +0.192 C 
ATOM     13  C   UNL     1     -11.753  -7.785  15.842  0.00  0.00    +0.130 C 
ATOM     14  C   UNL     1      -8.458  -8.994  16.400  0.00  0.00    +0.235 C 
ATOM     15  C   UNL     1     -11.645  -9.135  15.154  0.00  0.00    +0.185 C 
ATOM     16  C   UNL     1      -9.310  -9.372  17.590  0.00  0.00    +0.207 C 
ENDROOT
BRANCH  13   9
ATOM      7  O   UNL     1     -14.287  -6.519  15.371  0.00  0.00    -0.270 OA
ATOM      9  N   UNL     1     -12.027  -6.732  14.895  0.00  0.00    -0.304 N 
ATOM     17  C   UNL     1     -13.290  -6.180  14.738  0.00  0.00    +0.244 C 
ATOM     32  H   UNL     1     -11.278  -6.482  14.258  0.00  0.00    +0.149 HD
BRANCH  17  19
ATOM     19  C   UNL     1     -13.414  -5.123  13.702  0.00  0.00    +0.037 A 
ATOM     20  C   UNL     1     -12.268  -4.617  13.126  0.00  0.00    +0.013 A 
ATOM     21  C   UNL     1     -14.672  -4.681  13.349  0.00  0.00    +0.013 A 
ATOM     23  C   UNL     1     -12.384  -3.625  12.152  0.00  0.00    +0.001 A 
ATOM     24  C   UNL     1     -14.788  -3.689  12.375  0.00  0.00    +0.001 A 
ATOM     27  C   UNL     1     -13.644  -3.161  11.777  0.00  0.00    +0.000 A 
ENDBRANCH  17  19
ENDBRANCH  13   9
BRANCH  14   6
ATOM      6  O   UNL     1      -7.817 -10.112  15.829  0.00  0.00    -0.442 OA
BRANCH   6  18
ATOM      8  O   UNL     1      -5.690  -9.386  16.250  0.00  0.00    -0.226 OA
ATOM     10  N   UNL     1      -6.217 -10.590  14.313  0.00  0.00    -0.251 N 
ATOM     18  C   UNL     1      -6.480  -9.975  15.522  0.00  0.00    +0.405 C 
ATOM     33  H   UNL     1      -7.010 -11.031  13.852  0.00  0.00    +0.158 HD
BRANCH  10  22
ATOM     22  C   UNL     1      -4.981 -10.685  13.634  0.00  0.00    +0.037 A 
ATOM     25  C   UNL     1      -4.818 -10.029  12.424  0.00  0.00    +0.035 A 
ATOM     26  C   UNL     1      -3.956 -11.432  14.191  0.00  0.00    +0.023 A 
ATOM     28  C   UNL     1      -3.598 -10.123  11.754  0.00  0.00    +0.057 A 
ATOM     29  C   UNL     1      -2.736 -11.526  13.522  0.00  0.00    +0.002 A 
ATOM     30  C   UNL     1      -2.557 -10.872  12.303  0.00  0.00    +0.012 A 
BRANCH  28  31
ATOM      1  F   UNL     1      -4.188  -8.313  10.306  0.00  0.00    -0.166 F 
ATOM      2  F   UNL     1      -3.688 -10.201   9.364  0.00  0.00    -0.166 F 
ATOM      3  F   UNL     1      -2.123  -8.994  10.270  0.00  0.00    -0.166 F 
ATOM     31  C   UNL     1      -3.406  -9.424  10.451  0.00  0.00    +0.417 C 
ENDBRANCH  28  31
ENDBRANCH  10  22
ENDBRANCH   6  18
ENDBRANCH  14   6
TORSDOF 6
ENDMDL
MODEL 9
REMARK VINA RESULT:      -7.0     33.430     35.821
REMARK  Name = 11883385
REMARK  6 active torsions:
REMARK  status: ('A' for Active; 'I' for Inactive)
REMARK    1  A    between atoms: O_6  and  C_14
REMARK    2  A    between atoms: O_6  and  C_18
REMARK    3  A    between atoms: N_9  and  C_13
REMARK    4  A    between atoms: N_10  and  C_22
REMARK    5  A    between atoms: C_17  and  C_19
REMARK    6  A    between atoms: C_28  and  C_31
REMARK                            x       y       z     vdW  Elec       q    Type
REMARK                         _______ _______ _______ _____ _____    ______ ____
ROOT
ATOM      4  O   UNL     1       8.466   4.333  -4.436  0.00  0.00    -0.368 OA
ATOM      5  O   UNL     1       9.640   7.062  -5.192  0.00  0.00    -0.368 OA
ATOM     11  C   UNL     1       9.460   6.420  -3.912  0.00  0.00    +0.173 C 
ATOM     12  C   UNL     1       8.151   5.659  -3.983  0.00  0.00    +0.192 C 
ATOM     13  C   UNL     1      10.498   5.339  -3.724  0.00  0.00    +0.130 C 
ATOM     14  C   UNL     1       7.377   6.436  -5.021  0.00  0.00    +0.235 C 
ATOM     15  C   UNL     1       9.892   4.174  -4.487  0.00  0.00    +0.185 C 
ATOM     16  C   UNL     1       8.465   6.848  -5.988  0.00  0.00    +0.207 C 
ENDROOT
BRANCH  13   9
ATOM      7  O   UNL     1      12.628   3.796  -2.571  0.00  0.00    -0.270 OA
ATOM      9  N   UNL     1      10.672   5.018  -2.328  0.00  0.00    -0.304 N 
ATOM     17  C   UNL     1      11.740   4.263  -1.864  0.00  0.00    +0.244 C 
ATOM     32  H   UNL     1       9.916   5.273  -1.702  0.00  0.00    +0.149 HD
BRANCH  17  19
ATOM     19  C   UNL     1      11.762   3.998  -0.402  0.00  0.00    +0.037 A 
ATOM     20  C   UNL     1      12.873   3.394   0.149  0.00  0.00    +0.013 A 
ATOM     21  C   UNL     1      10.670   4.365   0.358  0.00  0.00    +0.013 A 
ATOM     23  C   UNL     1      12.894   3.146   1.521  0.00  0.00    +0.001 A 
ATOM     24  C   UNL     1      10.692   4.117   1.730  0.00  0.00    +0.001 A 
ATOM     27  C   UNL     1      11.804   3.508   2.312  0.00  0.00    +0.000 A 
ENDBRANCH  17  19
ENDBRANCH  13   9
BRANCH  14   6
ATOM      6  O   UNL     1       6.366   5.683  -5.649  0.00  0.00    -0.442 OA
BRANCH   6  18
ATOM      8  O   UNL     1       4.942   6.118  -3.914  0.00  0.00    -0.226 OA
ATOM     10  N   UNL     1       4.390   4.595  -5.604  0.00  0.00    -0.251 N 
ATOM     18  C   UNL     1       5.188   5.515  -4.951  0.00  0.00    +0.405 C 
ATOM     33  H   UNL     1       4.771   4.199  -6.461  0.00  0.00    +0.158 HD
BRANCH  10  22
ATOM     22  C   UNL     1       3.107   4.135  -5.231  0.00  0.00    +0.037 A 
ATOM     25  C   UNL     1       2.758   2.818  -5.481  0.00  0.00    +0.035 A 
ATOM     26  C   UNL     1       2.221   5.011  -4.624  0.00  0.00    +0.023 A 
ATOM     28  C   UNL     1       1.491   2.364  -5.114  0.00  0.00    +0.057 A 
ATOM     29  C   UNL     1       0.955   4.559  -4.256  0.00  0.00    +0.002 A 
ATOM     30  C   UNL     1       0.589   3.235  -4.501  0.00  0.00    +0.012 A 
BRANCH  28  31
ATOM      1  F   UNL     1       0.769   0.704  -6.677  0.00  0.00    -0.166 F 
ATOM      2  F   UNL     1       0.017   0.537  -4.650  0.00  0.00    -0.166 F 
ATOM      3  F   UNL     1       2.097   0.065  -5.077  0.00  0.00    -0.166 F 
ATOM     31  C   UNL     1       1.099   0.949  -5.374  0.00  0.00    +0.417 C 
ENDBRANCH  28  31
ENDBRANCH  10  22
ENDBRANCH   6  18
ENDBRANCH  14   6
TORSDOF 6
ENDMDL
MODEL 10
REMARK VINA RESULT:      -7.0     17.827     18.958
REMARK  Name = 11883385
REMARK  6 active torsions:
REMARK  status: ('A' for Active; 'I' for Inactive)
REMARK    1  A    between atoms: O_6  and  C_14
REMARK    2  A    between atoms: O_6  and  C_18
REMARK    3  A    between atoms: N_9  and  C_13
REMARK    4  A    between atoms: N_10  and  C_22
REMARK    5  A    between atoms: C_17  and  C_19
REMARK    6  A    between atoms: C_28  and  C_31
REMARK                            x       y       z     vdW  Elec       q    Type
REMARK                         _______ _______ _______ _____ _____    ______ ____
ROOT
ATOM      4  O   UNL     1      -9.794 -11.991  17.711  0.00  0.00    -0.368 OA
ATOM      5  O   UNL     1      -7.987 -12.284  20.171  0.00  0.00    -0.368 OA
ATOM     11  C   UNL     1      -9.161 -11.478  19.938  0.00  0.00    +0.173 C 
ATOM     12  C   UNL     1      -9.094 -11.012  18.496  0.00  0.00    +0.192 C 
ATOM     13  C   UNL     1     -10.400 -12.341  19.983  0.00  0.00    +0.130 C 
ATOM     14  C   UNL     1      -7.610 -11.027  18.217  0.00  0.00    +0.235 C 
ATOM     15  C   UNL     1     -10.429 -12.936  18.586  0.00  0.00    +0.185 C 
ATOM     16  C   UNL     1      -7.148 -12.230  19.007  0.00  0.00    +0.207 C 
ENDROOT
BRANCH  13   9
ATOM      7  O   UNL     1     -12.753 -13.180  21.400  0.00  0.00    -0.270 OA
ATOM      9  N   UNL     1     -11.579 -11.550  20.241  0.00  0.00    -0.304 N 
ATOM     17  C   UNL     1     -12.671 -12.045  20.939  0.00  0.00    +0.244 C 
ATOM     32  H   UNL     1     -11.629 -10.641  19.792  0.00  0.00    +0.149 HD
BRANCH  17  19
ATOM     19  C   UNL     1     -13.818 -11.113  21.099  0.00  0.00    +0.037 A 
ATOM     20  C   UNL     1     -13.770  -9.885  20.473  0.00  0.00    +0.013 A 
ATOM     21  C   UNL     1     -14.893 -11.506  21.868  0.00  0.00    +0.013 A 
ATOM     23  C   UNL     1     -14.847  -9.011  20.622  0.00  0.00    +0.001 A 
ATOM     24  C   UNL     1     -15.969 -10.632  22.017  0.00  0.00    +0.001 A 
ATOM     27  C   UNL     1     -15.946  -9.384  21.394  0.00  0.00    +0.000 A 
ENDBRANCH  17  19
ENDBRANCH  13   9
BRANCH  14   6
ATOM      6  O   UNL     1      -7.297 -11.139  16.848  0.00  0.00    -0.442 OA
BRANCH   6  18
ATOM      8  O   UNL     1      -6.209  -9.183  16.377  0.00  0.00    -0.226 OA
ATOM     10  N   UNL     1      -5.217 -11.267  15.983  0.00  0.00    -0.251 N 
ATOM     18  C   UNL     1      -6.219 -10.408  16.393  0.00  0.00    +0.405 C 
ATOM     33  H   UNL     1      -5.413 -12.261  16.075  0.00  0.00    +0.158 HD
BRANCH  10  22
ATOM     22  C   UNL     1      -3.949 -10.936  15.453  0.00  0.00    +0.037 A 
ATOM     25  C   UNL     1      -3.795 -10.824  14.081  0.00  0.00    +0.035 A 
ATOM     26  C   UNL     1      -2.885 -10.732  16.316  0.00  0.00    +0.023 A 
ATOM     28  C   UNL     1      -2.543 -10.498  13.558  0.00  0.00    +0.057 A 
ATOM     29  C   UNL     1      -1.634 -10.406  15.795  0.00  0.00    +0.002 A 
ATOM     30  C   UNL     1      -1.462 -10.289  14.415  0.00  0.00    +0.012 A 
BRANCH  28  31
ATOM      1  F   UNL     1      -3.341  -9.646  11.470  0.00  0.00    -0.166 F 
ATOM      2  F   UNL     1      -2.342 -11.571  11.429  0.00  0.00    -0.166 F 
ATOM      3  F   UNL     1      -1.187  -9.757  11.751  0.00  0.00    -0.166 F 
ATOM     31  C   UNL     1      -2.360 -10.372  12.083  0.00  0.00    +0.417 C 
ENDBRANCH  28  31
ENDBRANCH  10  22
ENDBRANCH   6  18
ENDBRANCH  14   6
TORSDOF 6
ENDMDL
