MODEL 1
REMARK VINA RESULT:      -6.6      0.000      0.000
REMARK  Name = 40777895
REMARK  11 active torsions:
REMARK  status: ('A' for Active; 'I' for Inactive)
REMARK    1  A    between atoms: S_2  and  N_11
REMARK    2  A    between atoms: S_2  and  C_24
REMARK    3  A    between atoms: O_4  and  C_13
REMARK    4  A    between atoms: O_5  and  C_14
REMARK    5  A    between atoms: O_6  and  C_23
REMARK    6  A    between atoms: O_6  and  C_25
REMARK    7  A    between atoms: N_11  and  C_22
REMARK    8  A    between atoms: C_12  and  C_17
REMARK    9  A    between atoms: C_15  and  C_22
REMARK   10  A    between atoms: C_16  and  C_23
REMARK   11  A    between atoms: C_17  and  C_21
REMARK                            x       y       z     vdW  Elec       q    Type
REMARK                         _______ _______ _______ _____ _____    ______ ____
ROOT
ATOM      3  O   UNL     1      11.185   8.932  20.309  0.00  0.00    -0.366 OA
ATOM     12  C   UNL     1      11.746   7.620  20.123  0.00  0.00    +0.158 C 
ATOM     13  C   UNL     1      11.975   7.070  21.520  0.00  0.00    +0.175 C 
ATOM     14  C   UNL     1      10.793   7.646  22.272  0.00  0.00    +0.175 C 
ATOM     15  C   UNL     1      10.674   9.037  21.659  0.00  0.00    +0.165 C 
ENDROOT
BRANCH  13   4
ATOM      4  O   UNL     1      12.013   5.659  21.535  0.00  0.00    -0.387 OA
ATOM     31  H   UNL     1      11.202   5.350  21.973  0.00  0.00    +0.210 HD
ENDBRANCH  13   4
BRANCH  14   5
ATOM      5  O   UNL     1       9.605   6.920  21.958  0.00  0.00    -0.387 OA
ATOM     32  H   UNL     1       9.790   5.978  22.116  0.00  0.00    +0.210 HD
ENDBRANCH  14   5
BRANCH  12  17
ATOM     17  C   UNL     1      13.017   7.720  19.299  0.00  0.00    +0.130 C 
BRANCH  17  21
ATOM      7  O   UNL     1      14.627   6.460  20.521  0.00  0.00    -0.276 OA
ATOM     10  N   UNL     1      14.812   8.765  20.597  0.00  0.00    -0.296 N 
ATOM     16  C   UNL     1      15.929   8.812  21.542  0.00  0.00    +0.102 C 
ATOM     18  C   UNL     1      15.946  10.268  22.013  0.00  0.00    +0.026 C 
ATOM     19  C   UNL     1      14.367  10.109  20.235  0.00  0.00    +0.108 C 
ATOM     20  C   UNL     1      15.431  11.037  20.803  0.00  0.00    +0.021 C 
ATOM     21  C   UNL     1      14.222   7.577  20.195  0.00  0.00    +0.218 C 
BRANCH  16  23
ATOM     23  C   UNL     1      17.242   8.406  20.875  0.00  0.00    +0.181 C 
BRANCH  23   6
ATOM      6  O   UNL     1      17.635   7.147  21.386  0.00  0.00    -0.381 OA
ATOM     25  C   UNL     1      18.200   6.320  20.374  0.00  0.00    +0.194 C 
ENDBRANCH  23   6
ENDBRANCH  16  23
ENDBRANCH  17  21
ENDBRANCH  12  17
BRANCH  15  22
ATOM     22  C   UNL     1      11.503  10.084  22.390  0.00  0.00    +0.140 C 
BRANCH  22  11
ATOM     11  N   UNL     1      10.669  11.107  22.949  0.00  0.00    -0.187 NA
ATOM     33  H   UNL     1      10.133  11.677  22.284  0.00  0.00    +0.148 HD
BRANCH  11   2
ATOM      2  S   UNL     1      11.019  11.806  24.486  0.00  0.00    +0.058 S 
ATOM      8  O   UNL     1      11.137  10.740  25.462  0.00  0.00    -0.153 OA
ATOM      9  O   UNL     1      10.139  12.931  24.736  0.00  0.00    -0.153 OA
BRANCH   2  24
ATOM      1 CL   UNL     1      16.756  14.151  23.478  0.00  0.00    -0.084 Cl
ATOM     24  C   UNL     1      12.634  12.466  24.202  0.00  0.00    +0.105 A 
ATOM     26  C   UNL     1      13.715  12.017  24.962  0.00  0.00    +0.030 A 
ATOM     27  C   UNL     1      12.828  13.436  23.219  0.00  0.00    +0.030 A 
ATOM     28  C   UNL     1      14.989  12.538  24.738  0.00  0.00    +0.022 A 
ATOM     29  C   UNL     1      14.103  13.957  22.995  0.00  0.00    +0.022 A 
ATOM     30  C   UNL     1      15.183  13.508  23.754  0.00  0.00    +0.041 A 
ENDBRANCH   2  24
ENDBRANCH  11   2
ENDBRANCH  22  11
ENDBRANCH  15  22
TORSDOF 10
ENDMDL
MODEL 2
REMARK VINA RESULT:      -6.4      2.494      6.078
REMARK  Name = 40777895
REMARK  11 active torsions:
REMARK  status: ('A' for Active; 'I' for Inactive)
REMARK    1  A    between atoms: S_2  and  N_11
REMARK    2  A    between atoms: S_2  and  C_24
REMARK    3  A    between atoms: O_4  and  C_13
REMARK    4  A    between atoms: O_5  and  C_14
REMARK    5  A    between atoms: O_6  and  C_23
REMARK    6  A    between atoms: O_6  and  C_25
REMARK    7  A    between atoms: N_11  and  C_22
REMARK    8  A    between atoms: C_12  and  C_17
REMARK    9  A    between atoms: C_15  and  C_22
REMARK   10  A    between atoms: C_16  and  C_23
REMARK   11  A    between atoms: C_17  and  C_21
REMARK                            x       y       z     vdW  Elec       q    Type
REMARK                         _______ _______ _______ _____ _____    ______ ____
ROOT
ATOM      3  O   UNL     1      12.339   8.898  22.204  0.00  0.00    -0.366 OA
ATOM     12  C   UNL     1      11.558   9.420  21.113  0.00  0.00    +0.158 C 
ATOM     13  C   UNL     1      11.747   8.440  19.968  0.00  0.00    +0.175 C 
ATOM     14  C   UNL     1      11.829   7.121  20.708  0.00  0.00    +0.175 C 
ATOM     15  C   UNL     1      12.623   7.502  21.952  0.00  0.00    +0.165 C 
ENDROOT
BRANCH  13   4
ATOM      4  O   UNL     1      10.684   8.497  19.041  0.00  0.00    -0.387 OA
ATOM     31  H   UNL     1      10.422   9.430  18.955  0.00  0.00    +0.210 HD
ENDBRANCH  13   4
BRANCH  14   5
ATOM      5  O   UNL     1      10.529   6.704  21.122  0.00  0.00    -0.387 OA
ATOM     32  H   UNL     1      10.513   6.725  22.095  0.00  0.00    +0.210 HD
ENDBRANCH  14   5
BRANCH  12  17
ATOM     17  C   UNL     1      12.019  10.828  20.783  0.00  0.00    +0.130 C 
BRANCH  17  21
ATOM      7  O   UNL     1      10.811  12.083  22.408  0.00  0.00    -0.276 OA
ATOM     10  N   UNL     1      13.115  12.027  22.616  0.00  0.00    -0.296 N 
ATOM     16  C   UNL     1      13.202  12.945  23.754  0.00  0.00    +0.102 C 
ATOM     18  C   UNL     1      14.681  13.334  23.796  0.00  0.00    +0.026 C 
ATOM     19  C   UNL     1      14.442  11.601  22.177  0.00  0.00    +0.108 C 
ATOM     20  C   UNL     1      15.388  12.094  23.261  0.00  0.00    +0.021 C 
ATOM     21  C   UNL     1      11.913  11.704  22.007  0.00  0.00    +0.218 C 
BRANCH  16  23
ATOM     23  C   UNL     1      12.746  12.273  25.049  0.00  0.00    +0.181 C 
BRANCH  23   6
ATOM      6  O   UNL     1      12.087  13.238  25.847  0.00  0.00    -0.381 OA
ATOM     25  C   UNL     1      10.681  13.234  25.624  0.00  0.00    +0.194 C 
ENDBRANCH  23   6
ENDBRANCH  16  23
ENDBRANCH  17  21
ENDBRANCH  12  17
BRANCH  15  22
ATOM     22  C   UNL     1      14.127   7.361  21.766  0.00  0.00    +0.140 C 
BRANCH  22  11
ATOM     11  N   UNL     1      14.435   6.493  20.668  0.00  0.00    -0.187 NA
ATOM     33  H   UNL     1      14.290   5.488  20.823  0.00  0.00    +0.148 HD
BRANCH  11   2
ATOM      2  S   UNL     1      15.575   6.949  19.459  0.00  0.00    +0.058 S 
ATOM      8  O   UNL     1      14.998   8.009  18.655  0.00  0.00    -0.153 OA
ATOM      9  O   UNL     1      16.128   5.770  18.822  0.00  0.00    -0.153 OA
BRANCH   2  24
ATOM      1 CL   UNL     1      20.141   9.449  22.970  0.00  0.00    -0.084 Cl
ATOM     24  C   UNL     1      16.861   7.653  20.447  0.00  0.00    +0.105 A 
ATOM     26  C   UNL     1      17.854   6.835  20.986  0.00  0.00    +0.030 A 
ATOM     27  C   UNL     1      16.882   9.027  20.689  0.00  0.00    +0.030 A 
ATOM     28  C   UNL     1      18.868   7.389  21.766  0.00  0.00    +0.022 A 
ATOM     29  C   UNL     1      17.897   9.582  21.469  0.00  0.00    +0.022 A 
ATOM     30  C   UNL     1      18.890   8.764  22.008  0.00  0.00    +0.041 A 
ENDBRANCH   2  24
ENDBRANCH  11   2
ENDBRANCH  22  11
ENDBRANCH  15  22
TORSDOF 10
ENDMDL
MODEL 3
REMARK VINA RESULT:      -6.2     27.809     30.593
REMARK  Name = 40777895
REMARK  11 active torsions:
REMARK  status: ('A' for Active; 'I' for Inactive)
REMARK    1  A    between atoms: S_2  and  N_11
REMARK    2  A    between atoms: S_2  and  C_24
REMARK    3  A    between atoms: O_4  and  C_13
REMARK    4  A    between atoms: O_5  and  C_14
REMARK    5  A    between atoms: O_6  and  C_23
REMARK    6  A    between atoms: O_6  and  C_25
REMARK    7  A    between atoms: N_11  and  C_22
REMARK    8  A    between atoms: C_12  and  C_17
REMARK    9  A    between atoms: C_15  and  C_22
REMARK   10  A    between atoms: C_16  and  C_23
REMARK   11  A    between atoms: C_17  and  C_21
REMARK                            x       y       z     vdW  Elec       q    Type
REMARK                         _______ _______ _______ _____ _____    ______ ____
ROOT
ATOM      3  O   UNL     1     -16.120   1.885  25.184  0.00  0.00    -0.366 OA
ATOM     12  C   UNL     1     -16.777   1.216  26.275  0.00  0.00    +0.158 C 
ATOM     13  C   UNL     1     -18.189   0.932  25.793  0.00  0.00    +0.175 C 
ATOM     14  C   UNL     1     -17.956   0.639  24.325  0.00  0.00    +0.175 C 
ATOM     15  C   UNL     1     -16.869   1.647  23.969  0.00  0.00    +0.165 C 
ENDROOT
BRANCH  13   4
ATOM      4  O   UNL     1     -18.782  -0.142  26.491  0.00  0.00    -0.387 OA
ATOM     31  H   UNL     1     -18.594  -0.954  25.990  0.00  0.00    +0.210 HD
ENDBRANCH  13   4
BRANCH  14   5
ATOM      5  O   UNL     1     -17.416  -0.672  24.161  0.00  0.00    -0.387 OA
ATOM     32  H   UNL     1     -16.798  -0.640  23.410  0.00  0.00    +0.210 HD
ENDBRANCH  14   5
BRANCH  12  17
ATOM     17  C   UNL     1     -16.728   2.090  27.514  0.00  0.00    +0.130 C 
BRANCH  17  21
ATOM      7  O   UNL     1     -17.137   0.186  28.884  0.00  0.00    -0.276 OA
ATOM     10  N   UNL     1     -15.576   1.716  29.643  0.00  0.00    -0.296 N 
ATOM     16  C   UNL     1     -15.313   1.063  30.928  0.00  0.00    +0.102 C 
ATOM     18  C   UNL     1     -14.585   2.137  31.739  0.00  0.00    +0.026 C 
ATOM     19  C   UNL     1     -14.810   2.953  29.511  0.00  0.00    +0.108 C 
ATOM     20  C   UNL     1     -13.835   2.934  30.679  0.00  0.00    +0.021 C 
ATOM     21  C   UNL     1     -16.510   1.236  28.739  0.00  0.00    +0.218 C 
BRANCH  16  23
ATOM     23  C   UNL     1     -14.467  -0.197  30.750  0.00  0.00    +0.181 C 
BRANCH  23   6
ATOM      6  O   UNL     1     -13.606  -0.007  29.644  0.00  0.00    -0.381 OA
ATOM     25  C   UNL     1     -13.182  -1.247  29.087  0.00  0.00    +0.194 C 
ENDBRANCH  23   6
ENDBRANCH  16  23
ENDBRANCH  17  21
ENDBRANCH  12  17
BRANCH  15  22
ATOM     22  C   UNL     1     -17.425   2.982  23.496  0.00  0.00    +0.140 C 
BRANCH  22  11
ATOM     11  N   UNL     1     -16.430   3.741  22.798  0.00  0.00    -0.187 NA
ATOM     33  H   UNL     1     -15.518   3.838  23.262  0.00  0.00    +0.148 HD
BRANCH  11   2
ATOM      2  S   UNL     1     -16.867   4.953  21.652  0.00  0.00    +0.058 S 
ATOM      8  O   UNL     1     -17.702   5.935  22.315  0.00  0.00    -0.153 OA
ATOM      9  O   UNL     1     -17.306   4.337  20.415  0.00  0.00    -0.153 OA
BRANCH   2  24
ATOM      1 CL   UNL     1     -11.295   7.608  20.502  0.00  0.00    -0.084 Cl
ATOM     24  C   UNL     1     -15.298   5.700  21.329  0.00  0.00    +0.105 A 
ATOM     26  C   UNL     1     -14.151   5.213  21.954  0.00  0.00    +0.030 A 
ATOM     27  C   UNL     1     -15.208   6.777  20.447  0.00  0.00    +0.030 A 
ATOM     28  C   UNL     1     -12.913   5.802  21.699  0.00  0.00    +0.022 A 
ATOM     29  C   UNL     1     -13.969   7.367  20.191  0.00  0.00    +0.022 A 
ATOM     30  C   UNL     1     -12.822   6.880  20.817  0.00  0.00    +0.041 A 
ENDBRANCH   2  24
ENDBRANCH  11   2
ENDBRANCH  22  11
ENDBRANCH  15  22
TORSDOF 10
ENDMDL
MODEL 4
REMARK VINA RESULT:      -6.2     27.767     29.562
REMARK  Name = 40777895
REMARK  11 active torsions:
REMARK  status: ('A' for Active; 'I' for Inactive)
REMARK    1  A    between atoms: S_2  and  N_11
REMARK    2  A    between atoms: S_2  and  C_24
REMARK    3  A    between atoms: O_4  and  C_13
REMARK    4  A    between atoms: O_5  and  C_14
REMARK    5  A    between atoms: O_6  and  C_23
REMARK    6  A    between atoms: O_6  and  C_25
REMARK    7  A    between atoms: N_11  and  C_22
REMARK    8  A    between atoms: C_12  and  C_17
REMARK    9  A    between atoms: C_15  and  C_22
REMARK   10  A    between atoms: C_16  and  C_23
REMARK   11  A    between atoms: C_17  and  C_21
REMARK                            x       y       z     vdW  Elec       q    Type
REMARK                         _______ _______ _______ _____ _____    ______ ____
ROOT
ATOM      3  O   UNL     1      -6.219 -11.677  17.264  0.00  0.00    -0.366 OA
ATOM     12  C   UNL     1      -4.933 -11.422  16.672  0.00  0.00    +0.158 C 
ATOM     13  C   UNL     1      -3.979 -11.214  17.836  0.00  0.00    +0.175 C 
ATOM     14  C   UNL     1      -4.528 -12.190  18.857  0.00  0.00    +0.175 C 
ATOM     15  C   UNL     1      -6.032 -12.055  18.648  0.00  0.00    +0.165 C 
ENDROOT
BRANCH  13   4
ATOM      4  O   UNL     1      -2.640 -11.475  17.477  0.00  0.00    -0.387 OA
ATOM     31  H   UNL     1      -2.075 -11.149  18.199  0.00  0.00    +0.210 HD
ENDBRANCH  13   4
BRANCH  14   5
ATOM      5  O   UNL     1      -4.151 -13.524  18.519  0.00  0.00    -0.387 OA
ATOM     32  H   UNL     1      -4.907 -13.933  18.062  0.00  0.00    +0.210 HD
ENDBRANCH  14   5
BRANCH  12  17
ATOM     17  C   UNL     1      -5.025 -10.223  15.747  0.00  0.00    +0.130 C 
BRANCH  17  21
ATOM      7  O   UNL     1      -6.418 -10.943  13.955  0.00  0.00    -0.276 OA
ATOM     10  N   UNL     1      -4.150 -10.776  13.528  0.00  0.00    -0.296 N 
ATOM     16  C   UNL     1      -4.199 -11.297  12.160  0.00  0.00    +0.102 C 
ATOM     18  C   UNL     1      -2.738 -11.622  11.842  0.00  0.00    +0.026 C 
ATOM     19  C   UNL     1      -2.778 -10.477  13.931  0.00  0.00    +0.108 C 
ATOM     20  C   UNL     1      -1.961 -10.592  12.653  0.00  0.00    +0.021 C 
ATOM     21  C   UNL     1      -5.274 -10.682  14.332  0.00  0.00    +0.218 C 
BRANCH  16  23
ATOM     23  C   UNL     1      -4.785 -10.270  11.192  0.00  0.00    +0.181 C 
BRANCH  23   6
ATOM      6  O   UNL     1      -4.080 -10.353   9.968  0.00  0.00    -0.381 OA
ATOM     25  C   UNL     1      -4.151  -9.135   9.234  0.00  0.00    +0.194 C 
ENDBRANCH  23   6
ENDBRANCH  16  23
ENDBRANCH  17  21
ENDBRANCH  12  17
BRANCH  15  22
ATOM     22  C   UNL     1      -6.660 -10.973  19.515  0.00  0.00    +0.140 C 
BRANCH  22  11
ATOM     11  N   UNL     1      -7.709 -10.292  18.815  0.00  0.00    -0.187 NA
ATOM     33  H   UNL     1      -7.544  -9.303  18.590  0.00  0.00    +0.148 HD
BRANCH  11   2
ATOM      2  S   UNL     1      -9.349 -10.812  18.932  0.00  0.00    +0.058 S 
ATOM      8  O   UNL     1      -9.767 -10.713  20.317  0.00  0.00    -0.153 OA
ATOM      9  O   UNL     1      -9.535 -12.050  18.201  0.00  0.00    -0.153 OA
BRANCH   2  24
ATOM      1 CL   UNL     1     -12.289  -6.309  15.692  0.00  0.00    -0.084 Cl
ATOM     24  C   UNL     1     -10.177  -9.544  18.020  0.00  0.00    +0.105 A 
ATOM     26  C   UNL     1      -9.443  -8.504  17.449  0.00  0.00    +0.030 A 
ATOM     27  C   UNL     1     -11.563  -9.584  17.872  0.00  0.00    +0.030 A 
ATOM     28  C   UNL     1     -10.096  -7.504  16.730  0.00  0.00    +0.022 A 
ATOM     29  C   UNL     1     -12.216  -8.583  17.151  0.00  0.00    +0.022 A 
ATOM     30  C   UNL     1     -11.484  -7.543  16.580  0.00  0.00    +0.041 A 
ENDBRANCH   2  24
ENDBRANCH  11   2
ENDBRANCH  22  11
ENDBRANCH  15  22
TORSDOF 10
ENDMDL
MODEL 5
REMARK VINA RESULT:      -6.0     28.253     29.760
REMARK  Name = 40777895
REMARK  11 active torsions:
REMARK  status: ('A' for Active; 'I' for Inactive)
REMARK    1  A    between atoms: S_2  and  N_11
REMARK    2  A    between atoms: S_2  and  C_24
REMARK    3  A    between atoms: O_4  and  C_13
REMARK    4  A    between atoms: O_5  and  C_14
REMARK    5  A    between atoms: O_6  and  C_23
REMARK    6  A    between atoms: O_6  and  C_25
REMARK    7  A    between atoms: N_11  and  C_22
REMARK    8  A    between atoms: C_12  and  C_17
REMARK    9  A    between atoms: C_15  and  C_22
REMARK   10  A    between atoms: C_16  and  C_23
REMARK   11  A    between atoms: C_17  and  C_21
REMARK                            x       y       z     vdW  Elec       q    Type
REMARK                         _______ _______ _______ _____ _____    ______ ____
ROOT
ATOM      3  O   UNL     1      -6.396 -11.770  17.205  0.00  0.00    -0.366 OA
ATOM     12  C   UNL     1      -5.133 -11.532  16.559  0.00  0.00    +0.158 C 
ATOM     13  C   UNL     1      -4.140 -11.280  17.681  0.00  0.00    +0.175 C 
ATOM     14  C   UNL     1      -4.648 -12.221  18.754  0.00  0.00    +0.175 C 
ATOM     15  C   UNL     1      -6.159 -12.099  18.594  0.00  0.00    +0.165 C 
ENDROOT
BRANCH  13   4
ATOM      4  O   UNL     1      -2.812 -11.548  17.284  0.00  0.00    -0.387 OA
ATOM     31  H   UNL     1      -2.311 -11.785  18.083  0.00  0.00    +0.210 HD
ENDBRANCH  13   4
BRANCH  14   5
ATOM      5  O   UNL     1      -4.277 -13.565  18.450  0.00  0.00    -0.387 OA
ATOM     32  H   UNL     1      -3.308 -13.586  18.363  0.00  0.00    +0.210 HD
ENDBRANCH  14   5
BRANCH  12  17
ATOM     17  C   UNL     1      -5.263 -10.366  15.597  0.00  0.00    +0.130 C 
BRANCH  17  21
ATOM      7  O   UNL     1      -3.408 -11.250  14.394  0.00  0.00    -0.276 OA
ATOM     10  N   UNL     1      -5.058 -10.194  13.163  0.00  0.00    -0.296 N 
ATOM     16  C   UNL     1      -4.390 -10.298  11.863  0.00  0.00    +0.102 C 
ATOM     18  C   UNL     1      -5.157  -9.312  10.980  0.00  0.00    +0.026 C 
ATOM     19  C   UNL     1      -6.327  -9.478  13.050  0.00  0.00    +0.108 C 
ATOM     20  C   UNL     1      -6.569  -9.348  11.553  0.00  0.00    +0.021 C 
ATOM     21  C   UNL     1      -4.482 -10.648  14.338  0.00  0.00    +0.218 C 
BRANCH  16  23
ATOM     23  C   UNL     1      -4.447 -11.725  11.320  0.00  0.00    +0.181 C 
BRANCH  23   6
ATOM      6  O   UNL     1      -3.130 -12.238  11.268  0.00  0.00    -0.381 OA
ATOM     25  C   UNL     1      -3.074 -13.592  11.704  0.00  0.00    +0.194 C 
ENDBRANCH  23   6
ENDBRANCH  16  23
ENDBRANCH  17  21
ENDBRANCH  12  17
BRANCH  15  22
ATOM     22  C   UNL     1      -6.761 -10.989  19.444  0.00  0.00    +0.140 C 
BRANCH  22  11
ATOM     11  N   UNL     1      -7.814 -10.314  18.745  0.00  0.00    -0.187 NA
ATOM     33  H   UNL     1      -7.630  -9.342  18.467  0.00  0.00    +0.148 HD
BRANCH  11   2
ATOM      2  S   UNL     1      -9.462 -10.782  18.937  0.00  0.00    +0.058 S 
ATOM      8  O   UNL     1      -9.829 -10.619  20.330  0.00  0.00    -0.153 OA
ATOM      9  O   UNL     1      -9.706 -12.042  18.262  0.00  0.00    -0.153 OA
BRANCH   2  24
ATOM      1 CL   UNL     1     -12.391  -6.323  15.627  0.00  0.00    -0.084 Cl
ATOM     24  C   UNL     1     -10.286  -9.527  18.005  0.00  0.00    +0.105 A 
ATOM     26  C   UNL     1     -11.660  -9.615  17.779  0.00  0.00    +0.030 A 
ATOM     27  C   UNL     1      -9.563  -8.449  17.496  0.00  0.00    +0.030 A 
ATOM     28  C   UNL     1     -12.311  -8.625  17.044  0.00  0.00    +0.022 A 
ATOM     29  C   UNL     1     -10.215  -7.457  16.760  0.00  0.00    +0.022 A 
ATOM     30  C   UNL     1     -11.588  -7.545  16.534  0.00  0.00    +0.041 A 
ENDBRANCH   2  24
ENDBRANCH  11   2
ENDBRANCH  22  11
ENDBRANCH  15  22
TORSDOF 10
ENDMDL
MODEL 6
REMARK VINA RESULT:      -5.9     26.764     29.637
REMARK  Name = 40777895
REMARK  11 active torsions:
REMARK  status: ('A' for Active; 'I' for Inactive)
REMARK    1  A    between atoms: S_2  and  N_11
REMARK    2  A    between atoms: S_2  and  C_24
REMARK    3  A    between atoms: O_4  and  C_13
REMARK    4  A    between atoms: O_5  and  C_14
REMARK    5  A    between atoms: O_6  and  C_23
REMARK    6  A    between atoms: O_6  and  C_25
REMARK    7  A    between atoms: N_11  and  C_22
REMARK    8  A    between atoms: C_12  and  C_17
REMARK    9  A    between atoms: C_15  and  C_22
REMARK   10  A    between atoms: C_16  and  C_23
REMARK   11  A    between atoms: C_17  and  C_21
REMARK                            x       y       z     vdW  Elec       q    Type
REMARK                         _______ _______ _______ _____ _____    ______ ____
ROOT
ATOM      3  O   UNL     1      -3.703 -10.441  13.861  0.00  0.00    -0.366 OA
ATOM     12  C   UNL     1      -3.644 -10.765  15.262  0.00  0.00    +0.158 C 
ATOM     13  C   UNL     1      -2.249 -11.320  15.496  0.00  0.00    +0.175 C 
ATOM     14  C   UNL     1      -1.424 -10.481  14.541  0.00  0.00    +0.175 C 
ATOM     15  C   UNL     1      -2.355 -10.357  13.341  0.00  0.00    +0.165 C 
ENDROOT
BRANCH  13   4
ATOM      4  O   UNL     1      -1.847 -11.193  16.843  0.00  0.00    -0.387 OA
ATOM     31  H   UNL     1      -2.360 -10.464  17.232  0.00  0.00    +0.210 HD
ENDBRANCH  13   4
BRANCH  14   5
ATOM      5  O   UNL     1      -1.218  -9.176  15.080  0.00  0.00    -0.387 OA
ATOM     32  H   UNL     1      -2.092  -8.815  15.308  0.00  0.00    +0.210 HD
ENDBRANCH  14   5
BRANCH  12  17
ATOM     17  C   UNL     1      -4.748 -11.747  15.606  0.00  0.00    +0.130 C 
BRANCH  17  21
ATOM      7  O   UNL     1      -6.741 -10.443  15.631  0.00  0.00    -0.276 OA
ATOM     10  N   UNL     1      -5.869 -11.078  17.678  0.00  0.00    -0.296 N 
ATOM     16  C   UNL     1      -6.837 -10.353  18.505  0.00  0.00    +0.102 C 
ATOM     18  C   UNL     1      -6.194 -10.340  19.893  0.00  0.00    +0.026 C 
ATOM     19  C   UNL     1      -4.872 -11.755  18.504  0.00  0.00    +0.108 C 
ATOM     20  C   UNL     1      -5.399 -11.640  19.926  0.00  0.00    +0.021 C 
ATOM     21  C   UNL     1      -5.881 -11.026  16.294  0.00  0.00    +0.218 C 
BRANCH  16  23
ATOM     23  C   UNL     1      -8.199 -11.046  18.507  0.00  0.00    +0.181 C 
BRANCH  23   6
ATOM      6  O   UNL     1      -8.776 -10.898  19.790  0.00  0.00    -0.381 OA
ATOM     25  C   UNL     1      -9.892 -11.764  19.969  0.00  0.00    +0.194 C 
ENDBRANCH  23   6
ENDBRANCH  16  23
ENDBRANCH  17  21
ENDBRANCH  12  17
BRANCH  15  22
ATOM     22  C   UNL     1      -2.176 -11.479  12.328  0.00  0.00    +0.140 C 
BRANCH  22  11
ATOM     11  N   UNL     1      -2.777 -11.144  11.071  0.00  0.00    -0.187 NA
ATOM     33  H   UNL     1      -2.610 -10.192  10.722  0.00  0.00    +0.148 HD
BRANCH  11   2
ATOM      2  S   UNL     1      -4.191 -11.954  10.510  0.00  0.00    +0.058 S 
ATOM      8  O   UNL     1      -4.873 -12.537  11.649  0.00  0.00    -0.153 OA
ATOM      9  O   UNL     1      -3.875 -12.770   9.353  0.00  0.00    -0.153 OA
BRANCH   2  24
ATOM      1 CL   UNL     1      -7.633  -7.119   8.461  0.00  0.00    -0.084 Cl
ATOM     24  C   UNL     1      -5.160 -10.593   9.932  0.00  0.00    +0.105 A 
ATOM     26  C   UNL     1      -6.372 -10.825   9.281  0.00  0.00    +0.030 A 
ATOM     27  C   UNL     1      -4.713  -9.286  10.128  0.00  0.00    +0.030 A 
ATOM     28  C   UNL     1      -7.136  -9.752   8.826  0.00  0.00    +0.022 A 
ATOM     29  C   UNL     1      -5.479  -8.211   9.673  0.00  0.00    +0.022 A 
ATOM     30  C   UNL     1      -6.689  -8.444   9.022  0.00  0.00    +0.041 A 
ENDBRANCH   2  24
ENDBRANCH  11   2
ENDBRANCH  22  11
ENDBRANCH  15  22
TORSDOF 10
ENDMDL
MODEL 7
REMARK VINA RESULT:      -5.9     26.424     29.377
REMARK  Name = 40777895
REMARK  11 active torsions:
REMARK  status: ('A' for Active; 'I' for Inactive)
REMARK    1  A    between atoms: S_2  and  N_11
REMARK    2  A    between atoms: S_2  and  C_24
REMARK    3  A    between atoms: O_4  and  C_13
REMARK    4  A    between atoms: O_5  and  C_14
REMARK    5  A    between atoms: O_6  and  C_23
REMARK    6  A    between atoms: O_6  and  C_25
REMARK    7  A    between atoms: N_11  and  C_22
REMARK    8  A    between atoms: C_12  and  C_17
REMARK    9  A    between atoms: C_15  and  C_22
REMARK   10  A    between atoms: C_16  and  C_23
REMARK   11  A    between atoms: C_17  and  C_21
REMARK                            x       y       z     vdW  Elec       q    Type
REMARK                         _______ _______ _______ _____ _____    ______ ____
ROOT
ATOM      3  O   UNL     1     -16.734   5.836  22.932  0.00  0.00    -0.366 OA
ATOM     12  C   UNL     1     -15.406   5.762  22.382  0.00  0.00    +0.158 C 
ATOM     13  C   UNL     1     -14.600   4.931  23.366  0.00  0.00    +0.175 C 
ATOM     14  C   UNL     1     -15.634   3.930  23.837  0.00  0.00    +0.175 C 
ATOM     15  C   UNL     1     -16.893   4.787  23.915  0.00  0.00    +0.165 C 
ENDROOT
BRANCH  13   4
ATOM      4  O   UNL     1     -13.477   4.331  22.757  0.00  0.00    -0.387 OA
ATOM     31  H   UNL     1     -12.734   4.954  22.835  0.00  0.00    +0.210 HD
ENDBRANCH  13   4
BRANCH  14   5
ATOM      5  O   UNL     1     -15.842   2.927  22.843  0.00  0.00    -0.387 OA
ATOM     32  H   UNL     1     -14.972   2.549  22.626  0.00  0.00    +0.210 HD
ENDBRANCH  14   5
BRANCH  12  17
ATOM     17  C   UNL     1     -14.856   7.163  22.184  0.00  0.00    +0.130 C 
BRANCH  17  21
ATOM      7  O   UNL     1     -15.766   7.600  20.027  0.00  0.00    -0.276 OA
ATOM     10  N   UNL     1     -13.460   7.593  20.219  0.00  0.00    -0.296 N 
ATOM     16  C   UNL     1     -13.173   7.794  18.797  0.00  0.00    +0.102 C 
ATOM     18  C   UNL     1     -11.691   7.433  18.670  0.00  0.00    +0.026 C 
ATOM     19  C   UNL     1     -12.228   7.448  20.992  0.00  0.00    +0.108 C 
ATOM     20  C   UNL     1     -11.115   7.824  20.025  0.00  0.00    +0.021 C 
ATOM     21  C   UNL     1     -14.749   7.471  20.711  0.00  0.00    +0.218 C 
BRANCH  16  23
ATOM     23  C   UNL     1     -13.455   9.233  18.368  0.00  0.00    +0.181 C 
BRANCH  23   6
ATOM      6  O   UNL     1     -12.554   9.578  17.333  0.00  0.00    -0.381 OA
ATOM     25  C   UNL     1     -12.759  10.912  16.879  0.00  0.00    +0.194 C 
ENDBRANCH  23   6
ENDBRANCH  16  23
ENDBRANCH  17  21
ENDBRANCH  12  17
BRANCH  15  22
ATOM     22  C   UNL     1     -17.081   5.448  25.273  0.00  0.00    +0.140 C 
BRANCH  22  11
ATOM     11  N   UNL     1     -16.481   4.670  26.317  0.00  0.00    -0.187 NA
ATOM     33  H   UNL     1     -15.909   3.870  26.021  0.00  0.00    +0.148 HD
BRANCH  11   2
ATOM      2  S   UNL     1     -17.168   4.609  27.897  0.00  0.00    +0.058 S 
ATOM      8  O   UNL     1     -18.561   4.228  27.780  0.00  0.00    -0.153 OA
ATOM      9  O   UNL     1     -16.795   5.791  28.650  0.00  0.00    -0.153 OA
BRANCH   2  24
ATOM      1 CL   UNL     1     -14.039  -0.225  30.400  0.00  0.00    -0.084 Cl
ATOM     24  C   UNL     1     -16.287   3.248  28.601  0.00  0.00    +0.105 A 
ATOM     26  C   UNL     1     -15.123   3.476  29.336  0.00  0.00    +0.030 A 
ATOM     27  C   UNL     1     -16.755   1.947  28.422  0.00  0.00    +0.030 A 
ATOM     28  C   UNL     1     -14.428   2.402  29.892  0.00  0.00    +0.022 A 
ATOM     29  C   UNL     1     -16.060   0.872  28.979  0.00  0.00    +0.022 A 
ATOM     30  C   UNL     1     -14.897   1.100  29.714  0.00  0.00    +0.041 A 
ENDBRANCH   2  24
ENDBRANCH  11   2
ENDBRANCH  22  11
ENDBRANCH  15  22
TORSDOF 10
ENDMDL
MODEL 8
REMARK VINA RESULT:      -5.9     27.092     30.076
REMARK  Name = 40777895
REMARK  11 active torsions:
REMARK  status: ('A' for Active; 'I' for Inactive)
REMARK    1  A    between atoms: S_2  and  N_11
REMARK    2  A    between atoms: S_2  and  C_24
REMARK    3  A    between atoms: O_4  and  C_13
REMARK    4  A    between atoms: O_5  and  C_14
REMARK    5  A    between atoms: O_6  and  C_23
REMARK    6  A    between atoms: O_6  and  C_25
REMARK    7  A    between atoms: N_11  and  C_22
REMARK    8  A    between atoms: C_12  and  C_17
REMARK    9  A    between atoms: C_15  and  C_22
REMARK   10  A    between atoms: C_16  and  C_23
REMARK   11  A    between atoms: C_17  and  C_21
REMARK                            x       y       z     vdW  Elec       q    Type
REMARK                         _______ _______ _______ _____ _____    ______ ____
ROOT
ATOM      3  O   UNL     1      -4.808 -10.779  18.634  0.00  0.00    -0.366 OA
ATOM     12  C   UNL     1      -6.119 -11.362  18.749  0.00  0.00    +0.158 C 
ATOM     13  C   UNL     1      -6.285 -12.241  17.520  0.00  0.00    +0.175 C 
ATOM     14  C   UNL     1      -4.878 -12.768  17.331  0.00  0.00    +0.175 C 
ATOM     15  C   UNL     1      -4.032 -11.551  17.688  0.00  0.00    +0.165 C 
ENDROOT
BRANCH  13   4
ATOM      4  O   UNL     1      -7.242 -13.259  17.724  0.00  0.00    -0.387 OA
ATOM     31  H   UNL     1      -6.772 -14.110  17.693  0.00  0.00    +0.210 HD
ENDBRANCH  13   4
BRANCH  14   5
ATOM      5  O   UNL     1      -4.601 -13.795  18.282  0.00  0.00    -0.387 OA
ATOM     32  H   UNL     1      -5.303 -13.764  18.955  0.00  0.00    +0.210 HD
ENDBRANCH  14   5
BRANCH  12  17
ATOM     17  C   UNL     1      -7.160 -10.263  18.848  0.00  0.00    +0.130 C 
BRANCH  17  21
ATOM      7  O   UNL     1      -8.575 -11.774  20.026  0.00  0.00    -0.276 OA
ATOM     10  N   UNL     1      -9.593 -10.293  18.568  0.00  0.00    -0.296 N 
ATOM     16  C   UNL     1     -10.954 -10.810  18.728  0.00  0.00    +0.102 C 
ATOM     18  C   UNL     1     -11.715 -10.203  17.548  0.00  0.00    +0.026 C 
ATOM     19  C   UNL     1      -9.551  -9.204  17.594  0.00  0.00    +0.108 C 
ATOM     20  C   UNL     1     -11.010  -8.871  17.320  0.00  0.00    +0.021 C 
ATOM     21  C   UNL     1      -8.500 -10.855  19.208  0.00  0.00    +0.218 C 
BRANCH  16  23
ATOM     23  C   UNL     1     -11.552 -10.400  20.073  0.00  0.00    +0.181 C 
BRANCH  23   6
ATOM      6  O   UNL     1     -12.905 -10.815  20.107  0.00  0.00    -0.381 OA
ATOM     25  C   UNL     1     -13.754  -9.800  20.634  0.00  0.00    +0.194 C 
ENDBRANCH  23   6
ENDBRANCH  16  23
ENDBRANCH  17  21
ENDBRANCH  12  17
BRANCH  15  22
ATOM     22  C   UNL     1      -3.736 -10.658  16.491  0.00  0.00    +0.140 C 
BRANCH  22  11
ATOM     11  N   UNL     1      -3.416 -11.435  15.331  0.00  0.00    -0.187 NA
ATOM     33  H   UNL     1      -3.837 -12.370  15.274  0.00  0.00    +0.148 HD
BRANCH  11   2
ATOM      2  S   UNL     1      -1.956 -11.172  14.452  0.00  0.00    +0.058 S 
ATOM      8  O   UNL     1      -1.350 -12.457  14.168  0.00  0.00    -0.153 OA
ATOM      9  O   UNL     1      -1.178 -10.120  15.077  0.00  0.00    -0.153 OA
BRANCH   2  24
ATOM      1 CL   UNL     1      -4.184  -8.849   9.061  0.00  0.00    -0.084 Cl
ATOM     24  C   UNL     1      -2.584 -10.517  12.934  0.00  0.00    +0.105 A 
ATOM     26  C   UNL     1      -1.705 -10.007  11.978  0.00  0.00    +0.030 A 
ATOM     27  C   UNL     1      -3.957 -10.511  12.692  0.00  0.00    +0.030 A 
ATOM     28  C   UNL     1      -2.199  -9.492  10.781  0.00  0.00    +0.022 A 
ATOM     29  C   UNL     1      -4.452  -9.995  11.493  0.00  0.00    +0.022 A 
ATOM     30  C   UNL     1      -3.574  -9.486  10.538  0.00  0.00    +0.041 A 
ENDBRANCH   2  24
ENDBRANCH  11   2
ENDBRANCH  22  11
ENDBRANCH  15  22
TORSDOF 10
ENDMDL
MODEL 9
REMARK VINA RESULT:      -5.8     27.731     30.027
REMARK  Name = 40777895
REMARK  11 active torsions:
REMARK  status: ('A' for Active; 'I' for Inactive)
REMARK    1  A    between atoms: S_2  and  N_11
REMARK    2  A    between atoms: S_2  and  C_24
REMARK    3  A    between atoms: O_4  and  C_13
REMARK    4  A    between atoms: O_5  and  C_14
REMARK    5  A    between atoms: O_6  and  C_23
REMARK    6  A    between atoms: O_6  and  C_25
REMARK    7  A    between atoms: N_11  and  C_22
REMARK    8  A    between atoms: C_12  and  C_17
REMARK    9  A    between atoms: C_15  and  C_22
REMARK   10  A    between atoms: C_16  and  C_23
REMARK   11  A    between atoms: C_17  and  C_21
REMARK                            x       y       z     vdW  Elec       q    Type
REMARK                         _______ _______ _______ _____ _____    ______ ____
ROOT
ATOM      3  O   UNL     1      -6.264  -9.497  17.015  0.00  0.00    -0.366 OA
ATOM     12  C   UNL     1      -7.677  -9.444  17.284  0.00  0.00    +0.158 C 
ATOM     13  C   UNL     1      -7.999 -10.722  18.040  0.00  0.00    +0.175 C 
ATOM     14  C   UNL     1      -6.744 -10.909  18.868  0.00  0.00    +0.175 C 
ATOM     15  C   UNL     1      -5.654 -10.468  17.898  0.00  0.00    +0.165 C 
ENDROOT
BRANCH  13   4
ATOM      4  O   UNL     1      -9.169 -10.596  18.819  0.00  0.00    -0.387 OA
ATOM     31  H   UNL     1      -9.029 -11.097  19.640  0.00  0.00    +0.210 HD
ENDBRANCH  13   4
BRANCH  14   5
ATOM      5  O   UNL     1      -6.743 -10.011  19.977  0.00  0.00    -0.387 OA
ATOM     32  H   UNL     1      -6.956  -9.126  19.633  0.00  0.00    +0.210 HD
ENDBRANCH  14   5
BRANCH  12  17
ATOM     17  C   UNL     1      -8.440  -9.306  15.981  0.00  0.00    +0.130 C 
BRANCH  17  21
ATOM      7  O   UNL     1      -9.720  -7.705  17.193  0.00  0.00    -0.276 OA
ATOM     10  N   UNL     1     -10.535  -8.365  15.131  0.00  0.00    -0.296 N 
ATOM     16  C   UNL     1     -11.783  -7.600  15.192  0.00  0.00    +0.102 C 
ATOM     18  C   UNL     1     -12.638  -8.209  14.079  0.00  0.00    +0.026 C 
ATOM     19  C   UNL     1     -10.456  -9.150  13.901  0.00  0.00    +0.108 C 
ATOM     20  C   UNL     1     -11.610  -8.651  13.044  0.00  0.00    +0.021 C 
ATOM     21  C   UNL     1      -9.619  -8.383  16.169  0.00  0.00    +0.218 C 
BRANCH  16  23
ATOM     23  C   UNL     1     -11.535  -6.108  14.977  0.00  0.00    +0.181 C 
BRANCH  23   6
ATOM      6  O   UNL     1     -12.769  -5.487  14.672  0.00  0.00    -0.381 OA
ATOM     25  C   UNL     1     -12.675  -4.672  13.508  0.00  0.00    +0.194 C 
ENDBRANCH  23   6
ENDBRANCH  16  23
ENDBRANCH  17  21
ENDBRANCH  12  17
BRANCH  15  22
ATOM     22  C   UNL     1      -5.121 -11.606  17.041  0.00  0.00    +0.140 C 
BRANCH  22  11
ATOM     11  N   UNL     1      -4.767 -11.147  15.730  0.00  0.00    -0.187 NA
ATOM     33  H   UNL     1      -5.545 -10.904  15.104  0.00  0.00    +0.148 HD
BRANCH  11   2
ATOM      2  S   UNL     1      -3.273 -11.595  14.997  0.00  0.00    +0.058 S 
ATOM      8  O   UNL     1      -3.259 -13.033  14.818  0.00  0.00    -0.153 OA
ATOM      9  O   UNL     1      -2.169 -10.932  15.666  0.00  0.00    -0.153 OA
BRANCH   2  24
ATOM      1 CL   UNL     1      -3.848  -8.940   9.337  0.00  0.00    -0.084 Cl
ATOM     24  C   UNL     1      -3.435 -10.848  13.404  0.00  0.00    +0.105 A 
ATOM     26  C   UNL     1      -4.693 -10.469  12.936  0.00  0.00    +0.030 A 
ATOM     27  C   UNL     1      -2.304 -10.636  12.615  0.00  0.00    +0.030 A 
ATOM     28  C   UNL     1      -4.821  -9.879  11.678  0.00  0.00    +0.022 A 
ATOM     29  C   UNL     1      -2.432 -10.046  11.356  0.00  0.00    +0.022 A 
ATOM     30  C   UNL     1      -3.690  -9.668  10.888  0.00  0.00    +0.041 A 
ENDBRANCH   2  24
ENDBRANCH  11   2
ENDBRANCH  22  11
ENDBRANCH  15  22
TORSDOF 10
ENDMDL
MODEL 10
REMARK VINA RESULT:      -5.8     17.130     19.352
REMARK  Name = 40777895
REMARK  11 active torsions:
REMARK  status: ('A' for Active; 'I' for Inactive)
REMARK    1  A    between atoms: S_2  and  N_11
REMARK    2  A    between atoms: S_2  and  C_24
REMARK    3  A    between atoms: O_4  and  C_13
REMARK    4  A    between atoms: O_5  and  C_14
REMARK    5  A    between atoms: O_6  and  C_23
REMARK    6  A    between atoms: O_6  and  C_25
REMARK    7  A    between atoms: N_11  and  C_22
REMARK    8  A    between atoms: C_12  and  C_17
REMARK    9  A    between atoms: C_15  and  C_22
REMARK   10  A    between atoms: C_16  and  C_23
REMARK   11  A    between atoms: C_17  and  C_21
REMARK                            x       y       z     vdW  Elec       q    Type
REMARK                         _______ _______ _______ _____ _____    ______ ____
ROOT
ATOM      3  O   UNL     1       9.482   5.698   5.433  0.00  0.00    -0.366 OA
ATOM     12  C   UNL     1      10.901   5.680   5.191  0.00  0.00    +0.158 C 
ATOM     13  C   UNL     1      11.506   6.603   6.236  0.00  0.00    +0.175 C 
ATOM     14  C   UNL     1      10.607   6.345   7.427  0.00  0.00    +0.175 C 
ATOM     15  C   UNL     1       9.240   6.200   6.768  0.00  0.00    +0.165 C 
ENDROOT
BRANCH  13   4
ATOM      4  O   UNL     1      12.863   6.304   6.484  0.00  0.00    -0.387 OA
ATOM     31  H   UNL     1      13.209   6.992   7.078  0.00  0.00    +0.210 HD
ENDBRANCH  13   4
BRANCH  14   5
ATOM      5  O   UNL     1      10.939   5.098   8.038  0.00  0.00    -0.387 OA
ATOM     32  H   UNL     1      11.770   4.791   7.637  0.00  0.00    +0.210 HD
ENDBRANCH  14   5
BRANCH  12  17
ATOM     17  C   UNL     1      11.181   6.119   3.766  0.00  0.00    +0.130 C 
BRANCH  17  21
ATOM      7  O   UNL     1      10.416   4.094   2.772  0.00  0.00    -0.276 OA
ATOM     10  N   UNL     1      12.546   4.805   2.214  0.00  0.00    -0.296 N 
ATOM     16  C   UNL     1      12.898   3.647   1.389  0.00  0.00    +0.102 C 
ATOM     18  C   UNL     1      14.417   3.753   1.241  0.00  0.00    +0.026 C 
ATOM     19  C   UNL     1      13.661   5.745   2.309  0.00  0.00    +0.108 C 
ATOM     20  C   UNL     1      14.672   5.255   1.283  0.00  0.00    +0.021 C 
ATOM     21  C   UNL     1      11.334   4.909   2.877  0.00  0.00    +0.218 C 
BRANCH  16  23
ATOM     23  C   UNL     1      12.183   3.685   0.039  0.00  0.00    +0.181 C 
BRANCH  23   6
ATOM      6  O   UNL     1      12.948   2.948  -0.895  0.00  0.00    -0.381 OA
ATOM     25  C   UNL     1      12.218   2.695  -2.091  0.00  0.00    +0.194 C 
ENDBRANCH  23   6
ENDBRANCH  16  23
ENDBRANCH  17  21
ENDBRANCH  12  17
BRANCH  15  22
ATOM     22  C   UNL     1       8.497   7.522   6.639  0.00  0.00    +0.140 C 
BRANCH  22  11
ATOM     11  N   UNL     1       7.864   7.639   5.358  0.00  0.00    -0.187 NA
ATOM     33  H   UNL     1       7.331   6.823   5.034  0.00  0.00    +0.148 HD
BRANCH  11   2
ATOM      2  S   UNL     1       8.467   8.718   4.156  0.00  0.00    +0.058 S 
ATOM      8  O   UNL     1       8.269   8.114   2.853  0.00  0.00    -0.153 OA
ATOM      9  O   UNL     1       9.775   9.214   4.540  0.00  0.00    -0.153 OA
BRANCH   2  24
ATOM      1 CL   UNL     1       4.452  13.514   4.702  0.00  0.00    -0.084 Cl
ATOM     24  C   UNL     1       7.337  10.068   4.310  0.00  0.00    +0.105 A 
ATOM     26  C   UNL     1       6.055   9.970   3.768  0.00  0.00    +0.030 A 
ATOM     27  C   UNL     1       7.727  11.232   4.972  0.00  0.00    +0.030 A 
ATOM     28  C   UNL     1       5.163  11.035   3.889  0.00  0.00    +0.022 A 
ATOM     29  C   UNL     1       6.834  12.298   5.094  0.00  0.00    +0.022 A 
ATOM     30  C   UNL     1       5.553  12.200   4.552  0.00  0.00    +0.041 A 
ENDBRANCH   2  24
ENDBRANCH  11   2
ENDBRANCH  22  11
ENDBRANCH  15  22
TORSDOF 10
ENDMDL
