MODEL 1
REMARK VINA RESULT:      -6.8      0.000      0.000
REMARK  Name = 75367757
REMARK  3 active torsions:
REMARK  status: ('A' for Active; 'I' for Inactive)
REMARK    1  A    between atoms: O_3  and  C_6
REMARK    2  A    between atoms: N_4  and  C_8
REMARK    3  A    between atoms: C_8  and  C_11
REMARK                            x       y       z     vdW  Elec       q    Type
REMARK                         _______ _______ _______ _____ _____    ______ ____
ROOT
ATOM      2  O   UNL     1      -0.711   4.627  25.034  0.00  0.00    -0.376 OA
ATOM      4  N   UNL     1      -2.939   2.445  25.003  0.00  0.00    -0.293 NA
ATOM      5  C   UNL     1      -1.762   1.569  24.987  0.00  0.00    +0.118 C 
ATOM      6  C   UNL     1      -0.376   2.230  25.055  0.00  0.00    +0.154 C 
ATOM      7  C   UNL     1      -2.807   3.618  25.868  0.00  0.00    +0.113 C 
ATOM      9  C   UNL     1      -0.257   3.522  24.259  0.00  0.00    +0.192 C 
ATOM     10  C   UNL     1      -2.124   4.754  25.106  0.00  0.00    +0.175 C 
ENDROOT
BRANCH   6   3
ATOM      3  O   UNL     1       0.582   1.304  24.539  0.00  0.00    -0.388 OA
ATOM     17  H   UNL     1       1.414   1.446  25.020  0.00  0.00    +0.210 HD
ENDBRANCH   6   3
BRANCH   4   8
ATOM      8  C   UNL     1      -4.137   1.671  25.329  0.00  0.00    +0.119 C 
BRANCH   8  11
ATOM      1  F   UNL     1      -3.441  -3.821  24.277  0.00  0.00    -0.205 F 
ATOM     11  C   UNL     1      -3.951   0.205  25.048  0.00  0.00    -0.033 A 
ATOM     12  C   UNL     1      -3.450  -0.638  26.040  0.00  0.00    +0.008 A 
ATOM     13  C   UNL     1      -4.280  -0.313  23.795  0.00  0.00    +0.008 A 
ATOM     14  C   UNL     1      -3.278  -1.998  25.780  0.00  0.00    +0.038 A 
ATOM     15  C   UNL     1      -4.107  -1.673  23.535  0.00  0.00    +0.038 A 
ATOM     16  C   UNL     1      -3.606  -2.515  24.527  0.00  0.00    +0.123 A 
ENDBRANCH   8  11
ENDBRANCH   4   8
TORSDOF 3
ENDMDL
MODEL 2
REMARK VINA RESULT:      -6.5      1.761      2.781
REMARK  Name = 75367757
REMARK  3 active torsions:
REMARK  status: ('A' for Active; 'I' for Inactive)
REMARK    1  A    between atoms: O_3  and  C_6
REMARK    2  A    between atoms: N_4  and  C_8
REMARK    3  A    between atoms: C_8  and  C_11
REMARK                            x       y       z     vdW  Elec       q    Type
REMARK                         _______ _______ _______ _____ _____    ______ ____
ROOT
ATOM      2  O   UNL     1      -1.875   5.025  25.711  0.00  0.00    -0.376 OA
ATOM      4  N   UNL     1      -1.996   2.253  24.287  0.00  0.00    -0.293 NA
ATOM      5  C   UNL     1      -3.435   2.514  24.401  0.00  0.00    +0.118 C 
ATOM      6  C   UNL     1      -3.875   3.852  25.015  0.00  0.00    +0.154 C 
ATOM      7  C   UNL     1      -1.194   3.430  23.950  0.00  0.00    +0.113 C 
ATOM      9  C   UNL     1      -3.018   4.319  26.184  0.00  0.00    +0.192 C 
ATOM     10  C   UNL     1      -0.830   4.195  25.223  0.00  0.00    +0.175 C 
ENDROOT
BRANCH   6   3
ATOM      3  O   UNL     1      -5.217   3.705  25.484  0.00  0.00    -0.388 OA
ATOM     17  H   UNL     1      -5.766   4.350  25.006  0.00  0.00    +0.210 HD
ENDBRANCH   6   3
BRANCH   4   8
ATOM      8  C   UNL     1      -1.757   1.156  23.349  0.00  0.00    +0.119 C 
BRANCH   8  11
ATOM      1  F   UNL     1      -3.732  -3.746  25.303  0.00  0.00    -0.205 F 
ATOM     11  C   UNL     1      -2.284  -0.153  23.871  0.00  0.00    -0.033 A 
ATOM     12  C   UNL     1      -3.630  -0.480  23.704  0.00  0.00    +0.008 A 
ATOM     13  C   UNL     1      -1.428  -1.041  24.521  0.00  0.00    +0.008 A 
ATOM     14  C   UNL     1      -4.120  -1.693  24.188  0.00  0.00    +0.038 A 
ATOM     15  C   UNL     1      -1.917  -2.255  25.005  0.00  0.00    +0.038 A 
ATOM     16  C   UNL     1      -3.263  -2.581  24.839  0.00  0.00    +0.123 A 
ENDBRANCH   8  11
ENDBRANCH   4   8
TORSDOF 3
ENDMDL
MODEL 3
REMARK VINA RESULT:      -6.5      0.796      2.024
REMARK  Name = 75367757
REMARK  3 active torsions:
REMARK  status: ('A' for Active; 'I' for Inactive)
REMARK    1  A    between atoms: O_3  and  C_6
REMARK    2  A    between atoms: N_4  and  C_8
REMARK    3  A    between atoms: C_8  and  C_11
REMARK                            x       y       z     vdW  Elec       q    Type
REMARK                         _______ _______ _______ _____ _____    ______ ____
ROOT
ATOM      2  O   UNL     1       0.408   2.719  24.289  0.00  0.00    -0.376 OA
ATOM      4  N   UNL     1      -2.541   2.021  25.020  0.00  0.00    -0.293 NA
ATOM      5  C   UNL     1      -2.635   3.484  25.069  0.00  0.00    +0.118 C 
ATOM      6  C   UNL     1      -1.381   4.295  24.706  0.00  0.00    +0.154 C 
ATOM      7  C   UNL     1      -1.714   1.505  23.928  0.00  0.00    +0.113 C 
ATOM      9  C   UNL     1      -0.076   3.692  25.208  0.00  0.00    +0.192 C 
ATOM     10  C   UNL     1      -0.248   1.461  24.362  0.00  0.00    +0.175 C 
ENDROOT
BRANCH   6   3
ATOM      3  O   UNL     1      -1.514   5.597  25.278  0.00  0.00    -0.388 OA
ATOM     17  H   UNL     1      -1.695   5.483  26.227  0.00  0.00    +0.210 HD
ENDBRANCH   6   3
BRANCH   4   8
ATOM      8  C   UNL     1      -3.881   1.432  24.999  0.00  0.00    +0.119 C 
BRANCH   8  11
ATOM      1  F   UNL     1      -3.700  -4.180  24.519  0.00  0.00    -0.205 F 
ATOM     11  C   UNL     1      -3.832  -0.067  24.871  0.00  0.00    -0.033 A 
ATOM     12  C   UNL     1      -3.263  -0.836  25.886  0.00  0.00    +0.008 A 
ATOM     13  C   UNL     1      -4.357  -0.688  23.738  0.00  0.00    +0.008 A 
ATOM     14  C   UNL     1      -3.218  -2.226  25.767  0.00  0.00    +0.038 A 
ATOM     15  C   UNL     1      -4.312  -2.077  23.619  0.00  0.00    +0.038 A 
ATOM     16  C   UNL     1      -3.742  -2.846  24.633  0.00  0.00    +0.123 A 
ENDBRANCH   8  11
ENDBRANCH   4   8
TORSDOF 3
ENDMDL
MODEL 4
REMARK VINA RESULT:      -6.4      3.132      5.461
REMARK  Name = 75367757
REMARK  3 active torsions:
REMARK  status: ('A' for Active; 'I' for Inactive)
REMARK    1  A    between atoms: O_3  and  C_6
REMARK    2  A    between atoms: N_4  and  C_8
REMARK    3  A    between atoms: C_8  and  C_11
REMARK                            x       y       z     vdW  Elec       q    Type
REMARK                         _______ _______ _______ _____ _____    ______ ____
ROOT
ATOM      2  O   UNL     1      -2.576  -2.999  24.215  0.00  0.00    -0.376 OA
ATOM      4  N   UNL     1      -3.689  -0.150  24.819  0.00  0.00    -0.293 NA
ATOM      5  C   UNL     1      -2.255   0.158  24.834  0.00  0.00    +0.118 C 
ATOM      6  C   UNL     1      -1.274  -0.981  24.515  0.00  0.00    +0.154 C 
ATOM      7  C   UNL     1      -4.092  -1.097  23.779  0.00  0.00    +0.113 C 
ATOM      9  C   UNL     1      -1.673  -2.333  25.091  0.00  0.00    +0.192 C 
ATOM     10  C   UNL     1      -3.916  -2.530  24.282  0.00  0.00    +0.175 C 
ENDROOT
BRANCH   6   3
ATOM      3  O   UNL     1       0.002  -0.631  25.054  0.00  0.00    -0.388 OA
ATOM     17  H   UNL     1       0.597  -1.387  24.911  0.00  0.00    +0.210 HD
ENDBRANCH   6   3
BRANCH   4   8
ATOM      8  C   UNL     1      -4.468   1.087  24.747  0.00  0.00    +0.119 C 
BRANCH   8  11
ATOM      1  F   UNL     1      -1.215   5.652  25.329  0.00  0.00    -0.205 F 
ATOM     11  C   UNL     1      -3.599   2.306  24.903  0.00  0.00    -0.033 A 
ATOM     12  C   UNL     1      -2.548   2.532  24.014  0.00  0.00    +0.008 A 
ATOM     13  C   UNL     1      -3.845   3.212  25.935  0.00  0.00    +0.008 A 
ATOM     14  C   UNL     1      -1.742   3.662  24.157  0.00  0.00    +0.038 A 
ATOM     15  C   UNL     1      -3.039   4.341  26.078  0.00  0.00    +0.038 A 
ATOM     16  C   UNL     1      -1.988   4.567  25.190  0.00  0.00    +0.123 A 
ENDBRANCH   8  11
ENDBRANCH   4   8
TORSDOF 3
ENDMDL
MODEL 5
REMARK VINA RESULT:      -5.9     16.308     19.064
REMARK  Name = 75367757
REMARK  3 active torsions:
REMARK  status: ('A' for Active; 'I' for Inactive)
REMARK    1  A    between atoms: O_3  and  C_6
REMARK    2  A    between atoms: N_4  and  C_8
REMARK    3  A    between atoms: C_8  and  C_11
REMARK                            x       y       z     vdW  Elec       q    Type
REMARK                         _______ _______ _______ _____ _____    ______ ____
ROOT
ATOM      2  O   UNL     1      11.014   6.725  21.899  0.00  0.00    -0.376 OA
ATOM      4  N   UNL     1      13.300   8.645  20.999  0.00  0.00    -0.293 NA
ATOM      5  C   UNL     1      12.508   9.591  21.791  0.00  0.00    +0.118 C 
ATOM      6  C   UNL     1      11.258   9.054  22.508  0.00  0.00    +0.154 C 
ATOM      7  C   UNL     1      13.395   7.304  21.577  0.00  0.00    +0.113 C 
ATOM      9  C   UNL     1      10.469   8.026  21.709  0.00  0.00    +0.192 C 
ATOM     10  C   UNL     1      12.192   6.464  21.147  0.00  0.00    +0.175 C 
ENDROOT
BRANCH   6   3
ATOM      3  O   UNL     1      10.395  10.159  22.780  0.00  0.00    -0.388 OA
ATOM     17  H   UNL     1       9.875   9.937  23.571  0.00  0.00    +0.210 HD
ENDBRANCH   6   3
BRANCH   4   8
ATOM      8  C   UNL     1      14.625   9.204  20.725  0.00  0.00    +0.119 C 
BRANCH   8  11
ATOM      1  F   UNL     1      18.364   5.198  19.411  0.00  0.00    -0.205 F 
ATOM     11  C   UNL     1      15.624   8.134  20.374  0.00  0.00    -0.033 A 
ATOM     12  C   UNL     1      16.755   7.948  21.168  0.00  0.00    +0.008 A 
ATOM     13  C   UNL     1      15.418   7.328  19.255  0.00  0.00    +0.008 A 
ATOM     14  C   UNL     1      17.681   6.956  20.843  0.00  0.00    +0.038 A 
ATOM     15  C   UNL     1      16.344   6.337  18.929  0.00  0.00    +0.038 A 
ATOM     16  C   UNL     1      17.475   6.151  19.723  0.00  0.00    +0.123 A 
ENDBRANCH   8  11
ENDBRANCH   4   8
TORSDOF 3
ENDMDL
MODEL 6
REMARK VINA RESULT:      -5.7     12.953     14.027
REMARK  Name = 75367757
REMARK  3 active torsions:
REMARK  status: ('A' for Active; 'I' for Inactive)
REMARK    1  A    between atoms: O_3  and  C_6
REMARK    2  A    between atoms: N_4  and  C_8
REMARK    3  A    between atoms: C_8  and  C_11
REMARK                            x       y       z     vdW  Elec       q    Type
REMARK                         _______ _______ _______ _____ _____    ______ ____
ROOT
ATOM      2  O   UNL     1     -12.111   9.964  14.955  0.00  0.00    -0.376 OA
ATOM      4  N   UNL     1     -11.274   9.051  17.816  0.00  0.00    -0.293 NA
ATOM      5  C   UNL     1     -10.488   8.092  17.033  0.00  0.00    +0.118 C 
ATOM      6  C   UNL     1     -10.543   8.204  15.501  0.00  0.00    +0.154 C 
ATOM      7  C   UNL     1     -11.316  10.401  17.253  0.00  0.00    +0.113 C 
ATOM      9  C   UNL     1     -11.916   8.554  14.945  0.00  0.00    +0.192 C 
ATOM     10  C   UNL     1     -12.444  10.504  16.226  0.00  0.00    +0.175 C 
ENDROOT
BRANCH   6   3
ATOM      3  O   UNL     1     -10.152   6.944  14.951  0.00  0.00    -0.388 OA
ATOM     17  H   UNL     1     -10.959   6.489  14.659  0.00  0.00    +0.210 HD
ENDBRANCH   6   3
BRANCH   4   8
ATOM      8  C   UNL     1     -10.811   9.065  19.205  0.00  0.00    +0.119 C 
BRANCH   8  11
ATOM      1  F   UNL     1     -14.383   6.372  22.632  0.00  0.00    -0.205 F 
ATOM     11  C   UNL     1     -11.765   8.346  20.120  0.00  0.00    -0.033 A 
ATOM     12  C   UNL     1     -12.826   9.037  20.706  0.00  0.00    +0.008 A 
ATOM     13  C   UNL     1     -11.590   6.987  20.382  0.00  0.00    +0.008 A 
ATOM     14  C   UNL     1     -13.710   8.371  21.555  0.00  0.00    +0.038 A 
ATOM     15  C   UNL     1     -12.474   6.321  21.231  0.00  0.00    +0.038 A 
ATOM     16  C   UNL     1     -13.534   7.012  21.817  0.00  0.00    +0.123 A 
ENDBRANCH   8  11
ENDBRANCH   4   8
TORSDOF 3
ENDMDL
MODEL 7
REMARK VINA RESULT:      -5.7     14.210     15.808
REMARK  Name = 75367757
REMARK  3 active torsions:
REMARK  status: ('A' for Active; 'I' for Inactive)
REMARK    1  A    between atoms: O_3  and  C_6
REMARK    2  A    between atoms: N_4  and  C_8
REMARK    3  A    between atoms: C_8  and  C_11
REMARK                            x       y       z     vdW  Elec       q    Type
REMARK                         _______ _______ _______ _____ _____    ______ ____
ROOT
ATOM      2  O   UNL     1      -7.685 -13.219  17.924  0.00  0.00    -0.376 OA
ATOM      4  N   UNL     1      -5.033 -11.582  17.839  0.00  0.00    -0.293 NA
ATOM      5  C   UNL     1      -5.712 -10.859  18.920  0.00  0.00    +0.118 C 
ATOM      6  C   UNL     1      -7.091 -11.370  19.367  0.00  0.00    +0.154 C 
ATOM      7  C   UNL     1      -5.222 -13.033  17.872  0.00  0.00    +0.113 C 
ATOM      9  C   UNL     1      -7.978 -11.861  18.232  0.00  0.00    +0.192 C 
ATOM     10  C   UNL     1      -6.513 -13.407  17.143  0.00  0.00    +0.175 C 
ENDROOT
BRANCH   6   3
ATOM      3  O   UNL     1      -7.769 -10.298  20.025  0.00  0.00    -0.388 OA
ATOM     17  H   UNL     1      -8.126  -9.711  19.337  0.00  0.00    +0.210 HD
ENDBRANCH   6   3
BRANCH   4   8
ATOM      8  C   UNL     1      -3.613 -11.228  17.813  0.00  0.00    +0.119 C 
BRANCH   8  11
ATOM      1  F   UNL     1      -1.826 -10.121  12.584  0.00  0.00    -0.205 F 
ATOM     11  C   UNL     1      -3.136 -10.932  16.416  0.00  0.00    -0.033 A 
ATOM     12  C   UNL     1      -4.035 -10.962  15.350  0.00  0.00    +0.008 A 
ATOM     13  C   UNL     1      -1.794 -10.628  16.187  0.00  0.00    +0.008 A 
ATOM     14  C   UNL     1      -3.593 -10.688  14.056  0.00  0.00    +0.038 A 
ATOM     15  C   UNL     1      -1.352 -10.354  14.893  0.00  0.00    +0.038 A 
ATOM     16  C   UNL     1      -2.251 -10.385  13.827  0.00  0.00    +0.123 A 
ENDBRANCH   8  11
ENDBRANCH   4   8
TORSDOF 3
ENDMDL
MODEL 8
REMARK VINA RESULT:      -5.6     15.101     17.145
REMARK  Name = 75367757
REMARK  3 active torsions:
REMARK  status: ('A' for Active; 'I' for Inactive)
REMARK    1  A    between atoms: O_3  and  C_6
REMARK    2  A    between atoms: N_4  and  C_8
REMARK    3  A    between atoms: C_8  and  C_11
REMARK                            x       y       z     vdW  Elec       q    Type
REMARK                         _______ _______ _______ _____ _____    ______ ____
ROOT
ATOM      2  O   UNL     1      -3.987 -11.759  16.301  0.00  0.00    -0.376 OA
ATOM      4  N   UNL     1      -3.068 -11.005  13.419  0.00  0.00    -0.293 NA
ATOM      5  C   UNL     1      -1.809 -10.757  14.131  0.00  0.00    +0.118 C 
ATOM      6  C   UNL     1      -1.767 -11.061  15.637  0.00  0.00    +0.154 C 
ATOM      7  C   UNL     1      -3.797 -12.189  13.875  0.00  0.00    +0.113 C 
ATOM      9  C   UNL     1      -3.041 -10.699  16.387  0.00  0.00    +0.192 C 
ATOM     10  C   UNL     1      -4.685 -11.827  15.066  0.00  0.00    +0.175 C 
ENDROOT
BRANCH   6   3
ATOM      3  O   UNL     1      -0.691 -10.315  16.209  0.00  0.00    -0.388 OA
ATOM     17  H   UNL     1       0.127 -10.820  16.061  0.00  0.00    +0.210 HD
ENDBRANCH   6   3
BRANCH   4   8
ATOM      8  C   UNL     1      -2.828 -11.047  11.976  0.00  0.00    +0.119 C 
BRANCH   8  11
ATOM      1  F   UNL     1      -6.221  -7.519   9.182  0.00  0.00    -0.205 F 
ATOM     11  C   UNL     1      -3.734 -10.104  11.230  0.00  0.00    -0.033 A 
ATOM     12  C   UNL     1      -3.388  -9.669   9.950  0.00  0.00    +0.008 A 
ATOM     13  C   UNL     1      -4.921  -9.666  11.817  0.00  0.00    +0.008 A 
ATOM     14  C   UNL     1      -4.228  -8.796   9.258  0.00  0.00    +0.038 A 
ATOM     15  C   UNL     1      -5.761  -8.793  11.125  0.00  0.00    +0.038 A 
ATOM     16  C   UNL     1      -5.414  -8.358   9.846  0.00  0.00    +0.123 A 
ENDBRANCH   8  11
ENDBRANCH   4   8
TORSDOF 3
ENDMDL
MODEL 9
REMARK VINA RESULT:      -5.6     14.045     15.362
REMARK  Name = 75367757
REMARK  3 active torsions:
REMARK  status: ('A' for Active; 'I' for Inactive)
REMARK    1  A    between atoms: O_3  and  C_6
REMARK    2  A    between atoms: N_4  and  C_8
REMARK    3  A    between atoms: C_8  and  C_11
REMARK                            x       y       z     vdW  Elec       q    Type
REMARK                         _______ _______ _______ _____ _____    ______ ____
ROOT
ATOM      2  O   UNL     1      -2.581 -12.077  13.337  0.00  0.00    -0.376 OA
ATOM      4  N   UNL     1      -4.260 -10.753  15.607  0.00  0.00    -0.293 NA
ATOM      5  C   UNL     1      -2.918 -10.378  16.068  0.00  0.00    +0.118 C 
ATOM      6  C   UNL     1      -1.721 -10.783  15.193  0.00  0.00    +0.154 C 
ATOM      7  C   UNL     1      -4.444 -10.676  14.157  0.00  0.00    +0.113 C 
ATOM      9  C   UNL     1      -1.847 -12.160  14.554  0.00  0.00    +0.192 C 
ATOM     10  C   UNL     1      -3.989 -11.981  13.503  0.00  0.00    +0.175 C 
ENDROOT
BRANCH   6   3
ATOM      3  O   UNL     1      -0.552 -10.784  16.015  0.00  0.00    -0.388 OA
ATOM     17  H   UNL     1       0.185 -11.114  15.475  0.00  0.00    +0.210 HD
ENDBRANCH   6   3
BRANCH   4   8
ATOM      8  C   UNL     1      -5.272  -9.971  16.318  0.00  0.00    +0.119 C 
BRANCH   8  11
ATOM      1  F   UNL     1      -7.720 -12.949  20.428  0.00  0.00    -0.205 F 
ATOM     11  C   UNL     1      -5.926 -10.767  17.416  0.00  0.00    -0.033 A 
ATOM     12  C   UNL     1      -5.450 -10.673  18.724  0.00  0.00    +0.008 A 
ATOM     13  C   UNL     1      -7.008 -11.597  17.126  0.00  0.00    +0.008 A 
ATOM     14  C   UNL     1      -6.056 -11.410  19.742  0.00  0.00    +0.038 A 
ATOM     15  C   UNL     1      -7.614 -12.334  18.144  0.00  0.00    +0.038 A 
ATOM     16  C   UNL     1      -7.138 -12.241  19.451  0.00  0.00    +0.123 A 
ENDBRANCH   8  11
ENDBRANCH   4   8
TORSDOF 3
ENDMDL
MODEL 10
REMARK VINA RESULT:      -5.5     16.003     18.924
REMARK  Name = 75367757
REMARK  3 active torsions:
REMARK  status: ('A' for Active; 'I' for Inactive)
REMARK    1  A    between atoms: O_3  and  C_6
REMARK    2  A    between atoms: N_4  and  C_8
REMARK    3  A    between atoms: C_8  and  C_11
REMARK                            x       y       z     vdW  Elec       q    Type
REMARK                         _______ _______ _______ _____ _____    ______ ____
ROOT
ATOM      2  O   UNL     1      10.657   6.716  21.964  0.00  0.00    -0.376 OA
ATOM      4  N   UNL     1      12.959   8.325  20.610  0.00  0.00    -0.293 NA
ATOM      5  C   UNL     1      12.403   9.389  21.453  0.00  0.00    +0.118 C 
ATOM      6  C   UNL     1      11.234   9.029  22.383  0.00  0.00    +0.154 C 
ATOM      7  C   UNL     1      13.004   7.009  21.250  0.00  0.00    +0.113 C 
ATOM      9  C   UNL     1      10.226   8.060  21.779  0.00  0.00    +0.192 C 
ATOM     10  C   UNL     1      11.668   6.291  21.060  0.00  0.00    +0.175 C 
ENDROOT
BRANCH   6   3
ATOM      3  O   UNL     1      10.543  10.235  22.714  0.00  0.00    -0.388 OA
ATOM     17  H   UNL     1       9.634   9.993  22.961  0.00  0.00    +0.210 HD
ENDBRANCH   6   3
BRANCH   4   8
ATOM      8  C   UNL     1      14.275   8.720  20.105  0.00  0.00    +0.119 C 
BRANCH   8  11
ATOM      1  F   UNL     1      13.993  10.702  14.838  0.00  0.00    -0.205 F 
ATOM     11  C   UNL     1      14.199   9.249  18.698  0.00  0.00    -0.033 A 
ATOM     12  C   UNL     1      14.342  10.616  18.458  0.00  0.00    +0.008 A 
ATOM     13  C   UNL     1      13.988   8.374  17.634  0.00  0.00    +0.008 A 
ATOM     14  C   UNL     1      14.272  11.108  17.155  0.00  0.00    +0.038 A 
ATOM     15  C   UNL     1      13.918   8.865  16.330  0.00  0.00    +0.038 A 
ATOM     16  C   UNL     1      14.060  10.231  16.090  0.00  0.00    +0.123 A 
ENDBRANCH   8  11
ENDBRANCH   4   8
TORSDOF 3
ENDMDL
