REMARK  Name = 45361409
REMARK  10 active torsions:
REMARK  status: ('A' for Active; 'I' for Inactive)
REMARK    1  A    between atoms: O_2  and  C_10
REMARK    2  A    between atoms: N_5  and  C_14
REMARK    3  A    between atoms: N_6  and  C_24
REMARK    4  A    between atoms: C_7  and  C_17
REMARK    5  A    between atoms: C_9  and  C_19
REMARK    6  A    between atoms: C_13  and  C_18
REMARK    7  A    between atoms: C_18  and  C_20
REMARK    8  A    between atoms: C_18  and  C_21
REMARK    9  A    between atoms: C_22  and  C_23
REMARK   10  A    between atoms: C_24  and  C_27
REMARK                            x       y       z     vdW  Elec       q    Type
REMARK                         _______ _______ _______ _____ _____    ______ ____
ROOT
ATOM      7  C   UNL     1       0.024   0.227   1.530  0.00  0.00    -0.027 C 
ATOM      8  C   UNL     1      -0.193  -0.328   0.083  0.00  0.00    +0.028 C 
ATOM      9  C   UNL     1      -1.698  -0.714  -0.148  0.00  0.00    +0.012 C 
ATOM     10  C   UNL     1       0.841  -1.441  -0.254  0.00  0.00    +0.122 C 
ATOM     11  C   UNL     1       1.488   0.701   1.687  0.00  0.00    +0.007 C 
ATOM     12  C   UNL     1      -0.893   1.453   1.742  0.00  0.00    +0.009 C 
ATOM     13  C   UNL     1       2.300  -0.995   0.004  0.00  0.00    +0.029 C 
ATOM     14  C   UNL     1      -2.617   0.507   0.141  0.00  0.00    +0.076 C 
ATOM     15  C   UNL     1       2.503  -0.397   1.396  0.00  0.00    +0.007 C 
ATOM     16  C   UNL     1      -2.365   1.147   1.506  0.00  0.00    +0.023 C 
ATOM     17  C   UNL     1      -0.277  -0.830   2.623  0.00  0.00    +0.011 C 
ATOM     19  C   UNL     1      -1.988  -1.241  -1.563  0.00  0.00    +0.010 C 
ENDROOT
BRANCH  14   5
ATOM      4  O   UNL     1      -4.760   2.216  -0.713  0.00  0.00    -0.270 OA
ATOM      5  N   UNL     1      -4.019   0.156   0.050  0.00  0.00    -0.308 N 
ATOM     22  C   UNL     1      -4.981   1.056  -0.375  0.00  0.00    +0.244 C 
ATOM     34  H   UNL     1      -4.289  -0.748   0.423  0.00  0.00    +0.149 HD
BRANCH  22  23
ATOM     23  C   UNL     1      -6.377   0.550  -0.387  0.00  0.00    +0.037 A 
ATOM     25  C   UNL     1      -7.443   1.438  -0.242  0.00  0.00    +0.013 A 
ATOM     26  C   UNL     1      -6.623  -0.814  -0.546  0.00  0.00    +0.013 A 
ATOM     28  C   UNL     1      -8.754   0.963  -0.254  0.00  0.00    +0.001 A 
ATOM     29  C   UNL     1      -7.934  -1.290  -0.559  0.00  0.00    +0.001 A 
ATOM     30  C   UNL     1      -9.000  -0.402  -0.413  0.00  0.00    +0.000 A 
ENDBRANCH  22  23
ENDBRANCH  14   5
BRANCH  10   2
ATOM      2  O   UNL     1       0.754  -1.768  -1.642  0.00  0.00    -0.391 OA
ATOM     35  H   UNL     1       0.946  -0.964  -2.155  0.00  0.00    +0.210 HD
ENDBRANCH  10   2
BRANCH  13  18
ATOM     18  C   UNL     1       3.292  -2.145  -0.209  0.00  0.00    +0.077 C 
ATOM     20  C   UNL     1       2.967  -3.300   0.731  0.00  0.00    +0.017 C 
BRANCH  18  21
ATOM      3  O   UNL     1       5.288  -1.690   1.085  0.00  0.00    -0.276 OA
ATOM      6  N   UNL     1       5.279  -1.143  -1.169  0.00  0.00    -0.310 N 
ATOM     21  C   UNL     1       4.719  -1.645  -0.004  0.00  0.00    +0.216 C 
ATOM     36  H   UNL     1       4.726  -1.120  -2.020  0.00  0.00    +0.149 HD
BRANCH   6  24
ATOM     24  C   UNL     1       6.621  -0.610  -1.224  0.00  0.00    +0.146 C 
BRANCH  24  27
ATOM      1  S   UNL     1       8.051   1.510  -0.139  0.00  0.00    -0.100 S 
ATOM     27  C   UNL     1       6.658   0.853  -0.889  0.00  0.00    +0.007 A 
ATOM     31  C   UNL     1       5.688   1.807  -1.103  0.00  0.00    +0.013 A 
ATOM     32  C   UNL     1       6.093   3.094  -0.645  0.00  0.00    +0.008 A 
ATOM     33  C   UNL     1       7.357   3.075  -0.099  0.00  0.00    +0.045 A 
ENDBRANCH  24  27
ENDBRANCH   6  24
ENDBRANCH  18  21
ENDBRANCH  13  18
TORSDOF 7
