MODEL 1
REMARK VINA RESULT:      -7.0      0.000      0.000
REMARK  Name = 11913294
REMARK  9 active torsions:
REMARK  status: ('A' for Active; 'I' for Inactive)
REMARK    1  A    between atoms: S_1  and  N_6
REMARK    2  A    between atoms: S_1  and  C_18
REMARK    3  A    between atoms: N_6  and  C_13
REMARK    4  A    between atoms: N_7  and  C_14
REMARK    5  A    between atoms: C_19  and  C_20
REMARK    6  A    between atoms: C_19  and  C_25
REMARK    7  A    between atoms: C_19  and  C_26
REMARK    8  A    between atoms: C_19  and  C_27
REMARK    9  A    between atoms: C_21  and  C_31
REMARK                            x       y       z     vdW  Elec       q    Type
REMARK                         _______ _______ _______ _____ _____    ______ ____
ROOT
ATOM      2  O   UNL     1     -17.031   5.119  25.332  0.00  0.00    -0.370 OA
ATOM      3  O   UNL     1     -16.292   2.288  24.235  0.00  0.00    -0.370 OA
ATOM     11  C   UNL     1     -15.721   3.134  25.246  0.00  0.00    +0.170 C 
ATOM     12  C   UNL     1     -15.837   4.565  24.755  0.00  0.00    +0.171 C 
ATOM     13  C   UNL     1     -16.569   3.102  26.494  0.00  0.00    +0.133 C 
ATOM     14  C   UNL     1     -15.992   4.432  23.259  0.00  0.00    +0.130 C 
ATOM     15  C   UNL     1     -17.627   4.151  26.208  0.00  0.00    +0.183 C 
ATOM     16  C   UNL     1     -16.689   3.092  23.114  0.00  0.00    +0.185 C 
ENDROOT
BRANCH  14   7
ATOM      7  N   UNL     1     -14.690   4.389  22.629  0.00  0.00    -0.306 N 
ATOM      8  N   UNL     1     -14.650   6.711  22.298  0.00  0.00    -0.219 NA
ATOM      9  N   UNL     1     -12.809   5.327  21.587  0.00  0.00    -0.223 NA
ATOM     17  C   UNL     1     -14.030   5.509  22.157  0.00  0.00    +0.216 A 
ATOM     20  C   UNL     1     -13.979   7.782  21.828  0.00  0.00    +0.052 A 
ATOM     23  C   UNL     1     -12.735   7.707  21.232  0.00  0.00    +0.043 A 
ATOM     24  C   UNL     1     -12.194   6.442  21.138  0.00  0.00    +0.116 A 
ATOM     33  H   UNL     1     -14.196   3.505  22.567  0.00  0.00    +0.149 HD
BRANCH  20  19
ATOM     19  C   UNL     1     -14.644   9.109  21.974  0.00  0.00    +0.005 C 
ATOM     25  C   UNL     1     -13.619  10.276  21.820  0.00  0.00    +0.017 C 
ATOM     26  C   UNL     1     -15.316   9.254  23.373  0.00  0.00    +0.017 C 
ATOM     27  C   UNL     1     -15.775   9.410  20.935  0.00  0.00    +0.017 C 
ENDBRANCH  20  19
ENDBRANCH  14   7
BRANCH  13   6
ATOM      6  N   UNL     1     -15.755   3.523  27.661  0.00  0.00    -0.182 NA
ATOM     32  H   UNL     1     -14.745   3.339  27.630  0.00  0.00    +0.148 HD
BRANCH   6   1
ATOM      1  S   UNL     1     -16.519   3.919  29.124  0.00  0.00    +0.060 S 
ATOM      4  O   UNL     1     -17.664   3.052  29.322  0.00  0.00    -0.153 OA
ATOM      5  O   UNL     1     -16.674   5.360  29.195  0.00  0.00    -0.153 OA
BRANCH   1  18
ATOM     18  C   UNL     1     -15.286   3.475  30.311  0.00  0.00    +0.123 A 
ATOM     21  C   UNL     1     -14.774   2.188  30.370  0.00  0.00    +0.078 A 
ATOM     22  C   UNL     1     -14.846   4.462  31.180  0.00  0.00    +0.030 A 
ATOM     28  C   UNL     1     -13.800   1.880  31.321  0.00  0.00    +0.021 A 
ATOM     29  C   UNL     1     -13.873   4.154  32.131  0.00  0.00    +0.002 A 
ATOM     30  C   UNL     1     -13.350   2.864  32.202  0.00  0.00    +0.001 A 
BRANCH  21  31
ATOM     10  N   UNL     1     -15.567   0.316  28.764  0.00  0.00    -0.191 NA
ATOM     31  C   UNL     1     -15.212   1.153  29.483  0.00  0.00    +0.101 C 
ENDBRANCH  21  31
ENDBRANCH   1  18
ENDBRANCH   6   1
ENDBRANCH  13   6
TORSDOF 6
ENDMDL
MODEL 2
REMARK VINA RESULT:      -7.0      2.522      9.247
REMARK  Name = 11913294
REMARK  9 active torsions:
REMARK  status: ('A' for Active; 'I' for Inactive)
REMARK    1  A    between atoms: S_1  and  N_6
REMARK    2  A    between atoms: S_1  and  C_18
REMARK    3  A    between atoms: N_6  and  C_13
REMARK    4  A    between atoms: N_7  and  C_14
REMARK    5  A    between atoms: C_19  and  C_20
REMARK    6  A    between atoms: C_19  and  C_25
REMARK    7  A    between atoms: C_19  and  C_26
REMARK    8  A    between atoms: C_19  and  C_27
REMARK    9  A    between atoms: C_21  and  C_31
REMARK                            x       y       z     vdW  Elec       q    Type
REMARK                         _______ _______ _______ _____ _____    ______ ____
ROOT
ATOM      2  O   UNL     1     -15.795   2.679  24.657  0.00  0.00    -0.370 OA
ATOM      3  O   UNL     1     -18.363   4.395  25.134  0.00  0.00    -0.370 OA
ATOM     11  C   UNL     1     -17.034   4.711  24.686  0.00  0.00    +0.170 C 
ATOM     12  C   UNL     1     -16.075   3.833  25.467  0.00  0.00    +0.171 C 
ATOM     13  C   UNL     1     -16.849   4.275  23.253  0.00  0.00    +0.133 C 
ATOM     14  C   UNL     1     -16.856   3.432  26.696  0.00  0.00    +0.130 C 
ATOM     15  C   UNL     1     -16.461   2.817  23.393  0.00  0.00    +0.183 C 
ATOM     16  C   UNL     1     -18.288   3.431  26.195  0.00  0.00    +0.185 C 
ENDROOT
BRANCH  14   7
ATOM      7  N   UNL     1     -16.690   4.426  27.734  0.00  0.00    -0.306 N 
ATOM      8  N   UNL     1     -15.790   2.867  29.238  0.00  0.00    -0.219 NA
ATOM      9  N   UNL     1     -16.062   5.178  29.866  0.00  0.00    -0.223 NA
ATOM     17  C   UNL     1     -16.165   4.149  28.983  0.00  0.00    +0.216 A 
ATOM     20  C   UNL     1     -15.281   2.632  30.465  0.00  0.00    +0.052 A 
ATOM     23  C   UNL     1     -15.134   3.605  31.434  0.00  0.00    +0.043 A 
ATOM     24  C   UNL     1     -15.546   4.872  31.074  0.00  0.00    +0.116 A 
ATOM     33  H   UNL     1     -16.917   5.395  27.537  0.00  0.00    +0.149 HD
BRANCH  20  19
ATOM     19  C   UNL     1     -14.864   1.231  30.763  0.00  0.00    +0.005 C 
ATOM     25  C   UNL     1     -15.865   0.201  30.153  0.00  0.00    +0.017 C 
ATOM     26  C   UNL     1     -14.801   0.974  32.299  0.00  0.00    +0.017 C 
ATOM     27  C   UNL     1     -13.457   0.819  30.213  0.00  0.00    +0.017 C 
ENDBRANCH  20  19
ENDBRANCH  14   7
BRANCH  13   6
ATOM      6  N   UNL     1     -15.729   5.033  22.644  0.00  0.00    -0.182 NA
ATOM     32  H   UNL     1     -14.881   5.169  23.208  0.00  0.00    +0.148 HD
BRANCH   6   1
ATOM      1  S   UNL     1     -15.998   5.959  21.246  0.00  0.00    +0.060 S 
ATOM      4  O   UNL     1     -16.771   7.136  21.587  0.00  0.00    -0.153 OA
ATOM      5  O   UNL     1     -16.440   5.078  20.180  0.00  0.00    -0.153 OA
BRANCH   1  18
ATOM     18  C   UNL     1     -14.360   6.481  20.834  0.00  0.00    +0.123 A 
ATOM     21  C   UNL     1     -14.126   7.372  19.798  0.00  0.00    +0.078 A 
ATOM     22  C   UNL     1     -13.313   5.969  21.588  0.00  0.00    +0.030 A 
ATOM     28  C   UNL     1     -12.818   7.759  19.507  0.00  0.00    +0.021 A 
ATOM     29  C   UNL     1     -12.005   6.356  21.297  0.00  0.00    +0.002 A 
ATOM     30  C   UNL     1     -11.758   7.251  20.257  0.00  0.00    +0.001 A 
BRANCH  21  31
ATOM     10  N   UNL     1     -16.051   8.352  18.368  0.00  0.00    -0.191 NA
ATOM     31  C   UNL     1     -15.191   7.914  19.007  0.00  0.00    +0.101 C 
ENDBRANCH  21  31
ENDBRANCH   1  18
ENDBRANCH   6   1
ENDBRANCH  13   6
TORSDOF 6
ENDMDL
MODEL 3
REMARK VINA RESULT:      -6.8     32.729     35.204
REMARK  Name = 11913294
REMARK  9 active torsions:
REMARK  status: ('A' for Active; 'I' for Inactive)
REMARK    1  A    between atoms: S_1  and  N_6
REMARK    2  A    between atoms: S_1  and  C_18
REMARK    3  A    between atoms: N_6  and  C_13
REMARK    4  A    between atoms: N_7  and  C_14
REMARK    5  A    between atoms: C_19  and  C_20
REMARK    6  A    between atoms: C_19  and  C_25
REMARK    7  A    between atoms: C_19  and  C_26
REMARK    8  A    between atoms: C_19  and  C_27
REMARK    9  A    between atoms: C_21  and  C_31
REMARK                            x       y       z     vdW  Elec       q    Type
REMARK                         _______ _______ _______ _____ _____    ______ ____
ROOT
ATOM      2  O   UNL     1      19.671   6.338  20.187  0.00  0.00    -0.370 OA
ATOM      3  O   UNL     1      19.516   8.513  22.426  0.00  0.00    -0.370 OA
ATOM     11  C   UNL     1      19.605   7.078  22.448  0.00  0.00    +0.170 C 
ATOM     12  C   UNL     1      18.776   6.557  21.290  0.00  0.00    +0.171 C 
ATOM     13  C   UNL     1      21.011   6.638  22.122  0.00  0.00    +0.133 C 
ATOM     14  C   UNL     1      17.826   7.687  20.976  0.00  0.00    +0.130 C 
ATOM     15  C   UNL     1      21.015   6.619  20.606  0.00  0.00    +0.183 C 
ATOM     16  C   UNL     1      18.625   8.914  21.375  0.00  0.00    +0.185 C 
ENDROOT
BRANCH  14   7
ATOM      7  N   UNL     1      16.637   7.577  21.794  0.00  0.00    -0.306 N 
ATOM      8  N   UNL     1      15.225   8.163  20.015  0.00  0.00    -0.219 NA
ATOM      9  N   UNL     1      14.328   7.668  22.197  0.00  0.00    -0.223 NA
ATOM     17  C   UNL     1      15.358   7.810  21.322  0.00  0.00    +0.216 A 
ATOM     20  C   UNL     1      13.964   8.381  19.587  0.00  0.00    +0.052 A 
ATOM     23  C   UNL     1      12.849   8.266  20.394  0.00  0.00    +0.043 A 
ATOM     24  C   UNL     1      13.095   7.903  21.702  0.00  0.00    +0.116 A 
ATOM     33  H   UNL     1      16.721   7.263  22.755  0.00  0.00    +0.149 HD
BRANCH  20  19
ATOM     19  C   UNL     1      13.798   8.770  18.157  0.00  0.00    +0.005 C 
ATOM     25  C   UNL     1      12.305   9.078  17.824  0.00  0.00    +0.017 C 
ATOM     26  C   UNL     1      14.267   7.629  17.202  0.00  0.00    +0.017 C 
ATOM     27  C   UNL     1      14.595  10.040  17.710  0.00  0.00    +0.017 C 
ENDBRANCH  20  19
ENDBRANCH  14   7
BRANCH  13   6
ATOM      6  N   UNL     1      21.236   5.265  22.637  0.00  0.00    -0.182 NA
ATOM     32  H   UNL     1      20.448   4.607  22.602  0.00  0.00    +0.148 HD
BRANCH   6   1
ATOM      1  S   UNL     1      22.599   4.934  23.593  0.00  0.00    +0.060 S 
ATOM      4  O   UNL     1      22.174   4.456  24.894  0.00  0.00    -0.153 OA
ATOM      5  O   UNL     1      23.523   6.049  23.491  0.00  0.00    -0.153 OA
BRANCH   1  18
ATOM     18  C   UNL     1      23.332   3.579  22.726  0.00  0.00    +0.123 A 
ATOM     21  C   UNL     1      24.435   2.910  23.235  0.00  0.00    +0.078 A 
ATOM     22  C   UNL     1      22.762   3.205  21.517  0.00  0.00    +0.030 A 
ATOM     28  C   UNL     1      24.981   1.844  22.519  0.00  0.00    +0.021 A 
ATOM     29  C   UNL     1      23.309   2.140  20.802  0.00  0.00    +0.002 A 
ATOM     30  C   UNL     1      24.418   1.460  21.302  0.00  0.00    +0.001 A 
BRANCH  21  31
ATOM     10  N   UNL     1      25.528   3.574  25.488  0.00  0.00    -0.191 NA
ATOM     31  C   UNL     1      25.039   3.277  24.480  0.00  0.00    +0.101 C 
ENDBRANCH  21  31
ENDBRANCH   1  18
ENDBRANCH   6   1
ENDBRANCH  13   6
TORSDOF 6
ENDMDL
MODEL 4
REMARK VINA RESULT:      -6.7     32.535     36.793
REMARK  Name = 11913294
REMARK  9 active torsions:
REMARK  status: ('A' for Active; 'I' for Inactive)
REMARK    1  A    between atoms: S_1  and  N_6
REMARK    2  A    between atoms: S_1  and  C_18
REMARK    3  A    between atoms: N_6  and  C_13
REMARK    4  A    between atoms: N_7  and  C_14
REMARK    5  A    between atoms: C_19  and  C_20
REMARK    6  A    between atoms: C_19  and  C_25
REMARK    7  A    between atoms: C_19  and  C_26
REMARK    8  A    between atoms: C_19  and  C_27
REMARK    9  A    between atoms: C_21  and  C_31
REMARK                            x       y       z     vdW  Elec       q    Type
REMARK                         _______ _______ _______ _____ _____    ______ ____
ROOT
ATOM      2  O   UNL     1      14.470   6.798   6.807  0.00  0.00    -0.370 OA
ATOM      3  O   UNL     1      13.299   9.177   5.153  0.00  0.00    -0.370 OA
ATOM     11  C   UNL     1      13.163   7.749   5.061  0.00  0.00    +0.170 C 
ATOM     12  C   UNL     1      14.508   7.144   5.412  0.00  0.00    +0.171 C 
ATOM     13  C   UNL     1      12.237   7.242   6.139  0.00  0.00    +0.133 C 
ATOM     14  C   UNL     1      15.492   8.265   5.179  0.00  0.00    +0.130 C 
ATOM     15  C   UNL     1      13.164   7.081   7.329  0.00  0.00    +0.183 C 
ATOM     16  C   UNL     1      14.662   9.502   5.468  0.00  0.00    +0.185 C 
ENDROOT
BRANCH  14   7
ATOM      7  N   UNL     1      15.924   8.265   3.797  0.00  0.00    -0.306 N 
ATOM      8  N   UNL     1      18.191   8.151   4.392  0.00  0.00    -0.219 NA
ATOM      9  N   UNL     1      17.519   8.212   2.078  0.00  0.00    -0.223 NA
ATOM     17  C   UNL     1      17.251   8.208   3.410  0.00  0.00    +0.216 A 
ATOM     20  C   UNL     1      19.474   8.096   3.979  0.00  0.00    +0.052 A 
ATOM     23  C   UNL     1      19.854   8.095   2.651  0.00  0.00    +0.043 A 
ATOM     24  C   UNL     1      18.823   8.155   1.736  0.00  0.00    +0.116 A 
ATOM     33  H   UNL     1      15.230   8.253   3.058  0.00  0.00    +0.149 HD
BRANCH  20  19
ATOM     19  C   UNL     1      20.519   8.033   5.041  0.00  0.00    +0.005 C 
ATOM     25  C   UNL     1      21.575   9.168   4.863  0.00  0.00    +0.017 C 
ATOM     26  C   UNL     1      21.279   6.672   5.007  0.00  0.00    +0.017 C 
ATOM     27  C   UNL     1      19.994   8.180   6.508  0.00  0.00    +0.017 C 
ENDBRANCH  20  19
ENDBRANCH  14   7
BRANCH  13   6
ATOM      6  N   UNL     1      11.694   5.918   5.749  0.00  0.00    -0.182 NA
ATOM     32  H   UNL     1      12.299   5.298   5.195  0.00  0.00    +0.148 HD
BRANCH   6   1
ATOM      1  S   UNL     1      10.027   5.619   5.872  0.00  0.00    +0.060 S 
ATOM      4  O   UNL     1       9.546   6.085   7.158  0.00  0.00    -0.153 OA
ATOM      5  O   UNL     1       9.764   4.257   5.444  0.00  0.00    -0.153 OA
BRANCH   1  18
ATOM     18  C   UNL     1       9.373   6.686   4.624  0.00  0.00    +0.123 A 
ATOM     21  C   UNL     1       9.829   6.631   3.316  0.00  0.00    +0.078 A 
ATOM     22  C   UNL     1       8.381   7.582   4.999  0.00  0.00    +0.030 A 
ATOM     28  C   UNL     1       9.284   7.490   2.362  0.00  0.00    +0.021 A 
ATOM     29  C   UNL     1       7.837   8.441   4.045  0.00  0.00    +0.002 A 
ATOM     30  C   UNL     1       8.288   8.395   2.727  0.00  0.00    +0.001 A 
BRANCH  21  31
ATOM     10  N   UNL     1      11.677   4.973   2.574  0.00  0.00    -0.191 NA
ATOM     31  C   UNL     1      10.851   5.714   2.906  0.00  0.00    +0.101 C 
ENDBRANCH  21  31
ENDBRANCH   1  18
ENDBRANCH   6   1
ENDBRANCH  13   6
TORSDOF 6
ENDMDL
MODEL 5
REMARK VINA RESULT:      -6.7     32.184     36.176
REMARK  Name = 11913294
REMARK  9 active torsions:
REMARK  status: ('A' for Active; 'I' for Inactive)
REMARK    1  A    between atoms: S_1  and  N_6
REMARK    2  A    between atoms: S_1  and  C_18
REMARK    3  A    between atoms: N_6  and  C_13
REMARK    4  A    between atoms: N_7  and  C_14
REMARK    5  A    between atoms: C_19  and  C_20
REMARK    6  A    between atoms: C_19  and  C_25
REMARK    7  A    between atoms: C_19  and  C_26
REMARK    8  A    between atoms: C_19  and  C_27
REMARK    9  A    between atoms: C_21  and  C_31
REMARK                            x       y       z     vdW  Elec       q    Type
REMARK                         _______ _______ _______ _____ _____    ______ ____
ROOT
ATOM      2  O   UNL     1      13.968   6.992   6.523  0.00  0.00    -0.370 OA
ATOM      3  O   UNL     1      14.073   9.901   5.386  0.00  0.00    -0.370 OA
ATOM     11  C   UNL     1      13.309   8.734   5.041  0.00  0.00    +0.170 C 
ATOM     12  C   UNL     1      14.218   7.532   5.215  0.00  0.00    +0.171 C 
ATOM     13  C   UNL     1      12.209   8.513   6.051  0.00  0.00    +0.133 C 
ATOM     14  C   UNL     1      15.612   8.108   5.144  0.00  0.00    +0.130 C 
ATOM     15  C   UNL     1      12.910   7.735   7.147  0.00  0.00    +0.183 C 
ATOM     16  C   UNL     1      15.420   9.511   5.692  0.00  0.00    +0.185 C 
ENDROOT
BRANCH  14   7
ATOM      7  N   UNL     1      16.055   8.165   3.768  0.00  0.00    -0.306 N 
ATOM      8  N   UNL     1      18.318   8.068   4.377  0.00  0.00    -0.219 NA
ATOM      9  N   UNL     1      17.664   8.201   2.062  0.00  0.00    -0.223 NA
ATOM     17  C   UNL     1      17.385   8.145   3.390  0.00  0.00    +0.216 A 
ATOM     20  C   UNL     1      19.606   8.050   3.974  0.00  0.00    +0.052 A 
ATOM     23  C   UNL     1      19.996   8.103   2.650  0.00  0.00    +0.043 A 
ATOM     24  C   UNL     1      18.972   8.179   1.729  0.00  0.00    +0.116 A 
ATOM     33  H   UNL     1      15.367   8.168   3.023  0.00  0.00    +0.149 HD
BRANCH  20  19
ATOM     19  C   UNL     1      20.643   7.966   5.042  0.00  0.00    +0.005 C 
ATOM     25  C   UNL     1      21.709   9.095   4.885  0.00  0.00    +0.017 C 
ATOM     26  C   UNL     1      21.393   6.600   4.998  0.00  0.00    +0.017 C 
ATOM     27  C   UNL     1      20.109   8.100   6.508  0.00  0.00    +0.017 C 
ENDBRANCH  20  19
ENDBRANCH  14   7
BRANCH  13   6
ATOM      6  N   UNL     1      11.143   7.675   5.451  0.00  0.00    -0.182 NA
ATOM     32  H   UNL     1      11.325   7.256   4.531  0.00  0.00    +0.148 HD
BRANCH   6   1
ATOM      1  S   UNL     1       9.565   7.740   6.075  0.00  0.00    +0.060 S 
ATOM      4  O   UNL     1       8.612   7.511   5.007  0.00  0.00    -0.153 OA
ATOM      5  O   UNL     1       9.446   8.914   6.920  0.00  0.00    -0.153 OA
BRANCH   1  18
ATOM     18  C   UNL     1       9.538   6.332   7.144  0.00  0.00    +0.123 A 
ATOM     21  C   UNL     1       9.843   5.064   6.673  0.00  0.00    +0.078 A 
ATOM     22  C   UNL     1       9.202   6.541   8.474  0.00  0.00    +0.030 A 
ATOM     28  C   UNL     1       9.811   3.980   7.551  0.00  0.00    +0.021 A 
ATOM     29  C   UNL     1       9.169   5.457   9.351  0.00  0.00    +0.002 A 
ATOM     30  C   UNL     1       9.473   4.177   8.890  0.00  0.00    +0.001 A 
BRANCH  21  31
ATOM     10  N   UNL     1      10.477   4.631   4.199  0.00  0.00    -0.191 NA
ATOM     31  C   UNL     1      10.194   4.825   5.305  0.00  0.00    +0.101 C 
ENDBRANCH  21  31
ENDBRANCH   1  18
ENDBRANCH   6   1
ENDBRANCH  13   6
TORSDOF 6
ENDMDL
MODEL 6
REMARK VINA RESULT:      -6.6     16.028     19.159
REMARK  Name = 11913294
REMARK  9 active torsions:
REMARK  status: ('A' for Active; 'I' for Inactive)
REMARK    1  A    between atoms: S_1  and  N_6
REMARK    2  A    between atoms: S_1  and  C_18
REMARK    3  A    between atoms: N_6  and  C_13
REMARK    4  A    between atoms: N_7  and  C_14
REMARK    5  A    between atoms: C_19  and  C_20
REMARK    6  A    between atoms: C_19  and  C_25
REMARK    7  A    between atoms: C_19  and  C_26
REMARK    8  A    between atoms: C_19  and  C_27
REMARK    9  A    between atoms: C_21  and  C_31
REMARK                            x       y       z     vdW  Elec       q    Type
REMARK                         _______ _______ _______ _____ _____    ______ ____
ROOT
ATOM      2  O   UNL     1     -12.619  -8.069  14.679  0.00  0.00    -0.370 OA
ATOM      3  O   UNL     1     -11.093  -6.075  16.541  0.00  0.00    -0.370 OA
ATOM     11  C   UNL     1     -11.227  -6.188  15.114  0.00  0.00    +0.170 C 
ATOM     12  C   UNL     1     -11.242  -7.667  14.778  0.00  0.00    +0.171 C 
ATOM     13  C   UNL     1     -12.586  -5.696  14.677  0.00  0.00    +0.133 C 
ATOM     14  C   UNL     1     -10.589  -8.325  15.970  0.00  0.00    +0.130 C 
ATOM     15  C   UNL     1     -13.461  -6.921  14.860  0.00  0.00    +0.183 C 
ATOM     16  C   UNL     1     -10.950  -7.387  17.107  0.00  0.00    +0.185 C 
ENDROOT
BRANCH  14   7
ATOM      7  N   UNL     1      -9.154  -8.364  15.789  0.00  0.00    -0.306 N 
ATOM      8  N   UNL     1      -8.895 -10.106  17.338  0.00  0.00    -0.219 NA
ATOM      9  N   UNL     1      -6.990  -9.172  16.196  0.00  0.00    -0.223 NA
ATOM     17  C   UNL     1      -8.321  -9.239  16.461  0.00  0.00    +0.216 A 
ATOM     20  C   UNL     1      -8.054 -10.947  17.975  0.00  0.00    +0.052 A 
ATOM     23  C   UNL     1      -6.687 -10.960  17.779  0.00  0.00    +0.043 A 
ATOM     24  C   UNL     1      -6.207 -10.041  16.869  0.00  0.00    +0.116 A 
ATOM     33  H   UNL     1      -8.723  -7.758  15.099  0.00  0.00    +0.149 HD
BRANCH  20  19
ATOM     19  C   UNL     1      -8.666 -11.905  18.941  0.00  0.00    +0.005 C 
ATOM     25  C   UNL     1      -9.707 -11.194  19.860  0.00  0.00    +0.017 C 
ATOM     26  C   UNL     1      -7.584 -12.547  19.863  0.00  0.00    +0.017 C 
ATOM     27  C   UNL     1      -9.432 -13.109  18.298  0.00  0.00    +0.017 C 
ENDBRANCH  20  19
ENDBRANCH  14   7
BRANCH  13   6
ATOM      6  N   UNL     1     -12.543  -5.326  13.241  0.00  0.00    -0.182 NA
ATOM     32  H   UNL     1     -11.636  -5.374  12.762  0.00  0.00    +0.148 HD
BRANCH   6   1
ATOM      1  S   UNL     1     -13.847  -4.488  12.547  0.00  0.00    +0.060 S 
ATOM      4  O   UNL     1     -14.135  -3.305  13.333  0.00  0.00    -0.153 OA
ATOM      5  O   UNL     1     -14.902  -5.437  12.241  0.00  0.00    -0.153 OA
BRANCH   1  18
ATOM     18  C   UNL     1     -13.162  -3.965  11.003  0.00  0.00    +0.123 A 
ATOM     21  C   UNL     1     -13.948  -3.357  10.035  0.00  0.00    +0.078 A 
ATOM     22  C   UNL     1     -11.808  -4.182  10.794  0.00  0.00    +0.030 A 
ATOM     28  C   UNL     1     -13.367  -2.958   8.831  0.00  0.00    +0.021 A 
ATOM     29  C   UNL     1     -11.228  -3.784   9.589  0.00  0.00    +0.002 A 
ATOM     30  C   UNL     1     -12.007  -3.172   8.609  0.00  0.00    +0.001 A 
BRANCH  21  31
ATOM     10  N   UNL     1     -16.479  -2.932  10.387  0.00  0.00    -0.191 NA
ATOM     31  C   UNL     1     -15.347  -3.122  10.230  0.00  0.00    +0.101 C 
ENDBRANCH  21  31
ENDBRANCH   1  18
ENDBRANCH   6   1
ENDBRANCH  13   6
TORSDOF 6
ENDMDL
MODEL 7
REMARK VINA RESULT:      -6.5     23.188     26.585
REMARK  Name = 11913294
REMARK  9 active torsions:
REMARK  status: ('A' for Active; 'I' for Inactive)
REMARK    1  A    between atoms: S_1  and  N_6
REMARK    2  A    between atoms: S_1  and  C_18
REMARK    3  A    between atoms: N_6  and  C_13
REMARK    4  A    between atoms: N_7  and  C_14
REMARK    5  A    between atoms: C_19  and  C_20
REMARK    6  A    between atoms: C_19  and  C_25
REMARK    7  A    between atoms: C_19  and  C_26
REMARK    8  A    between atoms: C_19  and  C_27
REMARK    9  A    between atoms: C_21  and  C_31
REMARK                            x       y       z     vdW  Elec       q    Type
REMARK                         _______ _______ _______ _____ _____    ______ ____
ROOT
ATOM      2  O   UNL     1      -6.271 -11.260   9.899  0.00  0.00    -0.370 OA
ATOM      3  O   UNL     1      -4.639  -8.600   9.720  0.00  0.00    -0.370 OA
ATOM     11  C   UNL     1      -4.471  -9.903   9.135  0.00  0.00    +0.170 C 
ATOM     12  C   UNL     1      -4.900 -10.922  10.173  0.00  0.00    +0.171 C 
ATOM     13  C   UNL     1      -5.448 -10.096   8.002  0.00  0.00    +0.133 C 
ATOM     14  C   UNL     1      -4.797 -10.182  11.485  0.00  0.00    +0.130 C 
ATOM     15  C   UNL     1      -6.699 -10.572   8.714  0.00  0.00    +0.183 C 
ATOM     16  C   UNL     1      -5.075  -8.746  11.080  0.00  0.00    +0.185 C 
ENDROOT
BRANCH  14   7
ATOM      7  N   UNL     1      -3.456 -10.301  12.016  0.00  0.00    -0.306 N 
ATOM      8  N   UNL     1      -4.232 -10.580  14.212  0.00  0.00    -0.219 NA
ATOM      9  N   UNL     1      -1.872 -10.594  13.721  0.00  0.00    -0.223 NA
ATOM     17  C   UNL     1      -3.177 -10.497  13.356  0.00  0.00    +0.216 A 
ATOM     20  C   UNL     1      -3.924 -10.773  15.512  0.00  0.00    +0.052 A 
ATOM     23  C   UNL     1      -2.632 -10.884  15.986  0.00  0.00    +0.043 A 
ATOM     24  C   UNL     1      -1.637 -10.786  15.036  0.00  0.00    +0.116 A 
ATOM     33  H   UNL     1      -2.666 -10.294  11.379  0.00  0.00    +0.149 HD
BRANCH  20  19
ATOM     19  C   UNL     1      -5.067 -10.866  16.465  0.00  0.00    +0.005 C 
ATOM     25  C   UNL     1      -5.946  -9.577  16.424  0.00  0.00    +0.017 C 
ATOM     26  C   UNL     1      -4.568 -11.049  17.931  0.00  0.00    +0.017 C 
ATOM     27  C   UNL     1      -6.057 -12.052  16.212  0.00  0.00    +0.017 C 
ENDBRANCH  20  19
ENDBRANCH  14   7
BRANCH  13   6
ATOM      6  N   UNL     1      -4.956 -11.161   7.095  0.00  0.00    -0.182 NA
ATOM     32  H   UNL     1      -3.990 -11.487   7.220  0.00  0.00    +0.148 HD
BRANCH   6   1
ATOM      1  S   UNL     1      -5.817 -11.530   5.679  0.00  0.00    +0.060 S 
ATOM      4  O   UNL     1      -6.290 -10.304   5.068  0.00  0.00    -0.153 OA
ATOM      5  O   UNL     1      -6.746 -12.608   5.964  0.00  0.00    -0.153 OA
BRANCH   1  18
ATOM     18  C   UNL     1      -4.550 -12.202   4.646  0.00  0.00    +0.123 A 
ATOM     21  C   UNL     1      -4.786 -12.491   3.311  0.00  0.00    +0.078 A 
ATOM     22  C   UNL     1      -3.306 -12.427   5.219  0.00  0.00    +0.030 A 
ATOM     28  C   UNL     1      -3.757 -13.019   2.530  0.00  0.00    +0.021 A 
ATOM     29  C   UNL     1      -2.278 -12.956   4.438  0.00  0.00    +0.002 A 
ATOM     30  C   UNL     1      -2.503 -13.252   3.095  0.00  0.00    +0.001 A 
BRANCH  21  31
ATOM     10  N   UNL     1      -7.092 -12.083   2.202  0.00  0.00    -0.191 NA
ATOM     31  C   UNL     1      -6.061 -12.265   2.698  0.00  0.00    +0.101 C 
ENDBRANCH  21  31
ENDBRANCH   1  18
ENDBRANCH   6   1
ENDBRANCH  13   6
TORSDOF 6
ENDMDL
MODEL 8
REMARK VINA RESULT:      -6.4     21.152     23.350
REMARK  Name = 11913294
REMARK  9 active torsions:
REMARK  status: ('A' for Active; 'I' for Inactive)
REMARK    1  A    between atoms: S_1  and  N_6
REMARK    2  A    between atoms: S_1  and  C_18
REMARK    3  A    between atoms: N_6  and  C_13
REMARK    4  A    between atoms: N_7  and  C_14
REMARK    5  A    between atoms: C_19  and  C_20
REMARK    6  A    between atoms: C_19  and  C_25
REMARK    7  A    between atoms: C_19  and  C_26
REMARK    8  A    between atoms: C_19  and  C_27
REMARK    9  A    between atoms: C_21  and  C_31
REMARK                            x       y       z     vdW  Elec       q    Type
REMARK                         _______ _______ _______ _____ _____    ______ ____
ROOT
ATOM      2  O   UNL     1      -3.235 -13.099  12.670  0.00  0.00    -0.370 OA
ATOM      3  O   UNL     1      -2.235 -10.276  13.562  0.00  0.00    -0.370 OA
ATOM     11  C   UNL     1      -3.439 -11.020  13.810  0.00  0.00    +0.170 C 
ATOM     12  C   UNL     1      -3.774 -11.773  12.536  0.00  0.00    +0.171 C 
ATOM     13  C   UNL     1      -3.183 -12.107  14.825  0.00  0.00    +0.133 C 
ATOM     14  C   UNL     1      -3.041 -11.017  11.455  0.00  0.00    +0.130 C 
ATOM     15  C   UNL     1      -2.651 -13.243  13.973  0.00  0.00    +0.183 C 
ATOM     16  C   UNL     1      -1.839 -10.459  12.195  0.00  0.00    +0.185 C 
ENDROOT
BRANCH  14   7
ATOM      7  N   UNL     1      -3.867  -9.938  10.958  0.00  0.00    -0.306 N 
ATOM      8  N   UNL     1      -4.368 -11.087   8.975  0.00  0.00    -0.219 NA
ATOM      9  N   UNL     1      -5.267  -8.890   9.395  0.00  0.00    -0.223 NA
ATOM     17  C   UNL     1      -4.520  -9.972   9.739  0.00  0.00    +0.216 A 
ATOM     20  C   UNL     1      -5.019 -11.087   7.793  0.00  0.00    +0.052 A 
ATOM     23  C   UNL     1      -5.803 -10.040   7.349  0.00  0.00    +0.043 A 
ATOM     24  C   UNL     1      -5.890  -8.958   8.199  0.00  0.00    +0.116 A 
ATOM     33  H   UNL     1      -4.030  -9.125  11.543  0.00  0.00    +0.149 HD
BRANCH  20  19
ATOM     19  C   UNL     1      -4.864 -12.301   6.941  0.00  0.00    +0.005 C 
ATOM     25  C   UNL     1      -4.267 -11.940   5.546  0.00  0.00    +0.017 C 
ATOM     26  C   UNL     1      -6.236 -13.002   6.700  0.00  0.00    +0.017 C 
ATOM     27  C   UNL     1      -3.925 -13.412   7.521  0.00  0.00    +0.017 C 
ENDBRANCH  20  19
ENDBRANCH  14   7
BRANCH  13   6
ATOM      6  N   UNL     1      -4.463 -12.514  15.454  0.00  0.00    -0.182 NA
ATOM     32  H   UNL     1      -5.213 -12.849  14.837  0.00  0.00    +0.148 HD
BRANCH   6   1
ATOM      1  S   UNL     1      -4.794 -12.069  17.059  0.00  0.00    +0.060 S 
ATOM      4  O   UNL     1      -3.694 -11.281  17.579  0.00  0.00    -0.153 OA
ATOM      5  O   UNL     1      -5.260 -13.238  17.781  0.00  0.00    -0.153 OA
BRANCH   1  18
ATOM     18  C   UNL     1      -6.186 -10.998  16.859  0.00  0.00    +0.123 A 
ATOM     21  C   UNL     1      -6.843 -10.459  17.955  0.00  0.00    +0.078 A 
ATOM     22  C   UNL     1      -6.599 -10.713  15.565  0.00  0.00    +0.030 A 
ATOM     28  C   UNL     1      -7.937  -9.617  17.753  0.00  0.00    +0.021 A 
ATOM     29  C   UNL     1      -7.693  -9.872  15.364  0.00  0.00    +0.002 A 
ATOM     30  C   UNL     1      -8.362  -9.324  16.457  0.00  0.00    +0.001 A 
BRANCH  21  31
ATOM     10  N   UNL     1      -6.105 -10.963  20.386  0.00  0.00    -0.191 NA
ATOM     31  C   UNL     1      -6.435 -10.737  19.299  0.00  0.00    +0.101 C 
ENDBRANCH  21  31
ENDBRANCH   1  18
ENDBRANCH   6   1
ENDBRANCH  13   6
TORSDOF 6
ENDMDL
MODEL 9
REMARK VINA RESULT:      -6.4     32.554     37.129
REMARK  Name = 11913294
REMARK  9 active torsions:
REMARK  status: ('A' for Active; 'I' for Inactive)
REMARK    1  A    between atoms: S_1  and  N_6
REMARK    2  A    between atoms: S_1  and  C_18
REMARK    3  A    between atoms: N_6  and  C_13
REMARK    4  A    between atoms: N_7  and  C_14
REMARK    5  A    between atoms: C_19  and  C_20
REMARK    6  A    between atoms: C_19  and  C_25
REMARK    7  A    between atoms: C_19  and  C_26
REMARK    8  A    between atoms: C_19  and  C_27
REMARK    9  A    between atoms: C_21  and  C_31
REMARK                            x       y       z     vdW  Elec       q    Type
REMARK                         _______ _______ _______ _____ _____    ______ ____
ROOT
ATOM      2  O   UNL     1       9.908   6.175   1.389  0.00  0.00    -0.370 OA
ATOM      3  O   UNL     1      12.276   7.970   0.420  0.00  0.00    -0.370 OA
ATOM     11  C   UNL     1      12.143   6.560   0.665  0.00  0.00    +0.170 C 
ATOM     12  C   UNL     1      11.243   6.396   1.876  0.00  0.00    +0.171 C 
ATOM     13  C   UNL     1      11.374   5.905  -0.457  0.00  0.00    +0.133 C 
ATOM     14  C   UNL     1      11.328   7.727   2.583  0.00  0.00    +0.130 C 
ATOM     15  C   UNL     1       9.931   6.118  -0.045  0.00  0.00    +0.183 C 
ATOM     16  C   UNL     1      11.578   8.696   1.442  0.00  0.00    +0.185 C 
ENDROOT
BRANCH  14   7
ATOM      7  N   UNL     1      12.450   7.730   3.498  0.00  0.00    -0.306 N 
ATOM      8  N   UNL     1      11.156   6.886   5.263  0.00  0.00    -0.219 NA
ATOM      9  N   UNL     1      13.498   7.370   5.565  0.00  0.00    -0.223 NA
ATOM     17  C   UNL     1      12.366   7.317   4.815  0.00  0.00    +0.216 A 
ATOM     20  C   UNL     1      11.110   6.489   6.552  0.00  0.00    +0.052 A 
ATOM     23  C   UNL     1      12.200   6.503   7.399  0.00  0.00    +0.043 A 
ATOM     24  C   UNL     1      13.379   6.958   6.845  0.00  0.00    +0.116 A 
ATOM     33  H   UNL     1      13.367   7.999   3.159  0.00  0.00    +0.149 HD
BRANCH  20  19
ATOM     19  C   UNL     1       9.791   6.014   7.061  0.00  0.00    +0.005 C 
ATOM     25  C   UNL     1       8.803   5.724   5.889  0.00  0.00    +0.017 C 
ATOM     26  C   UNL     1       9.126   7.077   7.987  0.00  0.00    +0.017 C 
ATOM     27  C   UNL     1       9.834   4.696   7.905  0.00  0.00    +0.017 C 
ENDBRANCH  20  19
ENDBRANCH  14   7
BRANCH  13   6
ATOM      6  N   UNL     1      11.675   4.453  -0.485  0.00  0.00    -0.182 NA
ATOM     32  H   UNL     1      11.644   3.941   0.406  0.00  0.00    +0.148 HD
BRANCH   6   1
ATOM      1  S   UNL     1      12.417   3.770  -1.851  0.00  0.00    +0.060 S 
ATOM      4  O   UNL     1      12.009   4.498  -3.037  0.00  0.00    -0.153 OA
ATOM      5  O   UNL     1      12.267   2.328  -1.792  0.00  0.00    -0.153 OA
BRANCH   1  18
ATOM     18  C   UNL     1      14.123   4.122  -1.553  0.00  0.00    +0.123 A 
ATOM     21  C   UNL     1      14.696   3.912  -0.308  0.00  0.00    +0.078 A 
ATOM     22  C   UNL     1      14.872   4.616  -2.612  0.00  0.00    +0.030 A 
ATOM     28  C   UNL     1      16.047   4.202  -0.116  0.00  0.00    +0.021 A 
ATOM     29  C   UNL     1      16.223   4.907  -2.420  0.00  0.00    +0.002 A 
ATOM     30  C   UNL     1      16.810   4.699  -1.172  0.00  0.00    +0.001 A 
BRANCH  21  31
ATOM     10  N   UNL     1      13.334   2.990   1.694  0.00  0.00    -0.191 NA
ATOM     31  C   UNL     1      13.943   3.402   0.799  0.00  0.00    +0.101 C 
ENDBRANCH  21  31
ENDBRANCH   1  18
ENDBRANCH   6   1
ENDBRANCH  13   6
TORSDOF 6
ENDMDL
MODEL 10
REMARK VINA RESULT:      -6.2     20.863     22.906
REMARK  Name = 11913294
REMARK  9 active torsions:
REMARK  status: ('A' for Active; 'I' for Inactive)
REMARK    1  A    between atoms: S_1  and  N_6
REMARK    2  A    between atoms: S_1  and  C_18
REMARK    3  A    between atoms: N_6  and  C_13
REMARK    4  A    between atoms: N_7  and  C_14
REMARK    5  A    between atoms: C_19  and  C_20
REMARK    6  A    between atoms: C_19  and  C_25
REMARK    7  A    between atoms: C_19  and  C_26
REMARK    8  A    between atoms: C_19  and  C_27
REMARK    9  A    between atoms: C_21  and  C_31
REMARK                            x       y       z     vdW  Elec       q    Type
REMARK                         _______ _______ _______ _____ _____    ______ ____
ROOT
ATOM      2  O   UNL     1      -5.340 -12.271  11.854  0.00  0.00    -0.370 OA
ATOM      3  O   UNL     1      -3.528  -9.748  11.509  0.00  0.00    -0.370 OA
ATOM     11  C   UNL     1      -4.565 -10.098  12.440  0.00  0.00    +0.170 C 
ATOM     12  C   UNL     1      -5.619 -10.872  11.671  0.00  0.00    +0.171 C 
ATOM     13  C   UNL     1      -4.045 -11.089  13.453  0.00  0.00    +0.133 C 
ATOM     14  C   UNL     1      -5.392 -10.477  10.232  0.00  0.00    +0.130 C 
ATOM     15  C   UNL     1      -4.225 -12.418  12.745  0.00  0.00    +0.183 C 
ATOM     16  C   UNL     1      -3.903 -10.190  10.195  0.00  0.00    +0.185 C 
ENDROOT
BRANCH  14   7
ATOM      7  N   UNL     1      -6.141  -9.278   9.924  0.00  0.00    -0.306 N 
ATOM      8  N   UNL     1      -6.544  -9.963   7.717  0.00  0.00    -0.219 NA
ATOM      9  N   UNL     1      -7.388  -7.858   8.534  0.00  0.00    -0.223 NA
ATOM     17  C   UNL     1      -6.708  -9.025   8.688  0.00  0.00    +0.216 A 
ATOM     20  C   UNL     1      -7.111  -9.685   6.525  0.00  0.00    +0.052 A 
ATOM     23  C   UNL     1      -7.822  -8.530   6.263  0.00  0.00    +0.043 A 
ATOM     24  C   UNL     1      -7.928  -7.645   7.316  0.00  0.00    +0.116 A 
ATOM     33  H   UNL     1      -6.314  -8.597  10.656  0.00  0.00    +0.149 HD
BRANCH  20  19
ATOM     19  C   UNL     1      -6.942 -10.702   5.447  0.00  0.00    +0.005 C 
ATOM     25  C   UNL     1      -5.454 -11.155   5.325  0.00  0.00    +0.017 C 
ATOM     26  C   UNL     1      -7.377 -10.135   4.061  0.00  0.00    +0.017 C 
ATOM     27  C   UNL     1      -7.764 -12.020   5.634  0.00  0.00    +0.017 C 
ENDBRANCH  20  19
ENDBRANCH  14   7
BRANCH  13   6
ATOM      6  N   UNL     1      -4.895 -11.053  14.668  0.00  0.00    -0.182 NA
ATOM     32  H   UNL     1      -5.794 -10.559  14.607  0.00  0.00    +0.148 HD
BRANCH   6   1
ATOM      1  S   UNL     1      -4.230 -11.461  16.176  0.00  0.00    +0.060 S 
ATOM      4  O   UNL     1      -3.093 -10.604  16.451  0.00  0.00    -0.153 OA
ATOM      5  O   UNL     1      -4.091 -12.904  16.250  0.00  0.00    -0.153 OA
BRANCH   1  18
ATOM     18  C   UNL     1      -5.533 -11.011  17.282  0.00  0.00    +0.123 A 
ATOM     21  C   UNL     1      -5.419 -11.210  18.650  0.00  0.00    +0.078 A 
ATOM     22  C   UNL     1      -6.677 -10.448  16.734  0.00  0.00    +0.030 A 
ATOM     28  C   UNL     1      -6.471 -10.840  19.488  0.00  0.00    +0.021 A 
ATOM     29  C   UNL     1      -7.728 -10.078  17.572  0.00  0.00    +0.002 A 
ATOM     30  C   UNL     1      -7.625 -10.274  18.948  0.00  0.00    +0.001 A 
BRANCH  21  31
ATOM     10  N   UNL     1      -3.301 -12.256  19.714  0.00  0.00    -0.191 NA
ATOM     31  C   UNL     1      -4.248 -11.789  19.238  0.00  0.00    +0.101 C 
ENDBRANCH  21  31
ENDBRANCH   1  18
ENDBRANCH   6   1
ENDBRANCH  13   6
TORSDOF 6
ENDMDL
