MODEL 1
REMARK VINA RESULT:      -7.4      0.000      0.000
REMARK  Name = 45784230
REMARK  4 active torsions:
REMARK  status: ('A' for Active; 'I' for Inactive)
REMARK    1  A    between atoms: N_2  and  C_11
REMARK    2  A    between atoms: C_6  and  C_10
REMARK    3  A    between atoms: C_11  and  C_12
REMARK    4  A    between atoms: C_20  and  C_24
REMARK                            x       y       z     vdW  Elec       q    Type
REMARK                         _______ _______ _______ _____ _____    ______ ____
ROOT
ATOM      2  N   UNL     1      12.009   4.195   1.862  0.00  0.00    -0.297 NA
ATOM      6  C   UNL     1      10.451   5.174   3.317  0.00  0.00    +0.070 C 
ATOM      7  C   UNL     1      11.373   6.263   2.741  0.00  0.00    +0.028 C 
ATOM      8  C   UNL     1      11.175   3.854   3.017  0.00  0.00    +0.096 C 
ATOM      9  C   UNL     1      12.569   5.509   2.176  0.00  0.00    +0.085 C 
ENDROOT
BRANCH   6  10
ATOM      1  F   UNL     1       9.223   4.352  10.429  0.00  0.00    -0.205 F 
ATOM      3  N   UNL     1      10.207   4.292   5.654  0.00  0.00    -0.341 N 
ATOM      4  N   UNL     1       9.704   6.438   5.374  0.00  0.00    -0.232 NA
ATOM     10  C   UNL     1      10.111   5.339   4.780  0.00  0.00    +0.113 A 
ATOM     13  C   UNL     1       9.838   4.745   6.894  0.00  0.00    +0.069 A 
ATOM     14  C   UNL     1       9.528   6.088   6.693  0.00  0.00    +0.089 A 
ATOM     17  C   UNL     1       9.750   4.117   8.136  0.00  0.00    +0.066 A 
ATOM     18  C   UNL     1       9.104   6.864   7.785  0.00  0.00    +0.032 A 
ATOM     19  C   UNL     1       9.327   4.904   9.212  0.00  0.00    +0.125 A 
ATOM     21  C   UNL     1       9.009   6.253   9.041  0.00  0.00    +0.040 A 
ATOM     25  H   UNL     1      10.499   3.349   5.430  0.00  0.00    +0.167 HD
ENDBRANCH   6  10
BRANCH   2  11
ATOM     11  C   UNL     1      13.039   3.200   1.607  0.00  0.00    +0.119 C 
BRANCH  11  12
ATOM     12  C   UNL     1      13.965   3.622   0.497  0.00  0.00    -0.032 A 
ATOM     15  C   UNL     1      13.470   3.810  -0.793  0.00  0.00    +0.023 A 
ATOM     16  C   UNL     1      15.319   3.827   0.762  0.00  0.00    +0.005 A 
ATOM     20  C   UNL     1      14.330   4.202  -1.819  0.00  0.00    +0.052 A 
ATOM     22  C   UNL     1      16.179   4.221  -0.264  0.00  0.00    +0.002 A 
ATOM     23  C   UNL     1      15.683   4.408  -1.555  0.00  0.00    +0.019 A 
BRANCH  20  24
ATOM      5  N   UNL     1      13.413   4.552  -4.215  0.00  0.00    -0.191 NA
ATOM     24  C   UNL     1      13.824   4.396  -3.142  0.00  0.00    +0.099 C 
ENDBRANCH  20  24
ENDBRANCH  11  12
ENDBRANCH   2  11
TORSDOF 4
ENDMDL
MODEL 2
REMARK VINA RESULT:      -6.8     26.011     28.598
REMARK  Name = 45784230
REMARK  4 active torsions:
REMARK  status: ('A' for Active; 'I' for Inactive)
REMARK    1  A    between atoms: N_2  and  C_11
REMARK    2  A    between atoms: C_6  and  C_10
REMARK    3  A    between atoms: C_11  and  C_12
REMARK    4  A    between atoms: C_20  and  C_24
REMARK                            x       y       z     vdW  Elec       q    Type
REMARK                         _______ _______ _______ _____ _____    ______ ____
ROOT
ATOM      2  N   UNL     1      -9.451  -8.779  16.510  0.00  0.00    -0.297 NA
ATOM      6  C   UNL     1     -11.053  -7.071  16.377  0.00  0.00    +0.070 C 
ATOM      7  C   UNL     1     -11.688  -8.324  17.004  0.00  0.00    +0.028 C 
ATOM      8  C   UNL     1      -9.753  -7.574  15.734  0.00  0.00    +0.096 C 
ATOM      9  C   UNL     1     -10.736  -9.462  16.660  0.00  0.00    +0.085 C 
ENDROOT
BRANCH   6  10
ATOM      1  F   UNL     1     -13.886  -2.790  11.237  0.00  0.00    -0.205 F 
ATOM      3  N   UNL     1     -11.425  -5.412  14.531  0.00  0.00    -0.341 N 
ATOM      4  N   UNL     1     -13.243  -6.450  15.278  0.00  0.00    -0.232 NA
ATOM     10  C   UNL     1     -11.941  -6.327  15.406  0.00  0.00    +0.113 A 
ATOM     13  C   UNL     1     -12.463  -4.911  13.788  0.00  0.00    +0.069 A 
ATOM     14  C   UNL     1     -13.587  -5.575  14.274  0.00  0.00    +0.089 A 
ATOM     17  C   UNL     1     -12.515  -3.965  12.765  0.00  0.00    +0.066 A 
ATOM     18  C   UNL     1     -14.845  -5.289  13.717  0.00  0.00    +0.032 A 
ATOM     19  C   UNL     1     -13.775  -3.692  12.223  0.00  0.00    +0.125 A 
ATOM     21  C   UNL     1     -14.921  -4.341  12.689  0.00  0.00    +0.040 A 
ATOM     25  H   UNL     1     -10.452  -5.149  14.443  0.00  0.00    +0.167 HD
ENDBRANCH   6  10
BRANCH   2  11
ATOM     11  C   UNL     1      -8.449  -9.616  15.868  0.00  0.00    +0.119 C 
BRANCH  11  12
ATOM     12  C   UNL     1      -7.325  -9.966  16.807  0.00  0.00    -0.032 A 
ATOM     15  C   UNL     1      -6.025 -10.103  16.320  0.00  0.00    +0.023 A 
ATOM     16  C   UNL     1      -7.585 -10.152  18.164  0.00  0.00    +0.005 A 
ATOM     20  C   UNL     1      -4.985 -10.426  17.191  0.00  0.00    +0.052 A 
ATOM     22  C   UNL     1      -6.544 -10.474  19.036  0.00  0.00    +0.002 A 
ATOM     23  C   UNL     1      -5.244 -10.611  18.549  0.00  0.00    +0.019 A 
BRANCH  20  24
ATOM      5  N   UNL     1      -2.571 -10.681  16.292  0.00  0.00    -0.191 NA
ATOM     24  C   UNL     1      -3.652 -10.566  16.694  0.00  0.00    +0.099 C 
ENDBRANCH  20  24
ENDBRANCH  11  12
ENDBRANCH   2  11
TORSDOF 4
ENDMDL
MODEL 3
REMARK VINA RESULT:      -6.8     17.333     19.901
REMARK  Name = 45784230
REMARK  4 active torsions:
REMARK  status: ('A' for Active; 'I' for Inactive)
REMARK    1  A    between atoms: N_2  and  C_11
REMARK    2  A    between atoms: C_6  and  C_10
REMARK    3  A    between atoms: C_11  and  C_12
REMARK    4  A    between atoms: C_20  and  C_24
REMARK                            x       y       z     vdW  Elec       q    Type
REMARK                         _______ _______ _______ _____ _____    ______ ____
ROOT
ATOM      2  N   UNL     1      21.376   4.774  21.081  0.00  0.00    -0.297 NA
ATOM      6  C   UNL     1      19.732   6.360  20.551  0.00  0.00    +0.070 C 
ATOM      7  C   UNL     1      20.416   6.749  21.873  0.00  0.00    +0.028 C 
ATOM      8  C   UNL     1      20.127   4.894  20.326  0.00  0.00    +0.096 C 
ATOM      9  C   UNL     1      21.130   5.486  22.334  0.00  0.00    +0.085 C 
ENDROOT
BRANCH   6  10
ATOM      1  F   UNL     1      12.774   7.860  21.998  0.00  0.00    -0.205 F 
ATOM      3  N   UNL     1      17.562   7.018  21.626  0.00  0.00    -0.341 N 
ATOM      4  N   UNL     1      17.434   6.388  19.498  0.00  0.00    -0.232 NA
ATOM     10  C   UNL     1      18.237   6.578  20.521  0.00  0.00    +0.113 A 
ATOM     13  C   UNL     1      16.235   7.119  21.294  0.00  0.00    +0.069 A 
ATOM     14  C   UNL     1      16.182   6.719  19.961  0.00  0.00    +0.089 A 
ATOM     17  C   UNL     1      15.113   7.512  22.022  0.00  0.00    +0.066 A 
ATOM     18  C   UNL     1      14.942   6.706  19.300  0.00  0.00    +0.032 A 
ATOM     19  C   UNL     1      13.887   7.493  21.348  0.00  0.00    +0.125 A 
ATOM     21  C   UNL     1      13.801   7.097  20.011  0.00  0.00    +0.040 A 
ATOM     25  H   UNL     1      17.966   7.233  22.528  0.00  0.00    +0.167 HD
ENDBRANCH   6  10
BRANCH   2  11
ATOM     11  C   UNL     1      21.764   3.388  21.297  0.00  0.00    +0.119 C 
BRANCH  11  12
ATOM     12  C   UNL     1      23.223   3.161  21.002  0.00  0.00    -0.032 A 
ATOM     15  C   UNL     1      23.940   4.098  20.259  0.00  0.00    +0.023 A 
ATOM     16  C   UNL     1      23.857   2.012  21.474  0.00  0.00    +0.005 A 
ATOM     20  C   UNL     1      25.292   3.887  19.988  0.00  0.00    +0.052 A 
ATOM     22  C   UNL     1      25.210   1.801  21.204  0.00  0.00    +0.002 A 
ATOM     23  C   UNL     1      25.927   2.738  20.461  0.00  0.00    +0.019 A 
BRANCH  20  24
ATOM      5  N   UNL     1      26.626   5.627  18.611  0.00  0.00    -0.191 NA
ATOM     24  C   UNL     1      26.029   4.847  19.228  0.00  0.00    +0.099 C 
ENDBRANCH  20  24
ENDBRANCH  11  12
ENDBRANCH   2  11
TORSDOF 4
ENDMDL
MODEL 4
REMARK VINA RESULT:      -6.8     15.684     19.632
REMARK  Name = 45784230
REMARK  4 active torsions:
REMARK  status: ('A' for Active; 'I' for Inactive)
REMARK    1  A    between atoms: N_2  and  C_11
REMARK    2  A    between atoms: C_6  and  C_10
REMARK    3  A    between atoms: C_11  and  C_12
REMARK    4  A    between atoms: C_20  and  C_24
REMARK                            x       y       z     vdW  Elec       q    Type
REMARK                         _______ _______ _______ _____ _____    ______ ____
ROOT
ATOM      2  N   UNL     1      15.795   7.638  20.547  0.00  0.00    -0.297 NA
ATOM      6  C   UNL     1      17.980   6.923  20.080  0.00  0.00    +0.070 C 
ATOM      7  C   UNL     1      16.973   5.989  19.387  0.00  0.00    +0.028 C 
ATOM      8  C   UNL     1      17.146   7.697  21.110  0.00  0.00    +0.096 C 
ATOM      9  C   UNL     1      15.643   6.262  20.076  0.00  0.00    +0.085 C 
ENDROOT
BRANCH   6  10
ATOM      1  F   UNL     1      23.520   2.529  21.741  0.00  0.00    -0.205 F 
ATOM      3  N   UNL     1      19.701   5.098  20.131  0.00  0.00    -0.341 N 
ATOM      4  N   UNL     1      19.825   6.589  21.774  0.00  0.00    -0.232 NA
ATOM     10  C   UNL     1      19.174   6.228  20.692  0.00  0.00    +0.113 A 
ATOM     13  C   UNL     1      20.764   4.704  20.903  0.00  0.00    +0.069 A 
ATOM     14  C   UNL     1      20.820   5.650  21.922  0.00  0.00    +0.089 A 
ATOM     17  C   UNL     1      21.653   3.634  20.801  0.00  0.00    +0.066 A 
ATOM     18  C   UNL     1      21.817   5.539  22.906  0.00  0.00    +0.032 A 
ATOM     19  C   UNL     1      22.639   3.538  21.788  0.00  0.00    +0.125 A 
ATOM     21  C   UNL     1      22.721   4.472  22.823  0.00  0.00    +0.040 A 
ATOM     25  H   UNL     1      19.370   4.633  19.296  0.00  0.00    +0.167 HD
ENDBRANCH   6  10
BRANCH   2  11
ATOM     11  C   UNL     1      14.773   8.011  21.513  0.00  0.00    +0.119 C 
BRANCH  11  12
ATOM     12  C   UNL     1      13.426   8.189  20.864  0.00  0.00    -0.032 A 
ATOM     15  C   UNL     1      13.335   8.388  19.486  0.00  0.00    +0.023 A 
ATOM     16  C   UNL     1      12.269   8.154  21.642  0.00  0.00    +0.005 A 
ATOM     20  C   UNL     1      12.086   8.552  18.887  0.00  0.00    +0.052 A 
ATOM     22  C   UNL     1      11.020   8.316  21.043  0.00  0.00    +0.002 A 
ATOM     23  C   UNL     1      10.928   8.516  19.665  0.00  0.00    +0.019 A 
BRANCH  20  24
ATOM      5  N   UNL     1      11.911   8.921  16.330  0.00  0.00    -0.191 NA
ATOM     24  C   UNL     1      11.990   8.756  17.476  0.00  0.00    +0.099 C 
ENDBRANCH  20  24
ENDBRANCH  11  12
ENDBRANCH   2  11
TORSDOF 4
ENDMDL
MODEL 5
REMARK VINA RESULT:      -6.8      5.668      6.452
REMARK  Name = 45784230
REMARK  4 active torsions:
REMARK  status: ('A' for Active; 'I' for Inactive)
REMARK    1  A    between atoms: N_2  and  C_11
REMARK    2  A    between atoms: C_6  and  C_10
REMARK    3  A    between atoms: C_11  and  C_12
REMARK    4  A    between atoms: C_20  and  C_24
REMARK                            x       y       z     vdW  Elec       q    Type
REMARK                         _______ _______ _______ _____ _____    ______ ____
ROOT
ATOM      2  N   UNL     1      16.283   8.540   5.169  0.00  0.00    -0.297 NA
ATOM      6  C   UNL     1      14.257   7.361   5.232  0.00  0.00    +0.070 C 
ATOM      7  C   UNL     1      14.252   8.329   4.036  0.00  0.00    +0.028 C 
ATOM      8  C   UNL     1      15.411   7.845   6.119  0.00  0.00    +0.096 C 
ATOM      9  C   UNL     1      15.376   9.315   4.323  0.00  0.00    +0.085 C 
ENDROOT
BRANCH   6  10
ATOM      1  F   UNL     1       8.637   5.523   9.452  0.00  0.00    -0.205 F 
ATOM      3  N   UNL     1      12.697   6.242   6.848  0.00  0.00    -0.341 N 
ATOM      4  N   UNL     1      11.928   8.093   5.888  0.00  0.00    -0.232 NA
ATOM     10  C   UNL     1      12.944   7.264   5.974  0.00  0.00    +0.113 A 
ATOM     13  C   UNL     1      11.437   6.423   7.360  0.00  0.00    +0.069 A 
ATOM     14  C   UNL     1      10.979   7.585   6.745  0.00  0.00    +0.089 A 
ATOM     17  C   UNL     1      10.684   5.694   8.279  0.00  0.00    +0.066 A 
ATOM     18  C   UNL     1       9.694   8.062   7.054  0.00  0.00    +0.032 A 
ATOM     19  C   UNL     1       9.407   6.183   8.576  0.00  0.00    +0.125 A 
ATOM     21  C   UNL     1       8.919   7.346   7.974  0.00  0.00    +0.040 A 
ATOM     25  H   UNL     1      13.327   5.485   7.079  0.00  0.00    +0.167 HD
ENDBRANCH   6  10
BRANCH   2  11
ATOM     11  C   UNL     1      17.273   9.375   5.832  0.00  0.00    +0.119 C 
BRANCH  11  12
ATOM     12  C   UNL     1      18.653   8.778   5.755  0.00  0.00    -0.032 A 
ATOM     15  C   UNL     1      19.159   8.345   4.530  0.00  0.00    +0.023 A 
ATOM     16  C   UNL     1      19.425   8.659   6.910  0.00  0.00    +0.005 A 
ATOM     20  C   UNL     1      20.439   7.793   4.460  0.00  0.00    +0.052 A 
ATOM     22  C   UNL     1      20.705   8.108   6.841  0.00  0.00    +0.002 A 
ATOM     23  C   UNL     1      21.211   7.675   5.616  0.00  0.00    +0.019 A 
BRANCH  20  24
ATOM      5  N   UNL     1      21.383   6.990   2.187  0.00  0.00    -0.191 NA
ATOM     24  C   UNL     1      20.960   7.349   3.205  0.00  0.00    +0.099 C 
ENDBRANCH  20  24
ENDBRANCH  11  12
ENDBRANCH   2  11
TORSDOF 4
ENDMDL
MODEL 6
REMARK VINA RESULT:      -6.7     22.570     25.188
REMARK  Name = 45784230
REMARK  4 active torsions:
REMARK  status: ('A' for Active; 'I' for Inactive)
REMARK    1  A    between atoms: N_2  and  C_11
REMARK    2  A    between atoms: C_6  and  C_10
REMARK    3  A    between atoms: C_11  and  C_12
REMARK    4  A    between atoms: C_20  and  C_24
REMARK                            x       y       z     vdW  Elec       q    Type
REMARK                         _______ _______ _______ _____ _____    ______ ____
ROOT
ATOM      2  N   UNL     1      -2.233 -11.193  13.028  0.00  0.00    -0.297 NA
ATOM      6  C   UNL     1      -2.808 -10.397  15.158  0.00  0.00    +0.070 C 
ATOM      7  C   UNL     1      -1.511 -11.220  15.249  0.00  0.00    +0.028 C 
ATOM      8  C   UNL     1      -3.406 -10.764  13.793  0.00  0.00    +0.096 C 
ATOM      9  C   UNL     1      -1.460 -12.020  13.954  0.00  0.00    +0.085 C 
ENDROOT
BRANCH   6  10
ATOM      1  F   UNL     1      -8.464 -10.472  19.715  0.00  0.00    -0.205 F 
ATOM      3  N   UNL     1      -5.027 -10.061  16.281  0.00  0.00    -0.341 N 
ATOM      4  N   UNL     1      -3.559 -11.304  17.395  0.00  0.00    -0.232 NA
ATOM     10  C   UNL     1      -3.775 -10.610  16.300  0.00  0.00    +0.113 A 
ATOM     13  C   UNL     1      -5.662 -10.426  17.441  0.00  0.00    +0.069 A 
ATOM     14  C   UNL     1      -4.725 -11.201  18.119  0.00  0.00    +0.089 A 
ATOM     17  C   UNL     1      -6.935 -10.153  17.940  0.00  0.00    +0.066 A 
ATOM     18  C   UNL     1      -5.062 -11.744  19.370  0.00  0.00    +0.032 A 
ATOM     19  C   UNL     1      -7.254 -10.701  19.186  0.00  0.00    +0.125 A 
ATOM     21  C   UNL     1      -6.335 -11.483  19.891  0.00  0.00    +0.040 A 
ATOM     25  H   UNL     1      -5.419  -9.488  15.546  0.00  0.00    +0.167 HD
ENDBRANCH   6  10
BRANCH   2  11
ATOM     11  C   UNL     1      -2.592 -11.907  11.813  0.00  0.00    +0.119 C 
BRANCH  11  12
ATOM     12  C   UNL     1      -3.272 -11.009  10.814  0.00  0.00    -0.032 A 
ATOM     15  C   UNL     1      -4.375 -11.472  10.095  0.00  0.00    +0.023 A 
ATOM     16  C   UNL     1      -2.799  -9.714  10.608  0.00  0.00    +0.005 A 
ATOM     20  C   UNL     1      -5.004 -10.638   9.171  0.00  0.00    +0.052 A 
ATOM     22  C   UNL     1      -3.429  -8.879   9.685  0.00  0.00    +0.002 A 
ATOM     23  C   UNL     1      -4.532  -9.342   8.966  0.00  0.00    +0.019 A 
BRANCH  20  24
ATOM      5  N   UNL     1      -7.051 -11.494   7.836  0.00  0.00    -0.191 NA
ATOM     24  C   UNL     1      -6.134 -11.110   8.434  0.00  0.00    +0.099 C 
ENDBRANCH  20  24
ENDBRANCH  11  12
ENDBRANCH   2  11
TORSDOF 4
ENDMDL
MODEL 7
REMARK VINA RESULT:      -6.7     24.353     27.970
REMARK  Name = 45784230
REMARK  4 active torsions:
REMARK  status: ('A' for Active; 'I' for Inactive)
REMARK    1  A    between atoms: N_2  and  C_11
REMARK    2  A    between atoms: C_6  and  C_10
REMARK    3  A    between atoms: C_11  and  C_12
REMARK    4  A    between atoms: C_20  and  C_24
REMARK                            x       y       z     vdW  Elec       q    Type
REMARK                         _______ _______ _______ _____ _____    ______ ____
ROOT
ATOM      2  N   UNL     1      -4.870 -11.352  17.595  0.00  0.00    -0.297 NA
ATOM      6  C   UNL     1      -6.619 -10.346  18.790  0.00  0.00    +0.070 C 
ATOM      7  C   UNL     1      -5.837 -11.292  19.719  0.00  0.00    +0.028 C 
ATOM      8  C   UNL     1      -6.186 -10.747  17.374  0.00  0.00    +0.096 C 
ATOM      9  C   UNL     1      -5.034 -12.186  18.785  0.00  0.00    +0.085 C 
ENDROOT
BRANCH   6  10
ATOM      1  F   UNL     1     -13.804  -9.331  18.458  0.00  0.00    -0.205 F 
ATOM      3  N   UNL     1      -8.941  -9.585  18.216  0.00  0.00    -0.341 N 
ATOM      4  N   UNL     1      -8.793 -11.100  19.836  0.00  0.00    -0.232 NA
ATOM     10  C   UNL     1      -8.119 -10.371  18.976  0.00  0.00    +0.113 A 
ATOM     13  C   UNL     1     -10.232  -9.825  18.612  0.00  0.00    +0.069 A 
ATOM     14  C   UNL     1     -10.113 -10.774  19.624  0.00  0.00    +0.089 A 
ATOM     17  C   UNL     1     -11.456  -9.309  18.185  0.00  0.00    +0.066 A 
ATOM     18  C   UNL     1     -11.273 -11.248  20.258  0.00  0.00    +0.032 A 
ATOM     19  C   UNL     1     -12.601  -9.792  18.827  0.00  0.00    +0.125 A 
ATOM     21  C   UNL     1     -12.513 -10.744  19.846  0.00  0.00    +0.040 A 
ATOM     25  H   UNL     1      -8.652  -8.942  17.491  0.00  0.00    +0.167 HD
ENDBRANCH   6  10
BRANCH   2  11
ATOM     11  C   UNL     1      -4.408 -12.113  16.444  0.00  0.00    +0.119 C 
BRANCH  11  12
ATOM     12  C   UNL     1      -3.349 -11.372  15.670  0.00  0.00    -0.032 A 
ATOM     15  C   UNL     1      -3.470 -11.221  14.288  0.00  0.00    +0.023 A 
ATOM     16  C   UNL     1      -2.248 -10.836  16.336  0.00  0.00    +0.005 A 
ATOM     20  C   UNL     1      -2.489 -10.534  13.574  0.00  0.00    +0.052 A 
ATOM     22  C   UNL     1      -1.267 -10.147  15.622  0.00  0.00    +0.002 A 
ATOM     23  C   UNL     1      -1.388  -9.997  14.240  0.00  0.00    +0.019 A 
BRANCH  20  24
ATOM      5  N   UNL     1      -2.711 -10.251  11.010  0.00  0.00    -0.191 NA
ATOM     24  C   UNL     1      -2.612 -10.377  12.158  0.00  0.00    +0.099 C 
ENDBRANCH  20  24
ENDBRANCH  11  12
ENDBRANCH   2  11
TORSDOF 4
ENDMDL
MODEL 8
REMARK VINA RESULT:      -6.6     17.284     20.368
REMARK  Name = 45784230
REMARK  4 active torsions:
REMARK  status: ('A' for Active; 'I' for Inactive)
REMARK    1  A    between atoms: N_2  and  C_11
REMARK    2  A    between atoms: C_6  and  C_10
REMARK    3  A    between atoms: C_11  and  C_12
REMARK    4  A    between atoms: C_20  and  C_24
REMARK                            x       y       z     vdW  Elec       q    Type
REMARK                         _______ _______ _______ _____ _____    ______ ____
ROOT
ATOM      2  N   UNL     1      21.411   4.681  21.177  0.00  0.00    -0.297 NA
ATOM      6  C   UNL     1      19.800   6.251  20.512  0.00  0.00    +0.070 C 
ATOM      7  C   UNL     1      20.507   6.746  21.786  0.00  0.00    +0.028 C 
ATOM      8  C   UNL     1      20.157   4.761  20.425  0.00  0.00    +0.096 C 
ATOM      9  C   UNL     1      21.195   5.515  22.359  0.00  0.00    +0.085 C 
ENDROOT
BRANCH   6  10
ATOM      1  F   UNL     1      12.857   7.838  21.940  0.00  0.00    -0.205 F 
ATOM      3  N   UNL     1      17.631   6.909  21.589  0.00  0.00    -0.341 N 
ATOM      4  N   UNL     1      17.517   6.375  19.434  0.00  0.00    -0.232 NA
ATOM     10  C   UNL     1      18.310   6.503  20.474  0.00  0.00    +0.113 A 
ATOM     13  C   UNL     1      16.311   7.053  21.245  0.00  0.00    +0.069 A 
ATOM     14  C   UNL     1      16.266   6.714  19.896  0.00  0.00    +0.089 A 
ATOM     17  C   UNL     1      15.187   7.438  21.976  0.00  0.00    +0.066 A 
ATOM     18  C   UNL     1      15.036   6.757  19.219  0.00  0.00    +0.032 A 
ATOM     19  C   UNL     1      13.970   7.475  21.288  0.00  0.00    +0.125 A 
ATOM     21  C   UNL     1      13.894   7.141  19.933  0.00  0.00    +0.040 A 
ATOM     25  H   UNL     1      18.027   7.075  22.505  0.00  0.00    +0.167 HD
ENDBRANCH   6  10
BRANCH   2  11
ATOM     11  C   UNL     1      21.767   3.313  21.520  0.00  0.00    +0.119 C 
BRANCH  11  12
ATOM     12  C   UNL     1      23.226   3.035  21.276  0.00  0.00    -0.032 A 
ATOM     15  C   UNL     1      23.810   1.872  21.779  0.00  0.00    +0.023 A 
ATOM     16  C   UNL     1      23.994   3.941  20.545  0.00  0.00    +0.005 A 
ATOM     20  C   UNL     1      25.162   1.615  21.551  0.00  0.00    +0.052 A 
ATOM     22  C   UNL     1      25.346   3.684  20.315  0.00  0.00    +0.002 A 
ATOM     23  C   UNL     1      25.930   2.521  20.819  0.00  0.00    +0.019 A 
BRANCH  20  24
ATOM      5  N   UNL     1      26.248  -0.542  22.482  0.00  0.00    -0.191 NA
ATOM     24  C   UNL     1      25.761   0.424  22.064  0.00  0.00    +0.099 C 
ENDBRANCH  20  24
ENDBRANCH  11  12
ENDBRANCH   2  11
TORSDOF 4
ENDMDL
MODEL 9
REMARK VINA RESULT:      -6.6     17.766     20.432
REMARK  Name = 45784230
REMARK  4 active torsions:
REMARK  status: ('A' for Active; 'I' for Inactive)
REMARK    1  A    between atoms: N_2  and  C_11
REMARK    2  A    between atoms: C_6  and  C_10
REMARK    3  A    between atoms: C_11  and  C_12
REMARK    4  A    between atoms: C_20  and  C_24
REMARK                            x       y       z     vdW  Elec       q    Type
REMARK                         _______ _______ _______ _____ _____    ______ ____
ROOT
ATOM      2  N   UNL     1      17.402   7.599  20.577  0.00  0.00    -0.297 NA
ATOM      6  C   UNL     1      19.457   6.518  20.248  0.00  0.00    +0.070 C 
ATOM      7  C   UNL     1      18.362   5.800  19.439  0.00  0.00    +0.028 C 
ATOM      8  C   UNL     1      18.690   7.398  21.244  0.00  0.00    +0.096 C 
ATOM      9  C   UNL     1      17.048   6.287  20.036  0.00  0.00    +0.085 C 
ENDROOT
BRANCH   6  10
ATOM      1  F   UNL     1      24.229   1.328  21.997  0.00  0.00    -0.205 F 
ATOM      3  N   UNL     1      20.996   4.536  20.254  0.00  0.00    -0.341 N 
ATOM      4  N   UNL     1      20.907   5.696  22.148  0.00  0.00    -0.232 NA
ATOM     10  C   UNL     1      20.454   5.601  20.918  0.00  0.00    +0.113 A 
ATOM     13  C   UNL     1      21.856   3.901  21.113  0.00  0.00    +0.069 A 
ATOM     14  C   UNL     1      21.782   4.644  22.288  0.00  0.00    +0.089 A 
ATOM     17  C   UNL     1      22.667   2.775  20.968  0.00  0.00    +0.066 A 
ATOM     18  C   UNL     1      22.557   4.255  23.394  0.00  0.00    +0.032 A 
ATOM     19  C   UNL     1      23.432   2.402  22.079  0.00  0.00    +0.125 A 
ATOM     21  C   UNL     1      23.379   3.128  23.271  0.00  0.00    +0.040 A 
ATOM     25  H   UNL     1      20.801   4.262  19.300  0.00  0.00    +0.167 HD
ENDBRANCH   6  10
BRANCH   2  11
ATOM     11  C   UNL     1      16.385   8.121  21.478  0.00  0.00    +0.119 C 
BRANCH  11  12
ATOM     12  C   UNL     1      15.028   8.164  20.827  0.00  0.00    -0.032 A 
ATOM     15  C   UNL     1      14.013   7.315  21.270  0.00  0.00    +0.023 A 
ATOM     16  C   UNL     1      14.786   9.055  19.782  0.00  0.00    +0.005 A 
ATOM     20  C   UNL     1      12.756   7.358  20.666  0.00  0.00    +0.052 A 
ATOM     22  C   UNL     1      13.528   9.098  19.179  0.00  0.00    +0.002 A 
ATOM     23  C   UNL     1      12.514   8.249  19.622  0.00  0.00    +0.019 A 
BRANCH  20  24
ATOM      5  N   UNL     1      10.871   5.785  21.488  0.00  0.00    -0.191 NA
ATOM     24  C   UNL     1      11.715   6.490  21.119  0.00  0.00    +0.099 C 
ENDBRANCH  20  24
ENDBRANCH  11  12
ENDBRANCH   2  11
TORSDOF 4
ENDMDL
MODEL 10
REMARK VINA RESULT:      -6.6     22.873     26.170
REMARK  Name = 45784230
REMARK  4 active torsions:
REMARK  status: ('A' for Active; 'I' for Inactive)
REMARK    1  A    between atoms: N_2  and  C_11
REMARK    2  A    between atoms: C_6  and  C_10
REMARK    3  A    between atoms: C_11  and  C_12
REMARK    4  A    between atoms: C_20  and  C_24
REMARK                            x       y       z     vdW  Elec       q    Type
REMARK                         _______ _______ _______ _____ _____    ______ ____
ROOT
ATOM      2  N   UNL     1      -3.998 -10.776  14.798  0.00  0.00    -0.297 NA
ATOM      6  C   UNL     1      -5.369  -9.758  16.406  0.00  0.00    +0.070 C 
ATOM      7  C   UNL     1      -4.309 -10.626  17.107  0.00  0.00    +0.028 C 
ATOM      8  C   UNL     1      -5.347 -10.225  14.944  0.00  0.00    +0.096 C 
ATOM      9  C   UNL     1      -3.771 -11.546  16.020  0.00  0.00    +0.085 C 
ENDROOT
BRANCH   6  10
ATOM      1  F   UNL     1     -12.340  -8.868  18.243  0.00  0.00    -0.205 F 
ATOM      3  N   UNL     1      -7.762  -9.020  16.573  0.00  0.00    -0.341 N 
ATOM      4  N   UNL     1      -7.134 -10.594  18.011  0.00  0.00    -0.232 NA
ATOM     10  C   UNL     1      -6.748  -9.819  17.023  0.00  0.00    +0.113 A 
ATOM     13  C   UNL     1      -8.878  -9.299  17.319  0.00  0.00    +0.069 A 
ATOM     14  C   UNL     1      -8.460 -10.284  18.210  0.00  0.00    +0.089 A 
ATOM     17  C   UNL     1     -10.176  -8.791  17.293  0.00  0.00    +0.066 A 
ATOM     18  C   UNL     1      -9.379 -10.804  19.136  0.00  0.00    +0.032 A 
ATOM     19  C   UNL     1     -11.079  -9.319  18.222  0.00  0.00    +0.125 A 
ATOM     21  C   UNL     1     -10.689 -10.309  19.128  0.00  0.00    +0.040 A 
ATOM     25  H   UNL     1      -7.704  -8.344  15.823  0.00  0.00    +0.167 HD
ENDBRANCH   6  10
BRANCH   2  11
ATOM     11  C   UNL     1      -3.856 -11.585  13.597  0.00  0.00    +0.119 C 
BRANCH  11  12
ATOM     12  C   UNL     1      -3.529 -10.745  12.390  0.00  0.00    -0.032 A 
ATOM     15  C   UNL     1      -4.532 -10.405  11.483  0.00  0.00    +0.023 A 
ATOM     16  C   UNL     1      -2.221 -10.308  12.181  0.00  0.00    +0.005 A 
ATOM     20  C   UNL     1      -4.227  -9.627  10.367  0.00  0.00    +0.052 A 
ATOM     22  C   UNL     1      -1.916  -9.529  11.065  0.00  0.00    +0.002 A 
ATOM     23  C   UNL     1      -2.920  -9.188  10.158  0.00  0.00    +0.019 A 
BRANCH  20  24
ATOM      5  N   UNL     1      -6.088  -8.992   8.682  0.00  0.00    -0.191 NA
ATOM     24  C   UNL     1      -5.255  -9.276   9.437  0.00  0.00    +0.099 C 
ENDBRANCH  20  24
ENDBRANCH  11  12
ENDBRANCH   2  11
TORSDOF 4
ENDMDL
