REMARK  Name = 38028470
REMARK  13 active torsions:
REMARK  status: ('A' for Active; 'I' for Inactive)
REMARK    1  A    between atoms: O_3  and  C_32
REMARK    2  A    between atoms: O_3  and  C_34
REMARK    3  A    between atoms: N_4  and  C_15
REMARK    4  A    between atoms: N_5  and  C_22
REMARK    5  A    between atoms: N_6  and  C_24
REMARK    6  A    between atoms: C_8  and  C_12
REMARK    7  A    between atoms: C_9  and  C_15
REMARK    8  A    between atoms: C_11  and  C_16
REMARK    9  A    between atoms: C_12  and  C_17
REMARK   10  A    between atoms: C_12  and  C_18
REMARK   11  A    between atoms: C_13  and  C_19
REMARK   12  A    between atoms: C_16  and  C_20
REMARK   13  A    between atoms: C_22  and  C_23
REMARK                            x       y       z     vdW  Elec       q    Type
REMARK                         _______ _______ _______ _____ _____    ______ ____
ROOT
ATOM      8  C   UNL     1      -2.237   1.294  -1.071  0.00  0.00    +0.000 C 
ATOM      9  C   UNL     1      -2.212   2.842  -1.121  0.00  0.00    +0.032 C 
ATOM     10  C   UNL     1      -3.422   0.803  -0.225  0.00  0.00    +0.012 C 
ATOM     11  C   UNL     1      -3.367   1.337   1.219  0.00  0.00    +0.023 C 
ATOM     13  C   UNL     1      -3.077   2.824   1.258  0.00  0.00    -0.073 C 
ATOM     14  C   UNL     1      -2.573   3.482   0.199  0.00  0.00    -0.022 C 
ATOM     19  C   UNL     1      -3.421   3.547   2.531  0.00  0.00    +0.039 C 
ENDROOT
BRANCH   8  12
ATOM     12  C   UNL     1      -2.312   0.680  -2.473  0.00  0.00    -0.013 C 
ATOM     17  C   UNL     1      -1.747  -0.736  -2.465  0.00  0.00    +0.007 C 
ATOM     18  C   UNL     1      -3.750   0.686  -2.980  0.00  0.00    +0.007 C 
ENDBRANCH   8  12
BRANCH   9  15
ATOM     15  C   UNL     1      -0.845   3.358  -1.582  0.00  0.00    +0.113 C 
BRANCH  15   4
ATOM      2  O   UNL     1       1.495   1.764  -2.019  0.00  0.00    -0.253 OA
ATOM      4  N   UNL     1       0.167   3.044  -0.622  0.00  0.00    -0.299 N 
ATOM      6  N   UNL     1       2.105   2.116   0.221  0.00  0.00    -0.269 N 
ATOM     21  C   UNL     1       1.293   2.252  -0.909  0.00  0.00    +0.304 C 
ATOM     35  H   UNL     1       0.107   3.467   0.299  0.00  0.00    +0.150 HD
ATOM     37  H   UNL     1       1.791   2.584   1.067  0.00  0.00    +0.156 HD
BRANCH   6  24
ATOM     24  C   UNL     1       3.320   1.400   0.335  0.00  0.00    +0.035 A 
ATOM     27  C   UNL     1       4.001   1.373   1.552  0.00  0.00    +0.027 A 
ATOM     28  C   UNL     1       3.836   0.721  -0.768  0.00  0.00    +0.027 A 
ATOM     30  C   UNL     1       5.198   0.667   1.666  0.00  0.00    +0.047 A 
ATOM     31  C   UNL     1       5.034   0.014  -0.654  0.00  0.00    +0.047 A 
ATOM     32  C   UNL     1       5.715  -0.013   0.563  0.00  0.00    +0.120 A 
BRANCH  32   3
ATOM      3  O   UNL     1       6.883  -0.702   0.674  0.00  0.00    -0.495 OA
ATOM     34  C   UNL     1       7.354  -1.374  -0.493  0.00  0.00    +0.277 C 
ENDBRANCH  32   3
ENDBRANCH   6  24
ENDBRANCH  15   4
ENDBRANCH   9  15
BRANCH  11  16
ATOM     16  C   UNL     1      -2.350   0.557   2.058  0.00  0.00    +0.103 C 
BRANCH  16  20
ATOM      1  O   UNL     1      -3.721  -1.430   1.891  0.00  0.00    -0.276 OA
ATOM      5  N   UNL     1      -1.421  -1.644   2.150  0.00  0.00    -0.311 N 
ATOM     20  C   UNL     1      -2.605  -0.933   2.020  0.00  0.00    +0.214 C 
ATOM     36  H   UNL     1      -0.544  -1.143   2.249  0.00  0.00    +0.149 HD
BRANCH   5  22
ATOM     22  C   UNL     1      -1.364  -3.088   2.149  0.00  0.00    +0.141 C 
BRANCH  22  23
ATOM      7  N   UNL     1       0.138  -3.769  -1.254  0.00  0.00    -0.263 NA
ATOM     23  C   UNL     1      -1.185  -3.643   0.766  0.00  0.00    -0.012 A 
ATOM     25  C   UNL     1      -2.123  -4.508   0.214  0.00  0.00    +0.008 A 
ATOM     26  C   UNL     1      -0.082  -3.307  -0.003  0.00  0.00    +0.115 A 
ATOM     29  C   UNL     1      -1.932  -5.005  -1.071  0.00  0.00    +0.020 A 
ATOM     33  C   UNL     1      -0.795  -4.608  -1.757  0.00  0.00    +0.111 A 
ENDBRANCH  22  23
ENDBRANCH   5  22
ENDBRANCH  16  20
ENDBRANCH  11  16
TORSDOF 9
