REMARK  Name = 75536761
REMARK  7 active torsions:
REMARK  status: ('A' for Active; 'I' for Inactive)
REMARK    1  A    between atoms: O_2  and  C_11
REMARK    2  A    between atoms: N_5  and  C_10
REMARK    3  A    between atoms: N_5  and  C_15
REMARK    4  A    between atoms: N_6  and  C_14
REMARK    5  A    between atoms: N_8  and  C_23
REMARK    6  A    between atoms: C_12  and  C_14
REMARK    7  A    between atoms: C_15  and  C_17
REMARK                            x       y       z     vdW  Elec       q    Type
REMARK                         _______ _______ _______ _____ _____    ______ ____
ROOT
ATOM      1  O   UNL     1      -0.231   0.874  -0.227  0.00  0.00    -0.371 OA
ATOM     10  C   UNL     1       1.788  -0.373  -0.345  0.00  0.00    +0.111 C 
ATOM     11  C   UNL     1       0.836  -1.061   0.617  0.00  0.00    +0.164 C 
ATOM     12  C   UNL     1      -0.500  -0.479   0.173  0.00  0.00    +0.165 C 
ATOM     13  C   UNL     1       1.188   1.022  -0.415  0.00  0.00    +0.181 C 
ENDROOT
BRANCH  11   2
ATOM      2  O   UNL     1       0.863  -2.470   0.497  0.00  0.00    -0.388 OA
ATOM     27  H   UNL     1       0.665  -2.703  -0.425  0.00  0.00    +0.210 HD
ENDBRANCH  11   2
BRANCH  10   5
ATOM      5  N   UNL     1       3.170  -0.373   0.104  0.00  0.00    -0.302 NA
ATOM     25  H   UNL     1       3.413  -1.305   0.441  0.00  0.00    +0.123 HD
BRANCH   5  15
ATOM     15  C   UNL     1       4.074  -0.014  -0.983  0.00  0.00    +0.156 C 
BRANCH  15  17
ATOM      8  N   UNL     1       6.026   1.033   0.212  0.00  0.00    -0.336 N 
ATOM      9  N   UNL     1       6.414  -0.914  -0.784  0.00  0.00    -0.239 NA
ATOM     17  C   UNL     1       5.511   0.008  -0.532  0.00  0.00    +0.123 A 
ATOM     22  C   UNL     1       7.341   0.747   0.449  0.00  0.00    +0.106 A 
ATOM     23  C   UNL     1       5.325   2.209   0.671  0.00  0.00    +0.150 C 
ATOM     24  C   UNL     1       7.557  -0.459  -0.176  0.00  0.00    +0.130 A 
ENDBRANCH  15  17
ENDBRANCH   5  15
ENDBRANCH  10   5
BRANCH  12  14
ATOM     14  C   UNL     1      -1.553  -0.491   1.267  0.00  0.00    +0.140 C 
BRANCH  14   6
ATOM      3  O   UNL     1      -7.523   1.115  -0.454  0.00  0.00    -0.377 OA
ATOM      4  O   UNL     1      -3.654  -1.925   0.063  0.00  0.00    -0.253 OA
ATOM      6  N   UNL     1      -2.802   0.072   0.806  0.00  0.00    -0.297 N 
ATOM      7  N   UNL     1      -4.947  -0.015  -0.184  0.00  0.00    -0.281 N 
ATOM     16  C   UNL     1      -3.793  -0.707   0.219  0.00  0.00    +0.302 C 
ATOM     18  C   UNL     1      -6.040  -0.756  -0.818  0.00  0.00    +0.137 C 
ATOM     19  C   UNL     1      -5.131   1.444  -0.174  0.00  0.00    +0.137 C 
ATOM     20  C   UNL     1      -7.389  -0.297  -0.288  0.00  0.00    +0.179 C 
ATOM     21  C   UNL     1      -6.532   1.810   0.303  0.00  0.00    +0.179 C 
ATOM     26  H   UNL     1      -2.906   1.070   0.918  0.00  0.00    +0.150 HD
ENDBRANCH  14   6
ENDBRANCH  12  14
TORSDOF 6
