MODEL 1
REMARK VINA RESULT:      -7.4      0.000      0.000
REMARK  Name = 45360937
REMARK  10 active torsions:
REMARK  status: ('A' for Active; 'I' for Inactive)
REMARK    1  A    between atoms: O_3  and  C_31
REMARK    2  A    between atoms: O_3  and  C_32
REMARK    3  A    between atoms: N_4  and  C_17
REMARK    4  A    between atoms: N_5  and  C_19
REMARK    5  A    between atoms: N_9  and  C_25
REMARK    6  A    between atoms: C_14  and  C_18
REMARK    7  A    between atoms: C_17  and  C_21
REMARK    8  A    between atoms: C_18  and  C_20
REMARK    9  A    between atoms: C_20  and  C_22
REMARK   10  A    between atoms: C_25  and  C_26
REMARK                            x       y       z     vdW  Elec       q    Type
REMARK                         _______ _______ _______ _____ _____    ______ ____
ROOT
ATOM      1  O   UNL     1      14.205  10.022  22.297  0.00  0.00    -0.274 OA
ATOM      4  N   UNL     1      11.827   9.052  21.461  0.00  0.00    -0.283 NA
ATOM      5  N   UNL     1      14.393   7.527  19.344  0.00  0.00    -0.296 NA
ATOM      6  N   UNL     1      15.336   8.052  22.019  0.00  0.00    -0.312 N 
ATOM     10  C   UNL     1      13.063   7.567  19.990  0.00  0.00    +0.084 C 
ATOM     11  C   UNL     1      12.963   8.110  21.446  0.00  0.00    +0.161 C 
ATOM     12  C   UNL     1      12.035   8.444  19.250  0.00  0.00    +0.036 C 
ATOM     13  C   UNL     1      10.993   8.734  20.308  0.00  0.00    +0.087 C 
ATOM     14  C   UNL     1      15.370   6.615  20.002  0.00  0.00    +0.074 C 
ATOM     15  C   UNL     1      14.204   8.842  21.949  0.00  0.00    +0.232 C 
ATOM     16  C   UNL     1      15.387   6.685  21.541  0.00  0.00    +0.123 C 
ATOM     19  C   UNL     1      14.271   7.196  17.913  0.00  0.00    +0.105 C 
ATOM     33  H   UNL     1      16.192   8.472  22.368  0.00  0.00    +0.149 HD
ENDROOT
BRANCH   4  17
ATOM     17  C   UNL     1      11.075   9.029  22.708  0.00  0.00    +0.159 C 
BRANCH  17  21
ATOM      7  N   UNL     1      10.867  11.518  22.554  0.00  0.00    -0.347 N 
ATOM      8  N   UNL     1      10.961  10.680  24.608  0.00  0.00    -0.239 NA
ATOM     21  C   UNL     1      10.969  10.394  23.325  0.00  0.00    +0.121 A 
ATOM     23  C   UNL     1      10.790  12.588  23.400  0.00  0.00    +0.104 A 
ATOM     24  C   UNL     1      10.850  12.047  24.661  0.00  0.00    +0.130 A 
ATOM     34  H   UNL     1      10.851  11.552  21.543  0.00  0.00    +0.167 HD
ENDBRANCH  17  21
ENDBRANCH   4  17
BRANCH  14  18
ATOM     18  C   UNL     1      16.802   6.911  19.508  0.00  0.00    +0.029 C 
BRANCH  18  20
ATOM     20  C   UNL     1      17.738   5.770  19.860  0.00  0.00    +0.097 C 
BRANCH  20  22
ATOM      2  O   UNL     1      18.781   6.942  21.705  0.00  0.00    -0.276 OA
ATOM      9  N   UNL     1      20.121   5.799  20.190  0.00  0.00    -0.311 N 
ATOM     22  C   UNL     1      18.910   6.246  20.700  0.00  0.00    +0.213 C 
ATOM     35  H   UNL     1      20.131   5.241  19.341  0.00  0.00    +0.149 HD
BRANCH   9  25
ATOM     25  C   UNL     1      21.384   6.120  20.812  0.00  0.00    +0.139 C 
BRANCH  25  26
ATOM     26  C   UNL     1      22.331   4.955  20.792  0.00  0.00    -0.030 A 
ATOM     27  C   UNL     1      21.984   3.762  21.427  0.00  0.00    +0.009 A 
ATOM     28  C   UNL     1      23.558   5.066  20.139  0.00  0.00    +0.009 A 
ATOM     29  C   UNL     1      22.865   2.680  21.409  0.00  0.00    +0.046 A 
ATOM     30  C   UNL     1      24.439   3.984  20.120  0.00  0.00    +0.046 A 
ATOM     31  C   UNL     1      24.092   2.792  20.755  0.00  0.00    +0.120 A 
BRANCH  31   3
ATOM      3  O   UNL     1      24.951   1.736  20.737  0.00  0.00    -0.495 OA
ATOM     32  C   UNL     1      25.767   1.543  21.891  0.00  0.00    +0.277 C 
ENDBRANCH  31   3
ENDBRANCH  25  26
ENDBRANCH   9  25
ENDBRANCH  20  22
ENDBRANCH  18  20
ENDBRANCH  14  18
TORSDOF 8
ENDMDL
MODEL 2
REMARK VINA RESULT:      -7.2     27.603     30.518
REMARK  Name = 45360937
REMARK  10 active torsions:
REMARK  status: ('A' for Active; 'I' for Inactive)
REMARK    1  A    between atoms: O_3  and  C_31
REMARK    2  A    between atoms: O_3  and  C_32
REMARK    3  A    between atoms: N_4  and  C_17
REMARK    4  A    between atoms: N_5  and  C_19
REMARK    5  A    between atoms: N_9  and  C_25
REMARK    6  A    between atoms: C_14  and  C_18
REMARK    7  A    between atoms: C_17  and  C_21
REMARK    8  A    between atoms: C_18  and  C_20
REMARK    9  A    between atoms: C_20  and  C_22
REMARK   10  A    between atoms: C_25  and  C_26
REMARK                            x       y       z     vdW  Elec       q    Type
REMARK                         _______ _______ _______ _____ _____    ______ ____
ROOT
ATOM      1  O   UNL     1      -5.669  -9.736   7.378  0.00  0.00    -0.274 OA
ATOM      4  N   UNL     1      -7.675  -8.375   8.569  0.00  0.00    -0.283 NA
ATOM      5  N   UNL     1      -5.860 -10.121  11.225  0.00  0.00    -0.296 NA
ATOM      6  N   UNL     1      -4.144  -9.345   9.039  0.00  0.00    -0.312 N 
ATOM     10  C   UNL     1      -6.725  -9.040  10.702  0.00  0.00    +0.084 C 
ATOM     11  C   UNL     1      -6.397  -8.439   9.303  0.00  0.00    +0.161 C 
ATOM     12  C   UNL     1      -8.202  -9.446  10.537  0.00  0.00    +0.036 C 
ATOM     13  C   UNL     1      -8.742  -8.423   9.562  0.00  0.00    +0.087 C 
ATOM     14  C   UNL     1      -4.448  -9.715  11.469  0.00  0.00    +0.074 C 
ATOM     15  C   UNL     1      -5.401  -9.244   8.473  0.00  0.00    +0.232 C 
ATOM     16  C   UNL     1      -3.821  -8.847  10.361  0.00  0.00    +0.123 C 
ATOM     19  C   UNL     1      -6.439 -10.712  12.444  0.00  0.00    +0.105 C 
ATOM     33  H   UNL     1      -3.428  -9.849   8.526  0.00  0.00    +0.149 HD
ENDROOT
BRANCH   4  17
ATOM     17  C   UNL     1      -7.783  -7.210   7.701  0.00  0.00    +0.159 C 
BRANCH  17  21
ATOM      7  N   UNL     1      -7.092  -7.951   5.413  0.00  0.00    -0.347 N 
ATOM      8  N   UNL     1      -9.270  -7.640   5.712  0.00  0.00    -0.239 NA
ATOM     21  C   UNL     1      -8.086  -7.595   6.281  0.00  0.00    +0.121 A 
ATOM     23  C   UNL     1      -7.680  -8.240   4.214  0.00  0.00    +0.104 A 
ATOM     24  C   UNL     1      -9.023  -8.041   4.422  0.00  0.00    +0.130 A 
ATOM     34  H   UNL     1      -6.102  -7.993   5.618  0.00  0.00    +0.167 HD
ENDBRANCH  17  21
ENDBRANCH   4  17
BRANCH  14  18
ATOM     18  C   UNL     1      -3.552 -10.960  11.646  0.00  0.00    +0.029 C 
BRANCH  18  20
ATOM     20  C   UNL     1      -2.280 -10.604  12.393  0.00  0.00    +0.097 C 
BRANCH  20  22
ATOM      2  O   UNL     1      -1.845 -12.380  13.979  0.00  0.00    -0.276 OA
ATOM      9  N   UNL     1      -2.718 -10.370  14.746  0.00  0.00    -0.311 N 
ATOM     22  C   UNL     1      -2.245 -11.238  13.772  0.00  0.00    +0.213 C 
ATOM     35  H   UNL     1      -3.046  -9.447  14.478  0.00  0.00    +0.149 HD
BRANCH   9  25
ATOM     25  C   UNL     1      -2.786 -10.740  16.140  0.00  0.00    +0.139 C 
BRANCH  25  26
ATOM     26  C   UNL     1      -4.168 -10.563  16.701  0.00  0.00    -0.030 A 
ATOM     27  C   UNL     1      -4.473 -11.050  17.972  0.00  0.00    +0.009 A 
ATOM     28  C   UNL     1      -5.147  -9.913  15.950  0.00  0.00    +0.009 A 
ATOM     29  C   UNL     1      -5.757 -10.886  18.493  0.00  0.00    +0.046 A 
ATOM     30  C   UNL     1      -6.431  -9.749  16.470  0.00  0.00    +0.046 A 
ATOM     31  C   UNL     1      -6.735 -10.235  17.741  0.00  0.00    +0.120 A 
BRANCH  31   3
ATOM      3  O   UNL     1      -7.988 -10.075  18.249  0.00  0.00    -0.495 OA
ATOM     32  C   UNL     1      -8.888 -11.174  18.118  0.00  0.00    +0.277 C 
ENDBRANCH  31   3
ENDBRANCH  25  26
ENDBRANCH   9  25
ENDBRANCH  20  22
ENDBRANCH  18  20
ENDBRANCH  14  18
TORSDOF 8
ENDMDL
MODEL 3
REMARK VINA RESULT:      -7.2     27.186     30.017
REMARK  Name = 45360937
REMARK  10 active torsions:
REMARK  status: ('A' for Active; 'I' for Inactive)
REMARK    1  A    between atoms: O_3  and  C_31
REMARK    2  A    between atoms: O_3  and  C_32
REMARK    3  A    between atoms: N_4  and  C_17
REMARK    4  A    between atoms: N_5  and  C_19
REMARK    5  A    between atoms: N_9  and  C_25
REMARK    6  A    between atoms: C_14  and  C_18
REMARK    7  A    between atoms: C_17  and  C_21
REMARK    8  A    between atoms: C_18  and  C_20
REMARK    9  A    between atoms: C_20  and  C_22
REMARK   10  A    between atoms: C_25  and  C_26
REMARK                            x       y       z     vdW  Elec       q    Type
REMARK                         _______ _______ _______ _____ _____    ______ ____
ROOT
ATOM      1  O   UNL     1      -6.329 -10.294  20.279  0.00  0.00    -0.274 OA
ATOM      4  N   UNL     1      -8.478 -10.963  18.787  0.00  0.00    -0.283 NA
ATOM      5  N   UNL     1      -5.688 -10.492  16.466  0.00  0.00    -0.296 NA
ATOM      6  N   UNL     1      -4.834 -11.498  19.032  0.00  0.00    -0.312 N 
ATOM     10  C   UNL     1      -6.992 -11.063  16.870  0.00  0.00    +0.084 C 
ATOM     11  C   UNL     1      -7.179 -11.510  18.350  0.00  0.00    +0.161 C 
ATOM     12  C   UNL     1      -8.182 -10.106  16.672  0.00  0.00    +0.036 C 
ATOM     13  C   UNL     1      -9.248 -10.674  17.583  0.00  0.00    +0.087 C 
ATOM     14  C   UNL     1      -4.543 -11.438  16.573  0.00  0.00    +0.074 C 
ATOM     15  C   UNL     1      -6.101 -11.021  19.313  0.00  0.00    +0.232 C 
ATOM     16  C   UNL     1      -4.520 -12.288  17.858  0.00  0.00    +0.123 C 
ATOM     19  C   UNL     1      -5.761  -9.931  15.106  0.00  0.00    +0.105 C 
ATOM     33  H   UNL     1      -4.074 -11.229  19.648  0.00  0.00    +0.149 HD
ENDROOT
BRANCH   4  17
ATOM     17  C   UNL     1      -9.196 -11.842  19.701  0.00  0.00    +0.159 C 
BRANCH  17  21
ATOM      7  N   UNL     1     -10.747 -10.059  20.521  0.00  0.00    -0.347 N 
ATOM      8  N   UNL     1     -11.706 -11.957  19.883  0.00  0.00    -0.239 NA
ATOM     21  C   UNL     1     -10.566 -11.320  20.024  0.00  0.00    +0.121 A 
ATOM     23  C   UNL     1     -12.089  -9.883  20.710  0.00  0.00    +0.104 A 
ATOM     24  C   UNL     1     -12.660 -11.067  20.310  0.00  0.00    +0.130 A 
ATOM     34  H   UNL     1     -10.022  -9.380  20.714  0.00  0.00    +0.167 HD
ENDBRANCH  17  21
ENDBRANCH   4  17
BRANCH  14  18
ATOM     18  C   UNL     1      -3.203 -10.674  16.499  0.00  0.00    +0.029 C 
BRANCH  18  20
ATOM     20  C   UNL     1      -2.237 -11.374  15.562  0.00  0.00    +0.097 C 
BRANCH  20  22
ATOM      2  O   UNL     1      -1.050  -9.481  14.630  0.00  0.00    -0.276 OA
ATOM      9  N   UNL     1      -2.272 -10.857  13.213  0.00  0.00    -0.311 N 
ATOM     22  C   UNL     1      -1.775 -10.456  14.445  0.00  0.00    +0.213 C 
ATOM     35  H   UNL     1      -2.881 -11.669  13.160  0.00  0.00    +0.149 HD
BRANCH   9  25
ATOM     25  C   UNL     1      -1.976 -10.144  11.994  0.00  0.00    +0.139 C 
BRANCH  25  26
ATOM     26  C   UNL     1      -3.203  -9.933  11.154  0.00  0.00    -0.030 A 
ATOM     27  C   UNL     1      -3.120  -9.204   9.968  0.00  0.00    +0.009 A 
ATOM     28  C   UNL     1      -4.426 -10.465  11.562  0.00  0.00    +0.009 A 
ATOM     29  C   UNL     1      -4.261  -9.008   9.189  0.00  0.00    +0.046 A 
ATOM     30  C   UNL     1      -5.566 -10.269  10.783  0.00  0.00    +0.046 A 
ATOM     31  C   UNL     1      -5.483  -9.540   9.597  0.00  0.00    +0.120 A 
BRANCH  31   3
ATOM      3  O   UNL     1      -6.596  -9.349   8.837  0.00  0.00    -0.495 OA
ATOM     32  C   UNL     1      -7.385  -8.193   9.118  0.00  0.00    +0.277 C 
ENDBRANCH  31   3
ENDBRANCH  25  26
ENDBRANCH   9  25
ENDBRANCH  20  22
ENDBRANCH  18  20
ENDBRANCH  14  18
TORSDOF 8
ENDMDL
MODEL 4
REMARK VINA RESULT:      -7.1     27.261     30.699
REMARK  Name = 45360937
REMARK  10 active torsions:
REMARK  status: ('A' for Active; 'I' for Inactive)
REMARK    1  A    between atoms: O_3  and  C_31
REMARK    2  A    between atoms: O_3  and  C_32
REMARK    3  A    between atoms: N_4  and  C_17
REMARK    4  A    between atoms: N_5  and  C_19
REMARK    5  A    between atoms: N_9  and  C_25
REMARK    6  A    between atoms: C_14  and  C_18
REMARK    7  A    between atoms: C_17  and  C_21
REMARK    8  A    between atoms: C_18  and  C_20
REMARK    9  A    between atoms: C_20  and  C_22
REMARK   10  A    between atoms: C_25  and  C_26
REMARK                            x       y       z     vdW  Elec       q    Type
REMARK                         _______ _______ _______ _____ _____    ______ ____
ROOT
ATOM      1  O   UNL     1      -5.830  -9.492  13.112  0.00  0.00    -0.274 OA
ATOM      4  N   UNL     1      -3.693 -10.655  11.940  0.00  0.00    -0.283 NA
ATOM      5  N   UNL     1      -3.109 -10.768  15.551  0.00  0.00    -0.296 NA
ATOM      6  N   UNL     1      -5.909 -10.945  14.878  0.00  0.00    -0.312 N 
ATOM     10  C   UNL     1      -2.923 -11.249  14.165  0.00  0.00    +0.084 C 
ATOM     11  C   UNL     1      -4.153 -11.252  13.209  0.00  0.00    +0.161 C 
ATOM     12  C   UNL     1      -1.891 -10.441  13.356  0.00  0.00    +0.036 C 
ATOM     13  C   UNL     1      -2.239 -10.763  11.919  0.00  0.00    +0.087 C 
ATOM     14  C   UNL     1      -4.041 -11.593  16.369  0.00  0.00    +0.074 C 
ATOM     15  C   UNL     1      -5.358 -10.459  13.707  0.00  0.00    +0.232 C 
ATOM     16  C   UNL     1      -5.329 -12.029  15.644  0.00  0.00    +0.123 C 
ATOM     19  C   UNL     1      -1.812 -10.632  16.237  0.00  0.00    +0.105 C 
ATOM     33  H   UNL     1      -6.728 -10.476  15.252  0.00  0.00    +0.149 HD
ENDROOT
BRANCH   4  17
ATOM     17  C   UNL     1      -4.307 -11.258  10.764  0.00  0.00    +0.159 C 
BRANCH  17  21
ATOM      7  N   UNL     1      -5.111  -8.934  10.304  0.00  0.00    -0.347 N 
ATOM      8  N   UNL     1      -5.838 -10.503   8.910  0.00  0.00    -0.239 NA
ATOM     21  C   UNL     1      -5.097 -10.260   9.969  0.00  0.00    +0.121 A 
ATOM     23  C   UNL     1      -5.911  -8.293   9.401  0.00  0.00    +0.104 A 
ATOM     24  C   UNL     1      -6.349  -9.281   8.552  0.00  0.00    +0.130 A 
ATOM     34  H   UNL     1      -4.619  -8.505  11.076  0.00  0.00    +0.167 HD
ENDBRANCH  17  21
ENDBRANCH   4  17
BRANCH  14  18
ATOM     18  C   UNL     1      -4.461 -10.830  17.643  0.00  0.00    +0.029 C 
BRANCH  18  20
ATOM     20  C   UNL     1      -4.586 -11.778  18.821  0.00  0.00    +0.097 C 
BRANCH  20  22
ATOM      2  O   UNL     1      -5.871 -11.260  20.806  0.00  0.00    -0.276 OA
ATOM      9  N   UNL     1      -6.987 -11.646  18.806  0.00  0.00    -0.311 N 
ATOM     22  C   UNL     1      -5.860 -11.529  19.608  0.00  0.00    +0.213 C 
ATOM     35  H   UNL     1      -6.881 -11.890  17.826  0.00  0.00    +0.149 HD
BRANCH   9  25
ATOM     25  C   UNL     1      -8.322 -11.455  19.322  0.00  0.00    +0.139 C 
BRANCH  25  26
ATOM     26  C   UNL     1      -9.068 -10.391  18.570  0.00  0.00    -0.030 A 
ATOM     27  C   UNL     1     -10.417 -10.159  18.843  0.00  0.00    +0.009 A 
ATOM     28  C   UNL     1      -8.413  -9.635  17.599  0.00  0.00    +0.009 A 
ATOM     29  C   UNL     1     -11.109  -9.171  18.143  0.00  0.00    +0.046 A 
ATOM     30  C   UNL     1      -9.105  -8.646  16.900  0.00  0.00    +0.046 A 
ATOM     31  C   UNL     1     -10.454  -8.414  17.172  0.00  0.00    +0.120 A 
BRANCH  31   3
ATOM      3  O   UNL     1     -11.129  -7.449  16.490  0.00  0.00    -0.495 OA
ATOM     32  C   UNL     1     -10.354  -6.550  15.699  0.00  0.00    +0.277 C 
ENDBRANCH  31   3
ENDBRANCH  25  26
ENDBRANCH   9  25
ENDBRANCH  20  22
ENDBRANCH  18  20
ENDBRANCH  14  18
TORSDOF 8
ENDMDL
MODEL 5
REMARK VINA RESULT:      -6.9     27.097     29.977
REMARK  Name = 45360937
REMARK  10 active torsions:
REMARK  status: ('A' for Active; 'I' for Inactive)
REMARK    1  A    between atoms: O_3  and  C_31
REMARK    2  A    between atoms: O_3  and  C_32
REMARK    3  A    between atoms: N_4  and  C_17
REMARK    4  A    between atoms: N_5  and  C_19
REMARK    5  A    between atoms: N_9  and  C_25
REMARK    6  A    between atoms: C_14  and  C_18
REMARK    7  A    between atoms: C_17  and  C_21
REMARK    8  A    between atoms: C_18  and  C_20
REMARK    9  A    between atoms: C_20  and  C_22
REMARK   10  A    between atoms: C_25  and  C_26
REMARK                            x       y       z     vdW  Elec       q    Type
REMARK                         _______ _______ _______ _____ _____    ______ ____
ROOT
ATOM      1  O   UNL     1      -8.474 -10.100  15.183  0.00  0.00    -0.274 OA
ATOM      4  N   UNL     1      -9.166 -10.079  17.793  0.00  0.00    -0.283 NA
ATOM      5  N   UNL     1      -5.830 -11.570  17.597  0.00  0.00    -0.296 NA
ATOM      6  N   UNL     1      -6.275  -9.585  15.551  0.00  0.00    -0.312 N 
ATOM     10  C   UNL     1      -6.918 -10.848  18.292  0.00  0.00    +0.084 C 
ATOM     11  C   UNL     1      -7.749  -9.806  17.486  0.00  0.00    +0.161 C 
ATOM     12  C   UNL     1      -8.018 -11.767  18.856  0.00  0.00    +0.036 C 
ATOM     13  C   UNL     1      -9.197 -10.836  19.039  0.00  0.00    +0.087 C 
ATOM     14  C   UNL     1      -4.718 -10.699  17.123  0.00  0.00    +0.074 C 
ATOM     15  C   UNL     1      -7.562  -9.863  15.973  0.00  0.00    +0.232 C 
ATOM     16  C   UNL     1      -5.164  -9.382  16.459  0.00  0.00    +0.123 C 
ATOM     19  C   UNL     1      -5.302 -12.658  18.439  0.00  0.00    +0.105 C 
ATOM     33  H   UNL     1      -6.088  -9.584  14.554  0.00  0.00    +0.149 HD
ENDROOT
BRANCH   4  17
ATOM     17  C   UNL     1      -9.984  -8.876  17.860  0.00  0.00    +0.159 C 
BRANCH  17  21
ATOM      7  N   UNL     1     -11.379 -10.024  16.129  0.00  0.00    -0.347 N 
ATOM      8  N   UNL     1     -11.936  -7.922  16.583  0.00  0.00    -0.239 NA
ATOM     21  C   UNL     1     -11.109  -8.904  16.866  0.00  0.00    +0.121 A 
ATOM     23  C   UNL     1     -12.446  -9.737  15.325  0.00  0.00    +0.104 A 
ATOM     24  C   UNL     1     -12.771  -8.435  15.622  0.00  0.00    +0.130 A 
ATOM     34  H   UNL     1     -10.882 -10.904  16.170  0.00  0.00    +0.167 HD
ENDBRANCH  17  21
ENDBRANCH   4  17
BRANCH  14  18
ATOM     18  C   UNL     1      -3.836 -11.456  16.106  0.00  0.00    +0.029 C 
BRANCH  18  20
ATOM     20  C   UNL     1      -2.392 -11.001  16.205  0.00  0.00    +0.097 C 
BRANCH  20  22
ATOM      2  O   UNL     1      -1.092  -9.554  14.764  0.00  0.00    -0.276 OA
ATOM      9  N   UNL     1      -2.386 -11.230  13.811  0.00  0.00    -0.311 N 
ATOM     22  C   UNL     1      -1.872 -10.497  14.871  0.00  0.00    +0.213 C 
ATOM     35  H   UNL     1      -3.041 -11.984  13.995  0.00  0.00    +0.149 HD
BRANCH   9  25
ATOM     25  C   UNL     1      -2.042 -10.944  12.438  0.00  0.00    +0.139 C 
BRANCH  25  26
ATOM     26  C   UNL     1      -3.154 -10.238  11.716  0.00  0.00    -0.030 A 
ATOM     27  C   UNL     1      -2.904  -9.603  10.500  0.00  0.00    +0.009 A 
ATOM     28  C   UNL     1      -4.437 -10.218  12.263  0.00  0.00    +0.009 A 
ATOM     29  C   UNL     1      -3.938  -8.947   9.830  0.00  0.00    +0.046 A 
ATOM     30  C   UNL     1      -5.470  -9.563  11.593  0.00  0.00    +0.046 A 
ATOM     31  C   UNL     1      -5.220  -8.927  10.377  0.00  0.00    +0.120 A 
BRANCH  31   3
ATOM      3  O   UNL     1      -6.229  -8.288   9.724  0.00  0.00    -0.495 OA
ATOM     32  C   UNL     1      -6.641  -8.835   8.471  0.00  0.00    +0.277 C 
ENDBRANCH  31   3
ENDBRANCH  25  26
ENDBRANCH   9  25
ENDBRANCH  20  22
ENDBRANCH  18  20
ENDBRANCH  14  18
TORSDOF 8
ENDMDL
MODEL 6
REMARK VINA RESULT:      -6.7     28.590     31.704
REMARK  Name = 45360937
REMARK  10 active torsions:
REMARK  status: ('A' for Active; 'I' for Inactive)
REMARK    1  A    between atoms: O_3  and  C_31
REMARK    2  A    between atoms: O_3  and  C_32
REMARK    3  A    between atoms: N_4  and  C_17
REMARK    4  A    between atoms: N_5  and  C_19
REMARK    5  A    between atoms: N_9  and  C_25
REMARK    6  A    between atoms: C_14  and  C_18
REMARK    7  A    between atoms: C_17  and  C_21
REMARK    8  A    between atoms: C_18  and  C_20
REMARK    9  A    between atoms: C_20  and  C_22
REMARK   10  A    between atoms: C_25  and  C_26
REMARK                            x       y       z     vdW  Elec       q    Type
REMARK                         _______ _______ _______ _____ _____    ______ ____
ROOT
ATOM      1  O   UNL     1     -12.013  -4.936  12.410  0.00  0.00    -0.274 OA
ATOM      4  N   UNL     1     -14.636  -5.139  13.022  0.00  0.00    -0.283 NA
ATOM      5  N   UNL     1     -12.909  -7.770  14.890  0.00  0.00    -0.296 NA
ATOM      6  N   UNL     1     -11.274  -5.422  14.521  0.00  0.00    -0.312 N 
ATOM     10  C   UNL     1     -14.021  -6.821  14.661  0.00  0.00    +0.084 C 
ATOM     11  C   UNL     1     -13.683  -5.401  14.118  0.00  0.00    +0.161 C 
ATOM     12  C   UNL     1     -15.064  -7.314  13.642  0.00  0.00    +0.036 C 
ATOM     13  C   UNL     1     -15.764  -6.043  13.211  0.00  0.00    +0.087 C 
ATOM     14  C   UNL     1     -11.939  -7.343  15.936  0.00  0.00    +0.074 C 
ATOM     15  C   UNL     1     -12.266  -5.238  13.575  0.00  0.00    +0.232 C 
ATOM     16  C   UNL     1     -11.535  -5.856  15.878  0.00  0.00    +0.123 C 
ATOM     19  C   UNL     1     -13.425  -9.117  15.192  0.00  0.00    +0.105 C 
ATOM     33  H   UNL     1     -10.308  -5.305  14.230  0.00  0.00    +0.149 HD
ENDROOT
BRANCH   4  17
ATOM     17  C   UNL     1     -15.055  -3.746  12.943  0.00  0.00    +0.159 C 
BRANCH  17  21
ATOM      7  N   UNL     1     -14.089  -3.624  10.638  0.00  0.00    -0.347 N 
ATOM      8  N   UNL     1     -15.911  -2.404  10.990  0.00  0.00    -0.239 NA
ATOM     21  C   UNL     1     -15.050  -3.237  11.531  0.00  0.00    +0.121 A 
ATOM     23  C   UNL     1     -14.354  -2.997   9.454  0.00  0.00    +0.104 A 
ATOM     24  C   UNL     1     -15.482  -2.249   9.695  0.00  0.00    +0.130 A 
ATOM     34  H   UNL     1     -13.322  -4.258  10.820  0.00  0.00    +0.167 HD
ENDBRANCH  17  21
ENDBRANCH   4  17
BRANCH  14  18
ATOM     18  C   UNL     1     -10.645  -8.179  15.847  0.00  0.00    +0.029 C 
BRANCH  18  20
ATOM     20  C   UNL     1      -9.797  -7.990  17.090  0.00  0.00    +0.097 C 
BRANCH  20  22
ATOM      2  O   UNL     1      -9.966 -10.335  17.669  0.00  0.00    -0.276 OA
ATOM      9  N   UNL     1      -7.964  -9.220  18.046  0.00  0.00    -0.311 N 
ATOM     22  C   UNL     1      -9.283  -9.315  17.624  0.00  0.00    +0.213 C 
ATOM     35  H   UNL     1      -7.483  -8.327  17.987  0.00  0.00    +0.149 HD
BRANCH   9  25
ATOM     25  C   UNL     1      -7.248 -10.346  18.596  0.00  0.00    +0.139 C 
BRANCH  25  26
ATOM     26  C   UNL     1      -5.952 -10.593  17.878  0.00  0.00    -0.030 A 
ATOM     27  C   UNL     1      -4.888 -11.197  18.547  0.00  0.00    +0.009 A 
ATOM     28  C   UNL     1      -5.814 -10.217  16.542  0.00  0.00    +0.009 A 
ATOM     29  C   UNL     1      -3.684 -11.426  17.879  0.00  0.00    +0.046 A 
ATOM     30  C   UNL     1      -4.611 -10.446  15.874  0.00  0.00    +0.046 A 
ATOM     31  C   UNL     1      -3.546 -11.050  16.543  0.00  0.00    +0.120 A 
BRANCH  31   3
ATOM      3  O   UNL     1      -2.372 -11.273  15.891  0.00  0.00    -0.495 OA
ATOM     32  C   UNL     1      -2.102 -10.467  14.746  0.00  0.00    +0.277 C 
ENDBRANCH  31   3
ENDBRANCH  25  26
ENDBRANCH   9  25
ENDBRANCH  20  22
ENDBRANCH  18  20
ENDBRANCH  14  18
TORSDOF 8
ENDMDL
MODEL 7
REMARK VINA RESULT:      -6.7     28.466     32.857
REMARK  Name = 45360937
REMARK  10 active torsions:
REMARK  status: ('A' for Active; 'I' for Inactive)
REMARK    1  A    between atoms: O_3  and  C_31
REMARK    2  A    between atoms: O_3  and  C_32
REMARK    3  A    between atoms: N_4  and  C_17
REMARK    4  A    between atoms: N_5  and  C_19
REMARK    5  A    between atoms: N_9  and  C_25
REMARK    6  A    between atoms: C_14  and  C_18
REMARK    7  A    between atoms: C_17  and  C_21
REMARK    8  A    between atoms: C_18  and  C_20
REMARK    9  A    between atoms: C_20  and  C_22
REMARK   10  A    between atoms: C_25  and  C_26
REMARK                            x       y       z     vdW  Elec       q    Type
REMARK                         _______ _______ _______ _____ _____    ______ ____
ROOT
ATOM      1  O   UNL     1     -12.869   4.981  22.423  0.00  0.00    -0.274 OA
ATOM      4  N   UNL     1     -14.162   7.055  21.274  0.00  0.00    -0.283 NA
ATOM      5  N   UNL     1     -16.668   4.461  21.893  0.00  0.00    -0.296 NA
ATOM      6  N   UNL     1     -14.565   4.460  23.868  0.00  0.00    -0.312 N 
ATOM     10  C   UNL     1     -16.235   5.860  21.684  0.00  0.00    +0.084 C 
ATOM     11  C   UNL     1     -14.895   6.325  22.327  0.00  0.00    +0.161 C 
ATOM     12  C   UNL     1     -16.029   6.237  20.205  0.00  0.00    +0.036 C 
ATOM     13  C   UNL     1     -15.141   7.461  20.273  0.00  0.00    +0.087 C 
ATOM     14  C   UNL     1     -16.953   4.110  23.312  0.00  0.00    +0.074 C 
ATOM     15  C   UNL     1     -14.003   5.200  22.845  0.00  0.00    +0.232 C 
ATOM     16  C   UNL     1     -15.927   4.642  24.331  0.00  0.00    +0.123 C 
ATOM     19  C   UNL     1     -17.829   4.140  21.045  0.00  0.00    +0.105 C 
ATOM     33  H   UNL     1     -14.015   3.710  24.274  0.00  0.00    +0.149 HD
ENDROOT
BRANCH   4  17
ATOM     17  C   UNL     1     -13.395   8.185  21.783  0.00  0.00    +0.159 C 
BRANCH  17  21
ATOM      7  N   UNL     1     -12.035   9.929  20.613  0.00  0.00    -0.347 N 
ATOM      8  N   UNL     1     -11.546   7.822  20.111  0.00  0.00    -0.239 NA
ATOM     21  C   UNL     1     -12.318   8.608  20.827  0.00  0.00    +0.121 A 
ATOM     23  C   UNL     1     -11.019   9.987  19.701  0.00  0.00    +0.104 A 
ATOM     24  C   UNL     1     -10.735   8.676  19.406  0.00  0.00    +0.130 A 
ATOM     34  H   UNL     1     -12.493  10.719  21.049  0.00  0.00    +0.167 HD
ENDBRANCH  17  21
ENDBRANCH   4  17
BRANCH  14  18
ATOM     18  C   UNL     1     -17.028   2.578  23.484  0.00  0.00    +0.029 C 
BRANCH  18  20
ATOM     20  C   UNL     1     -17.881   2.214  24.685  0.00  0.00    +0.097 C 
BRANCH  20  22
ATOM      2  O   UNL     1     -16.757   0.128  25.183  0.00  0.00    -0.276 OA
ATOM      9  N   UNL     1     -17.096   1.665  26.891  0.00  0.00    -0.311 N 
ATOM     22  C   UNL     1     -17.184   1.209  25.583  0.00  0.00    +0.213 C 
ATOM     35  H   UNL     1     -17.494   2.567  27.134  0.00  0.00    +0.149 HD
BRANCH   9  25
ATOM     25  C   UNL     1     -16.475   0.889  27.938  0.00  0.00    +0.139 C 
BRANCH  25  26
ATOM     26  C   UNL     1     -15.862   1.760  28.995  0.00  0.00    -0.030 A 
ATOM     27  C   UNL     1     -15.721   3.131  28.775  0.00  0.00    +0.009 A 
ATOM     28  C   UNL     1     -15.433   1.199  30.198  0.00  0.00    +0.009 A 
ATOM     29  C   UNL     1     -15.151   3.940  29.758  0.00  0.00    +0.046 A 
ATOM     30  C   UNL     1     -14.863   2.009  31.181  0.00  0.00    +0.046 A 
ATOM     31  C   UNL     1     -14.721   3.379  30.960  0.00  0.00    +0.120 A 
BRANCH  31   3
ATOM      3  O   UNL     1     -14.165   4.168  31.920  0.00  0.00    -0.495 OA
ATOM     32  C   UNL     1     -14.287   3.730  33.272  0.00  0.00    +0.277 C 
ENDBRANCH  31   3
ENDBRANCH  25  26
ENDBRANCH   9  25
ENDBRANCH  20  22
ENDBRANCH  18  20
ENDBRANCH  14  18
TORSDOF 8
ENDMDL
MODEL 8
REMARK VINA RESULT:      -6.7     28.006     30.205
REMARK  Name = 45360937
REMARK  10 active torsions:
REMARK  status: ('A' for Active; 'I' for Inactive)
REMARK    1  A    between atoms: O_3  and  C_31
REMARK    2  A    between atoms: O_3  and  C_32
REMARK    3  A    between atoms: N_4  and  C_17
REMARK    4  A    between atoms: N_5  and  C_19
REMARK    5  A    between atoms: N_9  and  C_25
REMARK    6  A    between atoms: C_14  and  C_18
REMARK    7  A    between atoms: C_17  and  C_21
REMARK    8  A    between atoms: C_18  and  C_20
REMARK    9  A    between atoms: C_20  and  C_22
REMARK   10  A    between atoms: C_25  and  C_26
REMARK                            x       y       z     vdW  Elec       q    Type
REMARK                         _______ _______ _______ _____ _____    ______ ____
ROOT
ATOM      1  O   UNL     1      -9.422  -9.206  14.509  0.00  0.00    -0.274 OA
ATOM      4  N   UNL     1     -10.485  -8.724  16.945  0.00  0.00    -0.283 NA
ATOM      5  N   UNL     1      -7.897 -11.269  17.408  0.00  0.00    -0.296 NA
ATOM      6  N   UNL     1      -7.275  -9.438  15.267  0.00  0.00    -0.312 N 
ATOM     10  C   UNL     1      -8.763 -10.163  17.871  0.00  0.00    +0.084 C 
ATOM     11  C   UNL     1      -9.032  -8.975  16.900  0.00  0.00    +0.161 C 
ATOM     12  C   UNL     1     -10.192 -10.601  18.243  0.00  0.00    +0.036 C 
ATOM     13  C   UNL     1     -10.984  -9.313  18.182  0.00  0.00    +0.087 C 
ATOM     14  C   UNL     1      -6.489 -10.872  17.127  0.00  0.00    +0.074 C 
ATOM     15  C   UNL     1      -8.629  -9.225  15.449  0.00  0.00    +0.232 C 
ATOM     16  C   UNL     1      -6.330  -9.545  16.360  0.00  0.00    +0.123 C 
ATOM     19  C   UNL     1      -7.929 -12.393  18.360  0.00  0.00    +0.105 C 
ATOM     33  H   UNL     1      -6.937  -9.587  14.322  0.00  0.00    +0.149 HD
ENDROOT
BRANCH   4  17
ATOM     17  C   UNL     1     -10.829  -7.313  16.830  0.00  0.00    +0.159 C 
BRANCH  17  21
ATOM      7  N   UNL     1     -11.665  -7.336  14.471  0.00  0.00    -0.347 N 
ATOM      8  N   UNL     1     -13.106  -6.617  16.001  0.00  0.00    -0.239 NA
ATOM     21  C   UNL     1     -11.891  -7.076  15.795  0.00  0.00    +0.121 A 
ATOM     23  C   UNL     1     -12.808  -7.022  13.792  0.00  0.00    +0.104 A 
ATOM     24  C   UNL     1     -13.682  -6.580  14.756  0.00  0.00    +0.130 A 
ATOM     34  H   UNL     1     -10.810  -7.695  14.068  0.00  0.00    +0.167 HD
ENDBRANCH  17  21
ENDBRANCH   4  17
BRANCH  14  18
ATOM     18  C   UNL     1      -5.772 -11.969  16.311  0.00  0.00    +0.029 C 
BRANCH  18  20
ATOM     20  C   UNL     1      -4.385 -12.232  16.867  0.00  0.00    +0.097 C 
BRANCH  20  22
ATOM      2  O   UNL     1      -2.920 -10.477  16.071  0.00  0.00    -0.276 OA
ATOM      9  N   UNL     1      -2.820 -12.572  15.074  0.00  0.00    -0.311 N 
ATOM     22  C   UNL     1      -3.304 -11.640  15.981  0.00  0.00    +0.213 C 
ATOM     35  H   UNL     1      -3.211 -13.509  15.060  0.00  0.00    +0.149 HD
BRANCH   9  25
ATOM     25  C   UNL     1      -1.785 -12.251  14.119  0.00  0.00    +0.139 C 
BRANCH  25  26
ATOM     26  C   UNL     1      -2.354 -11.763  12.817  0.00  0.00    -0.030 A 
ATOM     27  C   UNL     1      -2.120 -10.452  12.401  0.00  0.00    +0.009 A 
ATOM     28  C   UNL     1      -3.117 -12.621  12.026  0.00  0.00    +0.009 A 
ATOM     29  C   UNL     1      -2.649 -10.000  11.192  0.00  0.00    +0.046 A 
ATOM     30  C   UNL     1      -3.645 -12.169  10.817  0.00  0.00    +0.046 A 
ATOM     31  C   UNL     1      -3.412 -10.858  10.400  0.00  0.00    +0.120 A 
BRANCH  31   3
ATOM      3  O   UNL     1      -3.928 -10.417   9.220  0.00  0.00    -0.495 OA
ATOM     32  C   UNL     1      -4.190  -9.019   9.108  0.00  0.00    +0.277 C 
ENDBRANCH  31   3
ENDBRANCH  25  26
ENDBRANCH   9  25
ENDBRANCH  20  22
ENDBRANCH  18  20
ENDBRANCH  14  18
TORSDOF 8
ENDMDL
MODEL 9
REMARK VINA RESULT:      -6.6     27.714     30.391
REMARK  Name = 45360937
REMARK  10 active torsions:
REMARK  status: ('A' for Active; 'I' for Inactive)
REMARK    1  A    between atoms: O_3  and  C_31
REMARK    2  A    between atoms: O_3  and  C_32
REMARK    3  A    between atoms: N_4  and  C_17
REMARK    4  A    between atoms: N_5  and  C_19
REMARK    5  A    between atoms: N_9  and  C_25
REMARK    6  A    between atoms: C_14  and  C_18
REMARK    7  A    between atoms: C_17  and  C_21
REMARK    8  A    between atoms: C_18  and  C_20
REMARK    9  A    between atoms: C_20  and  C_22
REMARK   10  A    between atoms: C_25  and  C_26
REMARK                            x       y       z     vdW  Elec       q    Type
REMARK                         _______ _______ _______ _____ _____    ______ ____
ROOT
ATOM      1  O   UNL     1      -8.532 -10.097  18.054  0.00  0.00    -0.274 OA
ATOM      4  N   UNL     1      -8.712 -12.699  18.751  0.00  0.00    -0.283 NA
ATOM      5  N   UNL     1      -5.781 -12.389  16.583  0.00  0.00    -0.296 NA
ATOM      6  N   UNL     1      -6.247 -10.017  18.158  0.00  0.00    -0.312 N 
ATOM     10  C   UNL     1      -6.579 -13.041  17.644  0.00  0.00    +0.084 C 
ATOM     11  C   UNL     1      -7.351 -12.138  18.651  0.00  0.00    +0.161 C 
ATOM     12  C   UNL     1      -7.697 -13.956  17.112  0.00  0.00    +0.036 C 
ATOM     13  C   UNL     1      -8.641 -14.080  18.288  0.00  0.00    +0.087 C 
ATOM     14  C   UNL     1      -4.643 -11.569  17.084  0.00  0.00    +0.074 C 
ATOM     15  C   UNL     1      -7.461 -10.671  18.249  0.00  0.00    +0.232 C 
ATOM     16  C   UNL     1      -4.968 -10.683  18.303  0.00  0.00    +0.123 C 
ATOM     19  C   UNL     1      -5.302 -13.380  15.603  0.00  0.00    +0.105 C 
ATOM     33  H   UNL     1      -6.251  -9.031  17.916  0.00  0.00    +0.149 HD
ENDROOT
BRANCH   4  17
ATOM     17  C   UNL     1      -9.281 -12.596  20.089  0.00  0.00    +0.159 C 
BRANCH  17  21
ATOM      7  N   UNL     1     -10.459 -10.420  20.463  0.00  0.00    -0.347 N 
ATOM      8  N   UNL     1     -11.739 -12.113  19.810  0.00  0.00    -0.239 NA
ATOM     21  C   UNL     1     -10.515 -11.740  20.109  0.00  0.00    +0.121 A 
ATOM     23  C   UNL     1     -11.728  -9.922  20.386  0.00  0.00    +0.104 A 
ATOM     24  C   UNL     1     -12.501 -10.984  19.982  0.00  0.00    +0.130 A 
ATOM     34  H   UNL     1      -9.630  -9.906  20.733  0.00  0.00    +0.167 HD
ENDBRANCH  17  21
ENDBRANCH   4  17
BRANCH  14  18
ATOM     18  C   UNL     1      -4.110 -10.645  15.968  0.00  0.00    +0.029 C 
BRANCH  18  20
ATOM     20  C   UNL     1      -2.594 -10.672  15.927  0.00  0.00    +0.097 C 
BRANCH  20  22
ATOM      2  O   UNL     1      -1.814 -12.430  14.456  0.00  0.00    -0.276 OA
ATOM      9  N   UNL     1      -1.950 -10.258  13.647  0.00  0.00    -0.311 N 
ATOM     22  C   UNL     1      -2.079 -11.241  14.617  0.00  0.00    +0.213 C 
ATOM     35  H   UNL     1      -2.177  -9.295  13.877  0.00  0.00    +0.149 HD
BRANCH   9  25
ATOM     25  C   UNL     1      -1.477 -10.548  12.314  0.00  0.00    +0.139 C 
BRANCH  25  26
ATOM     26  C   UNL     1      -2.569 -10.423  11.291  0.00  0.00    -0.030 A 
ATOM     27  C   UNL     1      -2.693  -9.254  10.541  0.00  0.00    +0.009 A 
ATOM     28  C   UNL     1      -3.460 -11.478  11.092  0.00  0.00    +0.009 A 
ATOM     29  C   UNL     1      -3.708  -9.139   9.590  0.00  0.00    +0.046 A 
ATOM     30  C   UNL     1      -4.475 -11.363  10.142  0.00  0.00    +0.046 A 
ATOM     31  C   UNL     1      -4.599 -10.193   9.391  0.00  0.00    +0.120 A 
BRANCH  31   3
ATOM      3  O   UNL     1      -5.589 -10.082   8.464  0.00  0.00    -0.495 OA
ATOM     32  C   UNL     1      -6.792  -9.432   8.873  0.00  0.00    +0.277 C 
ENDBRANCH  31   3
ENDBRANCH  25  26
ENDBRANCH   9  25
ENDBRANCH  20  22
ENDBRANCH  18  20
ENDBRANCH  14  18
TORSDOF 8
ENDMDL
MODEL 10
REMARK VINA RESULT:      -6.5     15.784     18.707
REMARK  Name = 45360937
REMARK  10 active torsions:
REMARK  status: ('A' for Active; 'I' for Inactive)
REMARK    1  A    between atoms: O_3  and  C_31
REMARK    2  A    between atoms: O_3  and  C_32
REMARK    3  A    between atoms: N_4  and  C_17
REMARK    4  A    between atoms: N_5  and  C_19
REMARK    5  A    between atoms: N_9  and  C_25
REMARK    6  A    between atoms: C_14  and  C_18
REMARK    7  A    between atoms: C_17  and  C_21
REMARK    8  A    between atoms: C_18  and  C_20
REMARK    9  A    between atoms: C_20  and  C_22
REMARK   10  A    between atoms: C_25  and  C_26
REMARK                            x       y       z     vdW  Elec       q    Type
REMARK                         _______ _______ _______ _____ _____    ______ ____
ROOT
ATOM      1  O   UNL     1      15.819   7.164   4.321  0.00  0.00    -0.274 OA
ATOM      4  N   UNL     1      16.767   9.281   5.702  0.00  0.00    -0.283 NA
ATOM      5  N   UNL     1      13.120   9.390   5.976  0.00  0.00    -0.296 NA
ATOM      6  N   UNL     1      14.134   6.695   5.798  0.00  0.00    -0.312 N 
ATOM     10  C   UNL     1      14.491   9.692   6.441  0.00  0.00    +0.084 C 
ATOM     11  C   UNL     1      15.589   8.599   6.271  0.00  0.00    +0.161 C 
ATOM     12  C   UNL     1      15.136  10.904   5.743  0.00  0.00    +0.036 C 
ATOM     13  C   UNL     1      16.616  10.704   5.983  0.00  0.00    +0.087 C 
ATOM     14  C   UNL     1      12.454   8.274   6.704  0.00  0.00    +0.074 C 
ATOM     15  C   UNL     1      15.210   7.442   5.352  0.00  0.00    +0.232 C 
ATOM     16  C   UNL     1      13.348   7.045   6.963  0.00  0.00    +0.123 C 
ATOM     19  C   UNL     1      12.276  10.598   6.014  0.00  0.00    +0.105 C 
ATOM     33  H   UNL     1      13.845   5.896   5.244  0.00  0.00    +0.149 HD
ENDROOT
BRANCH   4  17
ATOM     17  C   UNL     1      18.032   8.754   6.197  0.00  0.00    +0.159 C 
BRANCH  17  21
ATOM      7  N   UNL     1      18.858   7.693   4.087  0.00  0.00    -0.347 N 
ATOM      8  N   UNL     1      20.171   9.256   4.962  0.00  0.00    -0.239 NA
ATOM     21  C   UNL     1      19.043   8.595   5.098  0.00  0.00    +0.121 A 
ATOM     23  C   UNL     1      19.938   7.785   3.255  0.00  0.00    +0.104 A 
ATOM     24  C   UNL     1      20.734   8.755   3.815  0.00  0.00    +0.130 A 
ATOM     34  H   UNL     1      18.068   7.071   3.974  0.00  0.00    +0.167 HD
ENDBRANCH  17  21
ENDBRANCH   4  17
BRANCH  14  18
ATOM     18  C   UNL     1      11.211   7.789   5.928  0.00  0.00    +0.029 C 
BRANCH  18  20
ATOM     20  C   UNL     1      10.620   6.553   6.580  0.00  0.00    +0.097 C 
BRANCH  20  22
ATOM      2  O   UNL     1       9.799   4.399   5.841  0.00  0.00    -0.276 OA
ATOM      9  N   UNL     1      10.879   5.779   4.318  0.00  0.00    -0.311 N 
ATOM     22  C   UNL     1      10.374   5.449   5.568  0.00  0.00    +0.213 C 
ATOM     35  H   UNL     1      11.357   6.666   4.189  0.00  0.00    +0.149 HD
BRANCH   9  25
ATOM     25  C   UNL     1      10.771   4.891   3.184  0.00  0.00    +0.139 C 
BRANCH  25  26
ATOM     26  C   UNL     1      12.078   4.748   2.457  0.00  0.00    -0.030 A 
ATOM     27  C   UNL     1      12.931   5.844   2.333  0.00  0.00    +0.009 A 
ATOM     28  C   UNL     1      12.436   3.518   1.906  0.00  0.00    +0.009 A 
ATOM     29  C   UNL     1      14.144   5.710   1.657  0.00  0.00    +0.046 A 
ATOM     30  C   UNL     1      13.650   3.384   1.230  0.00  0.00    +0.046 A 
ATOM     31  C   UNL     1      14.503   4.481   1.106  0.00  0.00    +0.120 A 
BRANCH  31   3
ATOM      3  O   UNL     1      15.686   4.350   0.447  0.00  0.00    -0.495 OA
ATOM     32  C   UNL     1      15.627   4.195  -0.971  0.00  0.00    +0.277 C 
ENDBRANCH  31   3
ENDBRANCH  25  26
ENDBRANCH   9  25
ENDBRANCH  20  22
ENDBRANCH  18  20
ENDBRANCH  14  18
TORSDOF 8
ENDMDL
