REMARK  Name = 71693198
REMARK  13 active torsions:
REMARK  status: ('A' for Active; 'I' for Inactive)
REMARK    1  A    between atoms: O_2  and  C_27
REMARK    2  A    between atoms: O_2  and  C_31
REMARK    3  A    between atoms: O_3  and  C_30
REMARK    4  A    between atoms: N_5  and  C_15
REMARK    5  A    between atoms: C_8  and  C_12
REMARK    6  A    between atoms: C_9  and  C_15
REMARK    7  A    between atoms: C_11  and  C_16
REMARK    8  A    between atoms: C_12  and  C_17
REMARK    9  A    between atoms: C_12  and  C_18
REMARK   10  A    between atoms: C_13  and  C_19
REMARK   11  A    between atoms: C_16  and  C_20
REMARK   12  A    between atoms: C_22  and  C_26
REMARK   13  A    between atoms: C_29  and  C_30
REMARK                            x       y       z     vdW  Elec       q    Type
REMARK                         _______ _______ _______ _____ _____    ______ ____
ROOT
ATOM      8  C   UNL     1       1.234   1.940  -0.826  0.00  0.00    +0.000 C 
ATOM      9  C   UNL     1       2.374   2.735  -0.141  0.00  0.00    +0.032 C 
ATOM     10  C   UNL     1      -0.120   2.288  -0.189  0.00  0.00    +0.012 C 
ATOM     11  C   UNL     1      -0.149   1.981   1.320  0.00  0.00    +0.022 C 
ATOM     13  C   UNL     1       1.085   2.504   2.026  0.00  0.00    -0.073 C 
ATOM     14  C   UNL     1       2.199   2.849   1.355  0.00  0.00    -0.022 C 
ATOM     19  C   UNL     1       0.994   2.666   3.518  0.00  0.00    +0.039 C 
ENDROOT
BRANCH   8  12
ATOM     12  C   UNL     1       1.182   2.207  -2.334  0.00  0.00    -0.013 C 
ATOM     17  C   UNL     1       0.518   1.040  -3.058  0.00  0.00    +0.007 C 
ATOM     18  C   UNL     1       0.443   3.511  -2.618  0.00  0.00    +0.007 C 
ENDBRANCH   8  12
BRANCH   9  15
ATOM     15  C   UNL     1       3.742   2.115  -0.449  0.00  0.00    +0.112 C 
BRANCH  15   5
ATOM      1  O   UNL     1       4.203  -0.386  -1.830  0.00  0.00    -0.271 OA
ATOM      5  N   UNL     1       3.853   0.814   0.132  0.00  0.00    -0.311 N 
ATOM     22  C   UNL     1       4.076  -0.343  -0.611  0.00  0.00    +0.237 C 
ATOM     32  H   UNL     1       3.810   0.746   1.145  0.00  0.00    +0.149 HD
BRANCH  22  26
ATOM     26  C   UNL     1       4.147  -1.561   0.244  0.00  0.00    +0.074 C 
ATOM     29  C   UNL     1       4.357  -2.757  -0.319  0.00  0.00    +0.096 C 
BRANCH  29  30
ATOM      4  O   UNL     1       4.306  -3.987   1.751  0.00  0.00    -0.246 OA
ATOM     30  C   UNL     1       4.424  -3.956   0.538  0.00  0.00    +0.330 C 
BRANCH  30   3
ATOM      3  O   UNL     1       4.642  -5.038  -0.245  0.00  0.00    -0.478 OA
ATOM     34  H   UNL     1       4.695  -5.866   0.279  0.00  0.00    +0.295 HD
ENDBRANCH  30   3
ENDBRANCH  29  30
ENDBRANCH  22  26
ENDBRANCH  15   5
ENDBRANCH   9  15
BRANCH  11  16
ATOM     16  C   UNL     1      -0.332   0.480   1.575  0.00  0.00    +0.082 C 
BRANCH  16  20
ATOM      6  N   UNL     1      -2.813   0.194   1.432  0.00  0.00    -0.342 N 
ATOM      7  N   UNL     1      -1.632  -0.752  -0.196  0.00  0.00    -0.232 NA
ATOM     20  C   UNL     1      -1.573  -0.042   0.908  0.00  0.00    +0.109 A 
ATOM     21  C   UNL     1      -3.735  -0.403   0.610  0.00  0.00    +0.070 A 
ATOM     23  C   UNL     1      -2.973  -0.987  -0.398  0.00  0.00    +0.089 A 
ATOM     24  C   UNL     1      -5.127  -0.481   0.661  0.00  0.00    +0.073 A 
ATOM     25  C   UNL     1      -3.621  -1.694  -1.424  0.00  0.00    +0.033 A 
ATOM     27  C   UNL     1      -5.756  -1.188  -0.369  0.00  0.00    +0.122 A 
ATOM     28  C   UNL     1      -5.018  -1.785  -1.394  0.00  0.00    +0.048 A 
ATOM     33  H   UNL     1      -3.018   0.716   2.273  0.00  0.00    +0.167 HD
BRANCH  27   2
ATOM      2  O   UNL     1      -7.115  -1.296  -0.371  0.00  0.00    -0.495 OA
ATOM     31  C   UNL     1      -7.815  -0.667   0.700  0.00  0.00    +0.277 C 
ENDBRANCH  27   2
ENDBRANCH  16  20
ENDBRANCH  11  16
TORSDOF 9
