REMARK  Name = 75536970
REMARK  2 active torsions:
REMARK  status: ('A' for Active; 'I' for Inactive)
REMARK    1  A    between atoms: N_5  and  C_12
REMARK    2  A    between atoms: C_13  and  C_16
REMARK                            x       y       z     vdW  Elec       q    Type
REMARK                         _______ _______ _______ _____ _____    ______ ____
ROOT
ATOM      1  O   UNL     1       0.987  -2.355   0.076  0.00  0.00    -0.252 OA
ATOM      2  O   UNL     1      -5.601  -0.189   0.115  0.00  0.00    -0.276 OA
ATOM      3  N   UNL     1      -0.816  -0.882   0.208  0.00  0.00    -0.278 N 
ATOM      4  N   UNL     1      -3.347   0.145  -0.331  0.00  0.00    -0.298 N 
ATOM      5  N   UNL     1       1.259   0.023   0.103  0.00  0.00    -0.254 N 
ATOM      6  C   UNL     1      -1.032   0.535   0.390  0.00  0.00    +0.113 C 
ATOM      7  C   UNL     1      -2.175   1.025  -0.495  0.00  0.00    +0.132 C 
ATOM      8  C   UNL     1       0.328   1.145   0.074  0.00  0.00    +0.139 C 
ATOM      9  C   UNL     1      -1.944  -1.796   0.273  0.00  0.00    +0.128 C 
ATOM     10  C   UNL     1      -3.086  -1.278  -0.597  0.00  0.00    +0.127 C 
ATOM     11  C   UNL     1       0.547  -1.214   0.128  0.00  0.00    +0.309 C 
ATOM     13  C   UNL     1      -4.630   0.565   0.012  0.00  0.00    +0.213 C 
ATOM     16  C   UNL     1      -4.810   2.039   0.271  0.00  0.00    +0.109 C 
ENDROOT
BRANCH   5  12
ATOM     12  C   UNL     1       2.671   0.200   0.032  0.00  0.00    +0.038 A 
ATOM     14  C   UNL     1       3.511  -0.912  -0.022  0.00  0.00    +0.023 A 
ATOM     15  C   UNL     1       3.213   1.485   0.015  0.00  0.00    +0.023 A 
ATOM     17  C   UNL     1       4.894  -0.739  -0.091  0.00  0.00    +0.002 A 
ATOM     18  C   UNL     1       4.595   1.658  -0.054  0.00  0.00    +0.002 A 
ATOM     19  C   UNL     1       5.436   0.546  -0.107  0.00  0.00    +0.000 A 
ENDBRANCH   5  12
TORSDOF 1
