MODEL 1
REMARK VINA RESULT:      -7.7      0.000      0.000
REMARK  Name = 44716470
REMARK  8 active torsions:
REMARK  status: ('A' for Active; 'I' for Inactive)
REMARK    1  A    between atoms: O_2  and  C_21
REMARK    2  A    between atoms: O_2  and  C_35
REMARK    3  A    between atoms: N_6  and  C_12
REMARK    4  A    between atoms: N_6  and  C_22
REMARK    5  A    between atoms: N_8  and  C_26
REMARK    6  A    between atoms: C_10  and  C_18
REMARK    7  A    between atoms: C_14  and  C_21
REMARK    8  A    between atoms: C_22  and  C_26
REMARK                            x       y       z     vdW  Elec       q    Type
REMARK                         _______ _______ _______ _____ _____    ______ ____
ROOT
ATOM      5  N   UNL     1      11.897   6.654   5.668  0.00  0.00    -0.274 NA
ATOM      7  N   UNL     1      14.645   7.639   3.305  0.00  0.00    -0.356 N 
ATOM      9  C   UNL     1      12.356   7.094   4.314  0.00  0.00    +0.106 C 
ATOM     10  C   UNL     1      10.453   6.309   5.679  0.00  0.00    +0.090 C 
ATOM     11  C   UNL     1      12.091   6.000   3.268  0.00  0.00    +0.044 C 
ATOM     12  C   UNL     1      10.602   5.656   3.220  0.00  0.00    +0.057 C 
ATOM     13  C   UNL     1      10.128   5.237   4.610  0.00  0.00    +0.042 C 
ATOM     14  C   UNL     1      12.327   7.576   6.754  0.00  0.00    +0.172 C 
ATOM     15  C   UNL     1      13.808   7.464   4.372  0.00  0.00    +0.038 A 
ATOM     16  C   UNL     1      13.869   7.690   6.862  0.00  0.00    +0.068 C 
ATOM     17  C   UNL     1      14.511   7.758   5.520  0.00  0.00    -0.016 A 
ATOM     19  C   UNL     1      15.840   8.091   5.144  0.00  0.00    +0.003 A 
ATOM     20  C   UNL     1      15.898   8.009   3.749  0.00  0.00    +0.047 A 
ATOM     25  C   UNL     1      17.002   8.461   5.849  0.00  0.00    +0.010 A 
ATOM     27  C   UNL     1      17.065   8.277   3.026  0.00  0.00    +0.026 A 
ATOM     28  C   UNL     1      18.177   8.730   5.137  0.00  0.00    +0.001 A 
ATOM     31  C   UNL     1      18.206   8.639   3.748  0.00  0.00    +0.002 A 
ATOM     39  H   UNL     1      14.392   7.517   2.334  0.00  0.00    +0.166 HD
ENDROOT
BRANCH  10  18
ATOM      1  F   UNL     1       8.574   4.389  10.655  0.00  0.00    -0.205 F 
ATOM     18  C   UNL     1       9.945   5.791   7.023  0.00  0.00    -0.030 A 
ATOM     23  C   UNL     1      10.137   4.453   7.370  0.00  0.00    +0.008 A 
ATOM     24  C   UNL     1       9.291   6.654   7.901  0.00  0.00    +0.008 A 
ATOM     29  C   UNL     1       9.673   3.980   8.598  0.00  0.00    +0.038 A 
ATOM     30  C   UNL     1       8.828   6.180   9.129  0.00  0.00    +0.038 A 
ATOM     32  C   UNL     1       9.019   4.843   9.476  0.00  0.00    +0.123 A 
ENDBRANCH  10  18
BRANCH  14  21
ATOM      3  O   UNL     1      10.714   9.142   5.880  0.00  0.00    -0.249 OA
ATOM     21  C   UNL     1      11.701   8.930   6.572  0.00  0.00    +0.325 C 
BRANCH  21   2
ATOM      2  O   UNL     1      12.399   9.855   7.291  0.00  0.00    -0.467 OA
ATOM     35  C   UNL     1      11.628  10.616   8.226  0.00  0.00    +0.280 C 
ENDBRANCH  21   2
ENDBRANCH  14  21
BRANCH  12   6
ATOM      6  N   UNL     1      10.364   4.592   2.245  0.00  0.00    -0.312 NA
ATOM     38  H   UNL     1      10.943   3.782   2.468  0.00  0.00    +0.122 HD
BRANCH   6  22
ATOM     22  C   UNL     1      10.687   5.044   0.900  0.00  0.00    +0.096 C 
BRANCH  22  26
ATOM     26  C   UNL     1      11.566   4.015   0.196  0.00  0.00    +0.099 C 
BRANCH  26   8
ATOM      4  O   UNL     1      15.730   3.563   0.455  0.00  0.00    -0.377 OA
ATOM      8  N   UNL     1      12.975   4.280   0.476  0.00  0.00    -0.297 NA
ATOM     33  C   UNL     1      13.517   3.283   1.410  0.00  0.00    +0.112 C 
ATOM     34  C   UNL     1      13.762   4.287  -0.765  0.00  0.00    +0.112 C 
ATOM     36  C   UNL     1      14.992   3.573   1.678  0.00  0.00    +0.175 C 
ATOM     37  C   UNL     1      15.231   4.551  -0.446  0.00  0.00    +0.175 C 
ENDBRANCH  26   8
ENDBRANCH  22  26
ENDBRANCH   6  22
ENDBRANCH  12   6
TORSDOF 7
ENDMDL
MODEL 2
REMARK VINA RESULT:      -7.4      1.578      2.069
REMARK  Name = 44716470
REMARK  8 active torsions:
REMARK  status: ('A' for Active; 'I' for Inactive)
REMARK    1  A    between atoms: O_2  and  C_21
REMARK    2  A    between atoms: O_2  and  C_35
REMARK    3  A    between atoms: N_6  and  C_12
REMARK    4  A    between atoms: N_6  and  C_22
REMARK    5  A    between atoms: N_8  and  C_26
REMARK    6  A    between atoms: C_10  and  C_18
REMARK    7  A    between atoms: C_14  and  C_21
REMARK    8  A    between atoms: C_22  and  C_26
REMARK                            x       y       z     vdW  Elec       q    Type
REMARK                         _______ _______ _______ _____ _____    ______ ____
ROOT
ATOM      5  N   UNL     1      11.907   6.622   5.561  0.00  0.00    -0.274 NA
ATOM      7  N   UNL     1      14.640   7.564   3.163  0.00  0.00    -0.356 N 
ATOM      9  C   UNL     1      12.358   7.033   4.196  0.00  0.00    +0.106 C 
ATOM     10  C   UNL     1      10.464   6.272   5.588  0.00  0.00    +0.090 C 
ATOM     11  C   UNL     1      12.092   5.914   3.176  0.00  0.00    +0.044 C 
ATOM     12  C   UNL     1      10.605   5.563   3.143  0.00  0.00    +0.057 C 
ATOM     13  C   UNL     1      10.139   5.175   4.545  0.00  0.00    +0.042 C 
ATOM     14  C   UNL     1      12.339   7.571   6.623  0.00  0.00    +0.172 C 
ATOM     15  C   UNL     1      13.809   7.411   4.238  0.00  0.00    +0.038 A 
ATOM     16  C   UNL     1      13.881   7.693   6.721  0.00  0.00    +0.068 C 
ATOM     17  C   UNL     1      14.516   7.733   5.375  0.00  0.00    -0.016 A 
ATOM     19  C   UNL     1      15.842   8.063   4.984  0.00  0.00    +0.003 A 
ATOM     20  C   UNL     1      15.893   7.949   3.591  0.00  0.00    +0.047 A 
ATOM     25  C   UNL     1      17.006   8.454   5.675  0.00  0.00    +0.010 A 
ATOM     27  C   UNL     1      17.056   8.205   2.857  0.00  0.00    +0.026 A 
ATOM     28  C   UNL     1      18.176   8.711   4.952  0.00  0.00    +0.001 A 
ATOM     31  C   UNL     1      18.198   8.588   3.564  0.00  0.00    +0.002 A 
ATOM     39  H   UNL     1      14.383   7.419   2.196  0.00  0.00    +0.166 HD
ENDROOT
BRANCH  10  18
ATOM      1  F   UNL     1       8.618   4.459  10.616  0.00  0.00    -0.205 F 
ATOM     18  C   UNL     1       9.966   5.783   6.946  0.00  0.00    -0.030 A 
ATOM     23  C   UNL     1      10.158   4.453   7.320  0.00  0.00    +0.008 A 
ATOM     24  C   UNL     1       9.319   6.665   7.810  0.00  0.00    +0.008 A 
ATOM     29  C   UNL     1       9.702   4.006   8.560  0.00  0.00    +0.038 A 
ATOM     30  C   UNL     1       8.864   6.218   9.051  0.00  0.00    +0.038 A 
ATOM     32  C   UNL     1       9.056   4.888   9.425  0.00  0.00    +0.123 A 
ENDBRANCH  10  18
BRANCH  14  21
ATOM      3  O   UNL     1      10.963   9.188   5.481  0.00  0.00    -0.249 OA
ATOM     21  C   UNL     1      11.706   8.918   6.414  0.00  0.00    +0.325 C 
BRANCH  21   2
ATOM      2  O   UNL     1      12.090   9.762   7.415  0.00  0.00    -0.467 OA
ATOM     35  C   UNL     1      11.031  10.257   8.240  0.00  0.00    +0.280 C 
ENDBRANCH  21   2
ENDBRANCH  14  21
BRANCH  12   6
ATOM      6  N   UNL     1      10.366   4.477   2.195  0.00  0.00    -0.312 NA
ATOM     38  H   UNL     1      10.598   3.582   2.627  0.00  0.00    +0.122 HD
BRANCH   6  22
ATOM     22  C   UNL     1      11.181   4.646   1.002  0.00  0.00    +0.096 C 
BRANCH  22  26
ATOM     26  C   UNL     1      10.307   5.051  -0.180  0.00  0.00    +0.099 C 
BRANCH  26   8
ATOM      4  O   UNL     1      11.374   2.967  -3.664  0.00  0.00    -0.377 OA
ATOM      8  N   UNL     1      10.363   4.028  -1.223  0.00  0.00    -0.297 NA
ATOM     33  C   UNL     1       9.976   4.590  -2.525  0.00  0.00    +0.112 C 
ATOM     34  C   UNL     1      11.708   3.443  -1.308  0.00  0.00    +0.112 C 
ATOM     36  C   UNL     1      10.054   3.509  -3.599  0.00  0.00    +0.175 C 
ATOM     37  C   UNL     1      11.746   2.389  -2.412  0.00  0.00    +0.175 C 
ENDBRANCH  26   8
ENDBRANCH  22  26
ENDBRANCH   6  22
ENDBRANCH  12   6
TORSDOF 7
ENDMDL
MODEL 3
REMARK VINA RESULT:      -6.9     28.247     32.155
REMARK  Name = 44716470
REMARK  8 active torsions:
REMARK  status: ('A' for Active; 'I' for Inactive)
REMARK    1  A    between atoms: O_2  and  C_21
REMARK    2  A    between atoms: O_2  and  C_35
REMARK    3  A    between atoms: N_6  and  C_12
REMARK    4  A    between atoms: N_6  and  C_22
REMARK    5  A    between atoms: N_8  and  C_26
REMARK    6  A    between atoms: C_10  and  C_18
REMARK    7  A    between atoms: C_14  and  C_21
REMARK    8  A    between atoms: C_22  and  C_26
REMARK                            x       y       z     vdW  Elec       q    Type
REMARK                         _______ _______ _______ _____ _____    ______ ____
ROOT
ATOM      5  N   UNL     1      -9.977  -9.662  17.452  0.00  0.00    -0.274 NA
ATOM      7  N   UNL     1      -7.324 -11.674  19.188  0.00  0.00    -0.356 N 
ATOM      9  C   UNL     1      -9.573 -10.807  18.325  0.00  0.00    +0.106 C 
ATOM     10  C   UNL     1     -11.452  -9.502  17.396  0.00  0.00    +0.090 C 
ATOM     11  C   UNL     1     -10.114 -10.621  19.751  0.00  0.00    +0.044 C 
ATOM     12  C   UNL     1     -11.638 -10.501  19.733  0.00  0.00    +0.057 C 
ATOM     13  C   UNL     1     -12.051  -9.352  18.816  0.00  0.00    +0.042 C 
ATOM     14  C   UNL     1      -9.300  -9.677  16.127  0.00  0.00    +0.172 C 
ATOM     15  C   UNL     1      -8.079 -10.945  18.313  0.00  0.00    +0.038 A 
ATOM     16  C   UNL     1      -7.758  -9.575  16.246  0.00  0.00    +0.068 C 
ATOM     17  C   UNL     1      -7.237 -10.407  17.365  0.00  0.00    -0.016 A 
ATOM     19  C   UNL     1      -5.909 -10.794  17.693  0.00  0.00    +0.003 A 
ATOM     20  C   UNL     1      -5.992 -11.589  18.841  0.00  0.00    +0.047 A 
ATOM     25  C   UNL     1      -4.642 -10.554  17.125  0.00  0.00    +0.010 A 
ATOM     27  C   UNL     1      -4.865 -12.152  19.450  0.00  0.00    +0.026 A 
ATOM     28  C   UNL     1      -3.507 -11.110  17.726  0.00  0.00    +0.001 A 
ATOM     31  C   UNL     1      -3.619 -11.897  18.870  0.00  0.00    +0.002 A 
ATOM     39  H   UNL     1      -7.680 -12.200  19.975  0.00  0.00    +0.166 HD
ENDROOT
BRANCH  10  18
ATOM      1  F   UNL     1     -13.178  -5.072  14.333  0.00  0.00    -0.205 F 
ATOM     18  C   UNL     1     -11.919  -8.306  16.569  0.00  0.00    -0.030 A 
ATOM     23  C   UNL     1     -11.215  -7.102  16.626  0.00  0.00    +0.008 A 
ATOM     24  C   UNL     1     -13.047  -8.416  15.757  0.00  0.00    +0.008 A 
ATOM     29  C   UNL     1     -11.641  -6.010  15.871  0.00  0.00    +0.038 A 
ATOM     30  C   UNL     1     -13.472  -7.324  15.001  0.00  0.00    +0.038 A 
ATOM     32  C   UNL     1     -12.769  -6.121  15.059  0.00  0.00    +0.123 A 
ENDBRANCH  10  18
BRANCH  14  21
ATOM      3  O   UNL     1      -9.272 -12.022  15.567  0.00  0.00    -0.249 OA
ATOM     21  C   UNL     1      -9.699 -10.897  15.345  0.00  0.00    +0.325 C 
BRANCH  21   2
ATOM      2  O   UNL     1     -10.591 -10.545  14.377  0.00  0.00    -0.467 OA
ATOM     35  C   UNL     1     -10.180  -9.474  13.522  0.00  0.00    +0.280 C 
ENDBRANCH  21   2
ENDBRANCH  14  21
BRANCH  12   6
ATOM      6  N   UNL     1     -12.141 -10.292  21.090  0.00  0.00    -0.312 NA
ATOM     38  H   UNL     1     -11.436 -10.579  21.769  0.00  0.00    +0.122 HD
BRANCH   6  22
ATOM     22  C   UNL     1     -13.352 -11.066  21.316  0.00  0.00    +0.096 C 
BRANCH  22  26
ATOM     26  C   UNL     1     -13.207 -12.459  20.712  0.00  0.00    +0.099 C 
BRANCH  26   8
ATOM      4  O   UNL     1     -11.703 -14.286  24.177  0.00  0.00    -0.377 OA
ATOM      8  N   UNL     1     -12.953 -13.441  21.764  0.00  0.00    -0.297 NA
ATOM     33  C   UNL     1     -11.529 -13.801  21.807  0.00  0.00    +0.112 C 
ATOM     34  C   UNL     1     -13.381 -12.927  23.072  0.00  0.00    +0.112 C 
ATOM     36  C   UNL     1     -11.285 -14.818  22.919  0.00  0.00    +0.175 C 
ATOM     37  C   UNL     1     -13.093 -13.963  24.155  0.00  0.00    +0.175 C 
ENDBRANCH  26   8
ENDBRANCH  22  26
ENDBRANCH   6  22
ENDBRANCH  12   6
TORSDOF 7
ENDMDL
MODEL 4
REMARK VINA RESULT:      -6.8     29.190     32.412
REMARK  Name = 44716470
REMARK  8 active torsions:
REMARK  status: ('A' for Active; 'I' for Inactive)
REMARK    1  A    between atoms: O_2  and  C_21
REMARK    2  A    between atoms: O_2  and  C_35
REMARK    3  A    between atoms: N_6  and  C_12
REMARK    4  A    between atoms: N_6  and  C_22
REMARK    5  A    between atoms: N_8  and  C_26
REMARK    6  A    between atoms: C_10  and  C_18
REMARK    7  A    between atoms: C_14  and  C_21
REMARK    8  A    between atoms: C_22  and  C_26
REMARK                            x       y       z     vdW  Elec       q    Type
REMARK                         _______ _______ _______ _____ _____    ______ ____
ROOT
ATOM      5  N   UNL     1      -9.794 -10.411  18.405  0.00  0.00    -0.274 NA
ATOM      7  N   UNL     1     -13.416  -9.547  18.900  0.00  0.00    -0.356 N 
ATOM      9  C   UNL     1     -11.099  -9.909  17.873  0.00  0.00    +0.106 C 
ATOM     10  C   UNL     1      -8.697 -10.262  17.415  0.00  0.00    +0.090 C 
ATOM     11  C   UNL     1     -10.986  -8.432  17.463  0.00  0.00    +0.044 C 
ATOM     12  C   UNL     1      -9.896  -8.252  16.406  0.00  0.00    +0.057 C 
ATOM     13  C   UNL     1      -8.572  -8.794  16.939  0.00  0.00    +0.042 C 
ATOM     14  C   UNL     1      -9.902 -11.761  19.021  0.00  0.00    +0.172 C 
ATOM     15  C   UNL     1     -12.174 -10.118  18.897  0.00  0.00    +0.038 A 
ATOM     16  C   UNL     1     -10.874 -11.790  20.227  0.00  0.00    +0.068 C 
ATOM     17  C   UNL     1     -12.098 -10.984  19.966  0.00  0.00    -0.016 A 
ATOM     19  C   UNL     1     -13.330 -10.913  20.672  0.00  0.00    +0.003 A 
ATOM     20  C   UNL     1     -14.139 -10.004  19.982  0.00  0.00    +0.047 A 
ATOM     25  C   UNL     1     -13.843 -11.536  21.827  0.00  0.00    +0.010 A 
ATOM     27  C   UNL     1     -15.437  -9.687  20.397  0.00  0.00    +0.026 A 
ATOM     28  C   UNL     1     -15.139 -11.225  22.252  0.00  0.00    +0.001 A 
ATOM     31  C   UNL     1     -15.922 -10.315  21.546  0.00  0.00    +0.002 A 
ATOM     39  H   UNL     1     -13.760  -8.886  18.217  0.00  0.00    +0.166 HD
ENDROOT
BRANCH  10  18
ATOM      1  F   UNL     1      -3.628 -11.884  19.326  0.00  0.00    -0.205 F 
ATOM     18  C   UNL     1      -7.329 -10.700  17.931  0.00  0.00    -0.030 A 
ATOM     23  C   UNL     1      -6.943 -10.388  19.235  0.00  0.00    +0.008 A 
ATOM     24  C   UNL     1      -6.465 -11.412  17.099  0.00  0.00    +0.008 A 
ATOM     29  C   UNL     1      -5.692 -10.788  19.705  0.00  0.00    +0.038 A 
ATOM     30  C   UNL     1      -5.215 -11.812  17.570  0.00  0.00    +0.038 A 
ATOM     32  C   UNL     1      -4.829 -11.499  18.874  0.00  0.00    +0.123 A 
ENDBRANCH  10  18
BRANCH  14  21
ATOM      3  O   UNL     1     -11.423 -12.880  17.520  0.00  0.00    -0.249 OA
ATOM     21  C   UNL     1     -10.297 -12.780  17.988  0.00  0.00    +0.325 C 
BRANCH  21   2
ATOM      2  O   UNL     1      -9.217 -13.551  17.672  0.00  0.00    -0.467 OA
ATOM     35  C   UNL     1      -8.519 -14.116  18.786  0.00  0.00    +0.280 C 
ENDBRANCH  21   2
ENDBRANCH  14  21
BRANCH  12   6
ATOM      6  N   UNL     1      -9.775  -6.840  16.046  0.00  0.00    -0.312 NA
ATOM     38  H   UNL     1      -9.123  -6.376  16.679  0.00  0.00    +0.122 HD
BRANCH   6  22
ATOM     22  C   UNL     1     -11.065  -6.174  16.130  0.00  0.00    +0.096 C 
BRANCH  22  26
ATOM     26  C   UNL     1     -11.567  -5.821  14.734  0.00  0.00    +0.099 C 
BRANCH  26   8
ATOM      4  O   UNL     1     -15.748  -6.171  14.839  0.00  0.00    -0.377 OA
ATOM      8  N   UNL     1     -12.922  -6.334  14.540  0.00  0.00    -0.297 NA
ATOM     33  C   UNL     1     -13.574  -6.582  15.834  0.00  0.00    +0.112 C 
ATOM     34  C   UNL     1     -13.726  -5.398  13.743  0.00  0.00    +0.112 C 
ATOM     36  C   UNL     1     -14.990  -7.106  15.608  0.00  0.00    +0.175 C 
ATOM     37  C   UNL     1     -15.139  -5.949  13.567  0.00  0.00    +0.175 C 
ENDBRANCH  26   8
ENDBRANCH  22  26
ENDBRANCH   6  22
ENDBRANCH  12   6
TORSDOF 7
ENDMDL
MODEL 5
REMARK VINA RESULT:      -6.7     21.558     24.098
REMARK  Name = 44716470
REMARK  8 active torsions:
REMARK  status: ('A' for Active; 'I' for Inactive)
REMARK    1  A    between atoms: O_2  and  C_21
REMARK    2  A    between atoms: O_2  and  C_35
REMARK    3  A    between atoms: N_6  and  C_12
REMARK    4  A    between atoms: N_6  and  C_22
REMARK    5  A    between atoms: N_8  and  C_26
REMARK    6  A    between atoms: C_10  and  C_18
REMARK    7  A    between atoms: C_14  and  C_21
REMARK    8  A    between atoms: C_22  and  C_26
REMARK                            x       y       z     vdW  Elec       q    Type
REMARK                         _______ _______ _______ _____ _____    ______ ____
ROOT
ATOM      5  N   UNL     1      20.577  -3.225  25.020  0.00  0.00    -0.274 NA
ATOM      7  N   UNL     1      24.193  -3.989  25.689  0.00  0.00    -0.356 N 
ATOM      9  C   UNL     1      21.819  -3.043  25.834  0.00  0.00    +0.106 C 
ATOM     10  C   UNL     1      19.496  -2.299  25.442  0.00  0.00    +0.090 C 
ATOM     11  C   UNL     1      22.327  -1.596  25.734  0.00  0.00    +0.044 C 
ATOM     12  C   UNL     1      21.252  -0.618  26.208  0.00  0.00    +0.057 C 
ATOM     13  C   UNL     1      19.975  -0.828  25.397  0.00  0.00    +0.042 C 
ATOM     14  C   UNL     1      20.167  -4.651  24.900  0.00  0.00    +0.172 C 
ATOM     15  C   UNL     1      22.860  -4.028  25.391  0.00  0.00    +0.038 A 
ATOM     16  C   UNL     1      21.244  -5.524  24.206  0.00  0.00    +0.068 C 
ATOM     17  C   UNL     1      22.616  -5.173  24.665  0.00  0.00    -0.016 A 
ATOM     19  C   UNL     1      23.855  -5.844  24.481  0.00  0.00    +0.003 A 
ATOM     20  C   UNL     1      24.828  -5.081  25.134  0.00  0.00    +0.047 A 
ATOM     25  C   UNL     1      24.248  -7.030  23.830  0.00  0.00    +0.010 A 
ATOM     27  C   UNL     1      26.178  -5.447  25.162  0.00  0.00    +0.026 A 
ATOM     28  C   UNL     1      25.596  -7.406  23.850  0.00  0.00    +0.001 A 
ATOM     31  C   UNL     1      26.544  -6.625  24.507  0.00  0.00    +0.002 A 
ATOM     39  H   UNL     1      24.653  -3.272  26.233  0.00  0.00    +0.166 HD
ENDROOT
BRANCH  10  18
ATOM      1  F   UNL     1      14.792  -2.666  22.325  0.00  0.00    -0.205 F 
ATOM     18  C   UNL     1      18.226  -2.398  24.600  0.00  0.00    -0.030 A 
ATOM     23  C   UNL     1      17.013  -2.731  25.205  0.00  0.00    +0.008 A 
ATOM     24  C   UNL     1      18.278  -2.157  23.228  0.00  0.00    +0.008 A 
ATOM     29  C   UNL     1      15.853  -2.821  24.436  0.00  0.00    +0.038 A 
ATOM     30  C   UNL     1      17.118  -2.247  22.459  0.00  0.00    +0.038 A 
ATOM     32  C   UNL     1      15.906  -2.580  23.064  0.00  0.00    +0.123 A 
ENDBRANCH  10  18
BRANCH  14  21
ATOM      3  O   UNL     1      20.570  -5.222  27.208  0.00  0.00    -0.249 OA
ATOM     21  C   UNL     1      19.811  -5.211  26.249  0.00  0.00    +0.325 C 
BRANCH  21   2
ATOM      2  O   UNL     1      18.534  -5.689  26.220  0.00  0.00    -0.467 OA
ATOM     35  C   UNL     1      17.817  -5.601  27.456  0.00  0.00    +0.280 C 
ENDBRANCH  21   2
ENDBRANCH  14  21
BRANCH  12   6
ATOM      6  N   UNL     1      21.732   0.756  26.079  0.00  0.00    -0.312 NA
ATOM     38  H   UNL     1      20.947   1.383  25.901  0.00  0.00    +0.122 HD
BRANCH   6  22
ATOM     22  C   UNL     1      22.681   0.870  24.983  0.00  0.00    +0.096 C 
BRANCH  22  26
ATOM     26  C   UNL     1      22.632   2.273  24.387  0.00  0.00    +0.099 C 
BRANCH  26   8
ATOM      4  O   UNL     1      24.390   1.731  20.615  0.00  0.00    -0.377 OA
ATOM      8  N   UNL     1      23.556   2.375  23.259  0.00  0.00    -0.297 NA
ATOM     33  C   UNL     1      24.123   1.060  22.931  0.00  0.00    +0.112 C 
ATOM     34  C   UNL     1      22.883   2.941  22.082  0.00  0.00    +0.112 C 
ATOM     36  C   UNL     1      25.075   1.188  21.744  0.00  0.00    +0.175 C 
ATOM     37  C   UNL     1      23.862   3.024  20.915  0.00  0.00    +0.175 C 
ENDBRANCH  26   8
ENDBRANCH  22  26
ENDBRANCH   6  22
ENDBRANCH  12   6
TORSDOF 7
ENDMDL
MODEL 6
REMARK VINA RESULT:      -6.7      4.336      7.109
REMARK  Name = 44716470
REMARK  8 active torsions:
REMARK  status: ('A' for Active; 'I' for Inactive)
REMARK    1  A    between atoms: O_2  and  C_21
REMARK    2  A    between atoms: O_2  and  C_35
REMARK    3  A    between atoms: N_6  and  C_12
REMARK    4  A    between atoms: N_6  and  C_22
REMARK    5  A    between atoms: N_8  and  C_26
REMARK    6  A    between atoms: C_10  and  C_18
REMARK    7  A    between atoms: C_14  and  C_21
REMARK    8  A    between atoms: C_22  and  C_26
REMARK                            x       y       z     vdW  Elec       q    Type
REMARK                         _______ _______ _______ _____ _____    ______ ____
ROOT
ATOM      5  N   UNL     1       9.658   6.596   4.432  0.00  0.00    -0.274 NA
ATOM      7  N   UNL     1       9.619   7.184   0.723  0.00  0.00    -0.356 N 
ATOM      9  C   UNL     1       9.566   7.521   3.260  0.00  0.00    +0.106 C 
ATOM     10  C   UNL     1       9.401   7.299   5.715  0.00  0.00    +0.090 C 
ATOM     11  C   UNL     1       8.183   8.188   3.202  0.00  0.00    +0.044 C 
ATOM     12  C   UNL     1       7.908   8.963   4.491  0.00  0.00    +0.057 C 
ATOM     13  C   UNL     1       8.033   8.024   5.689  0.00  0.00    +0.042 C 
ATOM     14  C   UNL     1      10.888   5.758   4.414  0.00  0.00    +0.172 C 
ATOM     15  C   UNL     1       9.871   6.767   2.000  0.00  0.00    +0.038 A 
ATOM     16  C   UNL     1      10.967   4.845   3.165  0.00  0.00    +0.068 C 
ATOM     17  C   UNL     1      10.525   5.556   1.934  0.00  0.00    -0.016 A 
ATOM     19  C   UNL     1      10.646   5.201   0.564  0.00  0.00    +0.003 A 
ATOM     20  C   UNL     1      10.069   6.239  -0.175  0.00  0.00    +0.047 A 
ATOM     25  C   UNL     1      11.194   4.101  -0.127  0.00  0.00    +0.010 A 
ATOM     27  C   UNL     1      10.012   6.227  -1.573  0.00  0.00    +0.026 A 
ATOM     28  C   UNL     1      11.141   4.077  -1.525  0.00  0.00    +0.001 A 
ATOM     31  C   UNL     1      10.559   5.125  -2.235  0.00  0.00    +0.002 A 
ATOM     39  H   UNL     1       9.169   8.052   0.466  0.00  0.00    +0.166 HD
ENDROOT
BRANCH  10  18
ATOM      1  F   UNL     1       9.464   3.924  10.252  0.00  0.00    -0.205 F 
ATOM     18  C   UNL     1       9.418   6.387   6.940  0.00  0.00    -0.030 A 
ATOM     23  C   UNL     1       9.140   6.912   8.203  0.00  0.00    +0.008 A 
ATOM     24  C   UNL     1       9.711   5.032   6.797  0.00  0.00    +0.008 A 
ATOM     29  C   UNL     1       9.156   6.079   9.322  0.00  0.00    +0.038 A 
ATOM     30  C   UNL     1       9.726   4.199   7.916  0.00  0.00    +0.038 A 
ATOM     32  C   UNL     1       9.449   4.724   9.178  0.00  0.00    +0.123 A 
ENDBRANCH  10  18
BRANCH  14  21
ATOM      3  O   UNL     1      12.608   7.235   3.591  0.00  0.00    -0.249 OA
ATOM     21  C   UNL     1      12.114   6.621   4.527  0.00  0.00    +0.325 C 
BRANCH  21   2
ATOM      2  O   UNL     1      12.566   6.603   5.813  0.00  0.00    -0.467 OA
ATOM     35  C   UNL     1      12.940   7.876   6.351  0.00  0.00    +0.280 C 
ENDBRANCH  21   2
ENDBRANCH  14  21
BRANCH  12   6
ATOM      6  N   UNL     1       6.578   9.567   4.439  0.00  0.00    -0.312 NA
ATOM     38  H   UNL     1       5.872   8.842   4.309  0.00  0.00    +0.122 HD
BRANCH   6  22
ATOM     22  C   UNL     1       6.485  10.514   3.338  0.00  0.00    +0.096 C 
BRANCH  22  26
ATOM     26  C   UNL     1       5.057  11.036   3.212  0.00  0.00    +0.099 C 
BRANCH  26   8
ATOM      4  O   UNL     1       3.561   9.516  -0.402  0.00  0.00    -0.377 OA
ATOM      8  N   UNL     1       4.608  10.947   1.824  0.00  0.00    -0.297 NA
ATOM     33  C   UNL     1       5.429   9.988   1.072  0.00  0.00    +0.112 C 
ATOM     34  C   UNL     1       3.192  10.560   1.757  0.00  0.00    +0.112 C 
ATOM     36  C   UNL     1       4.935   9.903  -0.370  0.00  0.00    +0.175 C 
ATOM     37  C   UNL     1       2.751  10.460   0.300  0.00  0.00    +0.175 C 
ENDBRANCH  26   8
ENDBRANCH  22  26
ENDBRANCH   6  22
ENDBRANCH  12   6
TORSDOF 7
ENDMDL
MODEL 7
REMARK VINA RESULT:      -6.6     19.030     22.317
REMARK  Name = 44716470
REMARK  8 active torsions:
REMARK  status: ('A' for Active; 'I' for Inactive)
REMARK    1  A    between atoms: O_2  and  C_21
REMARK    2  A    between atoms: O_2  and  C_35
REMARK    3  A    between atoms: N_6  and  C_12
REMARK    4  A    between atoms: N_6  and  C_22
REMARK    5  A    between atoms: N_8  and  C_26
REMARK    6  A    between atoms: C_10  and  C_18
REMARK    7  A    between atoms: C_14  and  C_21
REMARK    8  A    between atoms: C_22  and  C_26
REMARK                            x       y       z     vdW  Elec       q    Type
REMARK                         _______ _______ _______ _____ _____    ______ ____
ROOT
ATOM      5  N   UNL     1      21.572   5.258  22.646  0.00  0.00    -0.274 NA
ATOM      7  N   UNL     1      18.765   7.666  21.995  0.00  0.00    -0.356 N 
ATOM      9  C   UNL     1      20.971   6.622  22.768  0.00  0.00    +0.106 C 
ATOM     10  C   UNL     1      22.827   5.132  23.430  0.00  0.00    +0.090 C 
ATOM     11  C   UNL     1      20.681   6.958  24.239  0.00  0.00    +0.044 C 
ATOM     12  C   UNL     1      21.965   6.886  25.067  0.00  0.00    +0.057 C 
ATOM     13  C   UNL     1      22.595   5.502  24.915  0.00  0.00    +0.042 C 
ATOM     14  C   UNL     1      21.667   4.791  21.236  0.00  0.00    +0.172 C 
ATOM     15  C   UNL     1      19.731   6.702  21.928  0.00  0.00    +0.038 A 
ATOM     16  C   UNL     1      20.283   4.691  20.547  0.00  0.00    +0.068 C 
ATOM     17  C   UNL     1      19.409   5.843  20.899  0.00  0.00    -0.016 A 
ATOM     19  C   UNL     1      18.178   6.280  20.338  0.00  0.00    +0.003 A 
ATOM     20  C   UNL     1      17.796   7.425  21.044  0.00  0.00    +0.047 A 
ATOM     25  C   UNL     1      17.351   5.819  19.295  0.00  0.00    +0.010 A 
ATOM     27  C   UNL     1      16.622   8.130  20.756  0.00  0.00    +0.026 A 
ATOM     28  C   UNL     1      16.173   6.515  18.998  0.00  0.00    +0.001 A 
ATOM     31  C   UNL     1      15.817   7.653  19.719  0.00  0.00    +0.002 A 
ATOM     39  H   UNL     1      18.754   8.443  22.642  0.00  0.00    +0.166 HD
ENDROOT
BRANCH  10  18
ATOM      1  F   UNL     1      25.131  -0.031  23.291  0.00  0.00    -0.205 F 
ATOM     18  C   UNL     1      23.449   3.738  23.392  0.00  0.00    -0.030 A 
ATOM     23  C   UNL     1      22.716   2.636  23.834  0.00  0.00    +0.008 A 
ATOM     24  C   UNL     1      24.749   3.567  22.917  0.00  0.00    +0.008 A 
ATOM     29  C   UNL     1      23.285   1.363  23.800  0.00  0.00    +0.038 A 
ATOM     30  C   UNL     1      25.317   2.294  22.882  0.00  0.00    +0.038 A 
ATOM     32  C   UNL     1      24.584   1.192  23.324  0.00  0.00    +0.123 A 
ENDBRANCH  10  18
BRANCH  14  21
ATOM      3  O   UNL     1      22.365   6.850  20.191  0.00  0.00    -0.249 OA
ATOM     21  C   UNL     1      22.595   5.676  20.450  0.00  0.00    +0.325 C 
BRANCH  21   2
ATOM      2  O   UNL     1      23.702   4.968  20.089  0.00  0.00    -0.467 OA
ATOM     35  C   UNL     1      24.932   5.699  20.108  0.00  0.00    +0.280 C 
ENDBRANCH  21   2
ENDBRANCH  14  21
BRANCH  12   6
ATOM      6  N   UNL     1      21.674   7.175  26.470  0.00  0.00    -0.312 NA
ATOM     38  H   UNL     1      22.415   6.801  27.062  0.00  0.00    +0.122 HD
BRANCH   6  22
ATOM     22  C   UNL     1      20.409   6.578  26.869  0.00  0.00    +0.096 C 
BRANCH  22  26
ATOM     26  C   UNL     1      20.530   5.969  28.262  0.00  0.00    +0.099 C 
BRANCH  26   8
ATOM      4  O   UNL     1      18.788   7.844  31.588  0.00  0.00    -0.377 OA
ATOM      8  N   UNL     1      19.543   6.564  29.160  0.00  0.00    -0.297 NA
ATOM     33  C   UNL     1      19.484   5.828  30.431  0.00  0.00    +0.112 C 
ATOM     34  C   UNL     1      19.851   7.979  29.411  0.00  0.00    +0.112 C 
ATOM     36  C   UNL     1      18.456   6.474  31.356  0.00  0.00    +0.175 C 
ATOM     37  C   UNL     1      18.816   8.574  30.362  0.00  0.00    +0.175 C 
ENDBRANCH  26   8
ENDBRANCH  22  26
ENDBRANCH   6  22
ENDBRANCH  12   6
TORSDOF 7
ENDMDL
MODEL 8
REMARK VINA RESULT:      -6.6      3.578      7.779
REMARK  Name = 44716470
REMARK  8 active torsions:
REMARK  status: ('A' for Active; 'I' for Inactive)
REMARK    1  A    between atoms: O_2  and  C_21
REMARK    2  A    between atoms: O_2  and  C_35
REMARK    3  A    between atoms: N_6  and  C_12
REMARK    4  A    between atoms: N_6  and  C_22
REMARK    5  A    between atoms: N_8  and  C_26
REMARK    6  A    between atoms: C_10  and  C_18
REMARK    7  A    between atoms: C_14  and  C_21
REMARK    8  A    between atoms: C_22  and  C_26
REMARK                            x       y       z     vdW  Elec       q    Type
REMARK                         _______ _______ _______ _____ _____    ______ ____
ROOT
ATOM      5  N   UNL     1      12.450   5.818   1.839  0.00  0.00    -0.274 NA
ATOM      7  N   UNL     1      12.408   6.936   5.424  0.00  0.00    -0.356 N 
ATOM      9  C   UNL     1      12.803   6.813   2.898  0.00  0.00    +0.106 C 
ATOM     10  C   UNL     1      13.072   6.152   0.533  0.00  0.00    +0.090 C 
ATOM     11  C   UNL     1      14.327   6.902   3.073  0.00  0.00    +0.044 C 
ATOM     12  C   UNL     1      14.995   7.293   1.755  0.00  0.00    +0.057 C 
ATOM     13  C   UNL     1      14.608   6.294   0.667  0.00  0.00    +0.042 C 
ATOM     14  C   UNL     1      10.991   5.528   1.780  0.00  0.00    +0.172 C 
ATOM     15  C   UNL     1      12.118   6.447   4.181  0.00  0.00    +0.038 A 
ATOM     16  C   UNL     1      10.449   4.928   3.103  0.00  0.00    +0.068 C 
ATOM     17  C   UNL     1      11.033   5.606   4.293  0.00  0.00    -0.016 A 
ATOM     19  C   UNL     1      10.666   5.549   5.665  0.00  0.00    +0.003 A 
ATOM     20  C   UNL     1      11.545   6.393   6.353  0.00  0.00    +0.047 A 
ATOM     25  C   UNL     1       9.670   4.869   6.393  0.00  0.00    +0.010 A 
ATOM     27  C   UNL     1      11.475   6.585   7.737  0.00  0.00    +0.026 A 
ATOM     28  C   UNL     1       9.591   5.052   7.778  0.00  0.00    +0.001 A 
ATOM     31  C   UNL     1      10.480   5.898   8.438  0.00  0.00    +0.002 A 
ATOM     39  H   UNL     1      13.143   7.595   5.640  0.00  0.00    +0.166 HD
ENDROOT
BRANCH  10  18
ATOM      1  F   UNL     1      12.050   2.372  -3.548  0.00  0.00    -0.205 F 
ATOM     18  C   UNL     1      12.796   5.132  -0.569  0.00  0.00    -0.030 A 
ATOM     23  C   UNL     1      12.977   3.771  -0.319  0.00  0.00    +0.008 A 
ATOM     24  C   UNL     1      12.362   5.560  -1.823  0.00  0.00    +0.008 A 
ATOM     29  C   UNL     1      12.726   2.839  -1.327  0.00  0.00    +0.038 A 
ATOM     30  C   UNL     1      12.110   4.627  -2.830  0.00  0.00    +0.038 A 
ATOM     32  C   UNL     1      12.292   3.267  -2.581  0.00  0.00    +0.123 A 
ENDBRANCH  10  18
BRANCH  14  21
ATOM      3  O   UNL     1      10.483   7.455   0.422  0.00  0.00    -0.249 OA
ATOM     21  C   UNL     1      10.224   6.763   1.397  0.00  0.00    +0.325 C 
BRANCH  21   2
ATOM      2  O   UNL     1       9.221   6.974   2.296  0.00  0.00    -0.467 OA
ATOM     35  C   UNL     1       8.957   8.344   2.613  0.00  0.00    +0.280 C 
ENDBRANCH  21   2
ENDBRANCH  14  21
BRANCH  12   6
ATOM      6  N   UNL     1      16.447   7.344   1.924  0.00  0.00    -0.312 NA
ATOM     38  H   UNL     1      16.837   6.404   1.849  0.00  0.00    +0.122 HD
BRANCH   6  22
ATOM     22  C   UNL     1      16.796   7.895   3.224  0.00  0.00    +0.096 C 
BRANCH  22  26
ATOM     26  C   UNL     1      18.225   8.428   3.203  0.00  0.00    +0.099 C 
BRANCH  26   8
ATOM      4  O   UNL     1      21.098   8.066   6.241  0.00  0.00    -0.377 OA
ATOM      8  N   UNL     1      18.966   7.929   4.360  0.00  0.00    -0.297 NA
ATOM     33  C   UNL     1      20.344   7.584   3.986  0.00  0.00    +0.112 C 
ATOM     34  C   UNL     1      18.972   8.922   5.443  0.00  0.00    +0.112 C 
ATOM     36  C   UNL     1      21.101   7.077   5.211  0.00  0.00    +0.175 C 
ATOM     37  C   UNL     1      19.762   8.385   6.634  0.00  0.00    +0.175 C 
ENDBRANCH  26   8
ENDBRANCH  22  26
ENDBRANCH   6  22
ENDBRANCH  12   6
TORSDOF 7
ENDMDL
MODEL 9
REMARK VINA RESULT:      -6.4     23.018     26.677
REMARK  Name = 44716470
REMARK  8 active torsions:
REMARK  status: ('A' for Active; 'I' for Inactive)
REMARK    1  A    between atoms: O_2  and  C_21
REMARK    2  A    between atoms: O_2  and  C_35
REMARK    3  A    between atoms: N_6  and  C_12
REMARK    4  A    between atoms: N_6  and  C_22
REMARK    5  A    between atoms: N_8  and  C_26
REMARK    6  A    between atoms: C_10  and  C_18
REMARK    7  A    between atoms: C_14  and  C_21
REMARK    8  A    between atoms: C_22  and  C_26
REMARK                            x       y       z     vdW  Elec       q    Type
REMARK                         _______ _______ _______ _____ _____    ______ ____
ROOT
ATOM      5  N   UNL     1      16.689  -7.428  25.836  0.00  0.00    -0.274 NA
ATOM      7  N   UNL     1      17.329  -3.750  26.243  0.00  0.00    -0.356 N 
ATOM      9  C   UNL     1      17.116  -6.265  26.673  0.00  0.00    +0.106 C 
ATOM     10  C   UNL     1      16.586  -8.677  26.633  0.00  0.00    +0.090 C 
ATOM     11  C   UNL     1      16.136  -6.042  27.835  0.00  0.00    +0.044 C 
ATOM     12  C   UNL     1      16.044  -7.295  28.705  0.00  0.00    +0.057 C 
ATOM     13  C   UNL     1      15.639  -8.489  27.843  0.00  0.00    +0.042 C 
ATOM     14  C   UNL     1      17.471  -7.554  24.576  0.00  0.00    +0.172 C 
ATOM     15  C   UNL     1      17.240  -5.044  25.811  0.00  0.00    +0.038 A 
ATOM     16  C   UNL     1      17.324  -6.314  23.658  0.00  0.00    +0.068 C 
ATOM     17  C   UNL     1      17.354  -5.046  24.438  0.00  0.00    -0.016 A 
ATOM     19  C   UNL     1      17.483  -3.697  24.010  0.00  0.00    +0.003 A 
ATOM     20  C   UNL     1      17.464  -2.904  25.162  0.00  0.00    +0.047 A 
ATOM     25  C   UNL     1      17.621  -3.067  22.757  0.00  0.00    +0.010 A 
ATOM     27  C   UNL     1      17.573  -1.510  25.118  0.00  0.00    +0.026 A 
ATOM     28  C   UNL     1      17.729  -1.674  22.700  0.00  0.00    +0.001 A 
ATOM     31  C   UNL     1      17.706  -0.909  23.864  0.00  0.00    +0.002 A 
ATOM     39  H   UNL     1      17.300  -3.449  27.207  0.00  0.00    +0.166 HD
ENDROOT
BRANCH  10  18
ATOM      1  F   UNL     1      14.748 -13.147  23.696  0.00  0.00    -0.205 F 
ATOM     18  C   UNL     1      16.090  -9.884  25.840  0.00  0.00    -0.030 A 
ATOM     23  C   UNL     1      14.801  -9.885  25.307  0.00  0.00    +0.008 A 
ATOM     24  C   UNL     1      16.926 -10.984  25.648  0.00  0.00    +0.008 A 
ATOM     29  C   UNL     1      14.348 -10.988  24.583  0.00  0.00    +0.038 A 
ATOM     30  C   UNL     1      16.473 -12.086  24.924  0.00  0.00    +0.038 A 
ATOM     32  C   UNL     1      15.183 -12.088  24.392  0.00  0.00    +0.123 A 
ENDBRANCH  10  18
BRANCH  14  21
ATOM      3  O   UNL     1      19.307  -8.429  25.872  0.00  0.00    -0.249 OA
ATOM     21  C   UNL     1      18.917  -7.828  24.880  0.00  0.00    +0.325 C 
BRANCH  21   2
ATOM      2  O   UNL     1      19.697  -7.308  23.890  0.00  0.00    -0.467 OA
ATOM     35  C   UNL     1      20.981  -7.921  23.733  0.00  0.00    +0.280 C 
ENDBRANCH  21   2
ENDBRANCH  14  21
BRANCH  12   6
ATOM      6  N   UNL     1      15.086  -7.085  29.789  0.00  0.00    -0.312 NA
ATOM     38  H   UNL     1      14.142  -7.295  29.463  0.00  0.00    +0.122 HD
BRANCH   6  22
ATOM     22  C   UNL     1      15.125  -5.707  30.252  0.00  0.00    +0.096 C 
BRANCH  22  26
ATOM     26  C   UNL     1      15.979  -5.599  31.512  0.00  0.00    +0.099 C 
BRANCH  26   8
ATOM      4  O   UNL     1      16.317  -1.442  31.978  0.00  0.00    -0.377 OA
ATOM      8  N   UNL     1      16.546  -4.257  31.623  0.00  0.00    -0.297 NA
ATOM     33  C   UNL     1      16.036  -3.386  30.554  0.00  0.00    +0.112 C 
ATOM     34  C   UNL     1      16.247  -3.670  32.936  0.00  0.00    +0.112 C 
ATOM     36  C   UNL     1      16.633  -1.988  30.697  0.00  0.00    +0.175 C 
ATOM     37  C   UNL     1      16.837  -2.265  33.022  0.00  0.00    +0.175 C 
ENDBRANCH  26   8
ENDBRANCH  22  26
ENDBRANCH   6  22
ENDBRANCH  12   6
TORSDOF 7
ENDMDL
MODEL 10
REMARK VINA RESULT:      -6.4      1.527      2.317
REMARK  Name = 44716470
REMARK  8 active torsions:
REMARK  status: ('A' for Active; 'I' for Inactive)
REMARK    1  A    between atoms: O_2  and  C_21
REMARK    2  A    between atoms: O_2  and  C_35
REMARK    3  A    between atoms: N_6  and  C_12
REMARK    4  A    between atoms: N_6  and  C_22
REMARK    5  A    between atoms: N_8  and  C_26
REMARK    6  A    between atoms: C_10  and  C_18
REMARK    7  A    between atoms: C_14  and  C_21
REMARK    8  A    between atoms: C_22  and  C_26
REMARK                            x       y       z     vdW  Elec       q    Type
REMARK                         _______ _______ _______ _____ _____    ______ ____
ROOT
ATOM      5  N   UNL     1      13.239   7.350   4.946  0.00  0.00    -0.274 NA
ATOM      7  N   UNL     1      16.562   7.715   3.233  0.00  0.00    -0.356 N 
ATOM      9  C   UNL     1      14.053   7.508   3.701  0.00  0.00    +0.106 C 
ATOM     10  C   UNL     1      11.805   7.106   4.644  0.00  0.00    +0.090 C 
ATOM     11  C   UNL     1      13.930   6.263   2.809  0.00  0.00    +0.044 C 
ATOM     12  C   UNL     1      12.468   6.013   2.439  0.00  0.00    +0.057 C 
ATOM     13  C   UNL     1      11.633   5.882   3.711  0.00  0.00    +0.042 C 
ATOM     14  C   UNL     1      13.493   8.423   5.945  0.00  0.00    +0.172 C 
ATOM     15  C   UNL     1      15.480   7.789   4.066  0.00  0.00    +0.038 A 
ATOM     16  C   UNL     1      14.967   8.455   6.422  0.00  0.00    +0.068 C 
ATOM     17  C   UNL     1      15.915   8.239   5.294  0.00  0.00    -0.016 A 
ATOM     19  C   UNL     1      17.323   8.413   5.220  0.00  0.00    +0.003 A 
ATOM     20  C   UNL     1      17.704   8.077   3.916  0.00  0.00    +0.047 A 
ATOM     25  C   UNL     1      18.316   8.828   6.129  0.00  0.00    +0.010 A 
ATOM     27  C   UNL     1      19.032   8.135   3.481  0.00  0.00    +0.026 A 
ATOM     28  C   UNL     1      19.649   8.889   5.706  0.00  0.00    +0.001 A 
ATOM     31  C   UNL     1      19.999   8.547   4.402  0.00  0.00    +0.002 A 
ATOM     39  H   UNL     1      16.537   7.436   2.262  0.00  0.00    +0.166 HD
ENDROOT
BRANCH  10  18
ATOM      1  F   UNL     1       8.595   6.240   9.219  0.00  0.00    -0.205 F 
ATOM     18  C   UNL     1      10.939   6.872   5.879  0.00  0.00    -0.030 A 
ATOM     23  C   UNL     1       9.749   7.583   6.040  0.00  0.00    +0.008 A 
ATOM     24  C   UNL     1      11.337   5.949   6.845  0.00  0.00    +0.008 A 
ATOM     29  C   UNL     1       8.957   7.369   7.169  0.00  0.00    +0.038 A 
ATOM     30  C   UNL     1      10.545   5.735   7.974  0.00  0.00    +0.038 A 
ATOM     32  C   UNL     1       9.355   6.446   8.135  0.00  0.00    +0.123 A 
ENDBRANCH  10  18
BRANCH  14  21
ATOM      3  O   UNL     1      13.643  10.329   4.475  0.00  0.00    -0.249 OA
ATOM     21  C   UNL     1      13.077   9.760   5.398  0.00  0.00    +0.325 C 
BRANCH  21   2
ATOM      2  O   UNL     1      11.991  10.215   6.087  0.00  0.00    -0.467 OA
ATOM     35  C   UNL     1      12.086  10.126   7.512  0.00  0.00    +0.280 C 
ENDBRANCH  21   2
ENDBRANCH  14  21
BRANCH  12   6
ATOM      6  N   UNL     1      12.358   4.809   1.617  0.00  0.00    -0.312 NA
ATOM     38  H   UNL     1      11.852   4.085   2.128  0.00  0.00    +0.122 HD
BRANCH   6  22
ATOM     22  C   UNL     1      13.675   4.301   1.267  0.00  0.00    +0.096 C 
BRANCH  22  26
ATOM     26  C   UNL     1      13.613   3.542  -0.055  0.00  0.00    +0.099 C 
BRANCH  26   8
ATOM      4  O   UNL     1      16.728   5.833  -1.685  0.00  0.00    -0.377 OA
ATOM      8  N   UNL     1      14.641   4.035  -0.969  0.00  0.00    -0.297 NA
ATOM     33  C   UNL     1      14.358   5.419  -1.373  0.00  0.00    +0.112 C 
ATOM     34  C   UNL     1      15.972   3.953  -0.350  0.00  0.00    +0.112 C 
ATOM     36  C   UNL     1      15.450   5.916  -2.317  0.00  0.00    +0.175 C 
ATOM     37  C   UNL     1      17.026   4.486  -1.317  0.00  0.00    +0.175 C 
ENDBRANCH  26   8
ENDBRANCH  22  26
ENDBRANCH   6  22
ENDBRANCH  12   6
TORSDOF 7
ENDMDL
