REMARK  Name = 40779327
REMARK  6 active torsions:
REMARK  status: ('A' for Active; 'I' for Inactive)
REMARK    1  A    between atoms: N_4  and  C_14
REMARK    2  A    between atoms: N_5  and  C_22
REMARK    3  A    between atoms: C_8  and  C_15
REMARK    4  A    between atoms: C_9  and  C_14
REMARK    5  A    between atoms: C_17  and  C_18
REMARK    6  A    between atoms: C_19  and  C_26
REMARK                            x       y       z     vdW  Elec       q    Type
REMARK                         _______ _______ _______ _____ _____    ______ ____
ROOT
ATOM      3  N   UNL     1      -0.760   2.844  -0.745  0.00  0.00    -0.297 NA
ATOM      7  C   UNL     1       0.311   1.932   1.447  0.00  0.00    +0.002 C 
ATOM      8  C   UNL     1       1.411   2.253   0.398  0.00  0.00    +0.055 C 
ATOM      9  C   UNL     1      -1.441   1.589  -0.330  0.00  0.00    +0.074 C 
ATOM     10  C   UNL     1      -0.691   0.925   0.845  0.00  0.00    +0.024 C 
ATOM     11  C   UNL     1      -0.462   3.245   1.698  0.00  0.00    +0.019 C 
ATOM     12  C   UNL     1       0.691   2.595  -0.938  0.00  0.00    +0.094 C 
ATOM     13  C   UNL     1      -0.918   3.830   0.351  0.00  0.00    +0.085 C 
ENDROOT
BRANCH   8  15
ATOM      5  N   UNL     1       3.799   1.605  -0.167  0.00  0.00    -0.270 N 
ATOM      6  N   UNL     1       4.645   0.568  -0.283  0.00  0.00    -0.168 NA
ATOM     15  C   UNL     1       2.536   1.247   0.206  0.00  0.00    +0.044 A 
ATOM     16  C   UNL     1       2.559  -0.120   0.343  0.00  0.00    +0.056 A 
ATOM     19  C   UNL     1       3.882  -0.483   0.030  0.00  0.00    +0.128 A 
ATOM     22  C   UNL     1       4.279   2.941  -0.434  0.00  0.00    +0.172 C 
BRANCH  19  26
ATOM      2  O   UNL     1       3.690  -2.961   0.343  0.00  0.00    -0.461 OA
ATOM     26  C   UNL     1       4.418  -1.856   0.033  0.00  0.00    +0.155 A 
ATOM     27  C   UNL     1       5.713  -2.201  -0.275  0.00  0.00    +0.051 A 
ATOM     28  C   UNL     1       5.786  -3.609  -0.145  0.00  0.00    +0.042 A 
ATOM     29  C   UNL     1       4.530  -4.024   0.233  0.00  0.00    +0.196 A 
ENDBRANCH  19  26
ENDBRANCH   8  15
BRANCH   9  14
ATOM     14  C   UNL     1      -1.642   0.621  -1.498  0.00  0.00    +0.123 C 
BRANCH  14   4
ATOM      1  O   UNL     1      -4.527   0.305  -1.565  0.00  0.00    -0.276 OA
ATOM      4  N   UNL     1      -2.401  -0.520  -1.091  0.00  0.00    -0.314 N 
ATOM     18  C   UNL     1      -3.790  -0.588  -1.156  0.00  0.00    +0.216 C 
ATOM     30  H   UNL     1      -1.878  -1.338  -0.792  0.00  0.00    +0.149 HD
BRANCH  18  17
ATOM     17  C   UNL     1      -4.330  -1.909  -0.689  0.00  0.00    +0.075 C 
ATOM     20  C   UNL     1      -3.911  -2.194   0.754  0.00  0.00    +0.013 C 
ATOM     21  C   UNL     1      -5.847  -1.957  -0.886  0.00  0.00    +0.013 C 
ATOM     23  C   UNL     1      -4.707  -1.396   1.787  0.00  0.00    +0.001 C 
ATOM     24  C   UNL     1      -6.612  -1.147   0.158  0.00  0.00    +0.001 C 
ATOM     25  C   UNL     1      -6.210  -1.534   1.576  0.00  0.00    +0.000 C 
ENDBRANCH  18  17
ENDBRANCH  14   4
ENDBRANCH   9  14
TORSDOF 5
