REMARK  Name = 45784407
REMARK  14 active torsions:
REMARK  status: ('A' for Active; 'I' for Inactive)
REMARK    1  A    between atoms: O_1  and  C_11
REMARK    2  A    between atoms: O_4  and  C_24
REMARK    3  A    between atoms: O_4  and  C_28
REMARK    4  A    between atoms: N_5  and  C_15
REMARK    5  A    between atoms: N_6  and  C_25
REMARK    6  A    between atoms: N_6  and  C_26
REMARK    7  A    between atoms: C_8  and  C_18
REMARK    8  A    between atoms: C_10  and  C_20
REMARK    9  A    between atoms: C_13  and  C_19
REMARK   10  A    between atoms: C_19  and  C_21
REMARK   11  A    between atoms: C_19  and  C_22
REMARK   12  A    between atoms: C_23  and  C_24
REMARK   13  A    between atoms: C_25  and  C_27
REMARK   14  A    between atoms: C_27  and  C_29
REMARK                            x       y       z     vdW  Elec       q    Type
REMARK                         _______ _______ _______ _____ _____    ______ ____
ROOT
ATOM      8  C   UNL     1      -0.742  -1.985   0.257  0.00  0.00    -0.027 C 
ATOM      9  C   UNL     1      -0.620  -0.446   0.003  0.00  0.00    +0.028 C 
ATOM     10  C   UNL     1      -1.941   0.123  -0.629  0.00  0.00    +0.012 C 
ATOM     11  C   UNL     1       0.689  -0.103  -0.765  0.00  0.00    +0.122 C 
ATOM     12  C   UNL     1       0.528  -2.491   0.981  0.00  0.00    +0.007 C 
ATOM     13  C   UNL     1       1.947  -0.700  -0.092  0.00  0.00    +0.029 C 
ATOM     14  C   UNL     1      -1.950  -2.249   1.186  0.00  0.00    +0.009 C 
ATOM     15  C   UNL     1      -3.159  -0.213   0.277  0.00  0.00    +0.076 C 
ATOM     16  C   UNL     1       1.809  -2.192   0.213  0.00  0.00    +0.007 C 
ATOM     17  C   UNL     1      -3.257  -1.695   0.638  0.00  0.00    +0.023 C 
ATOM     18  C   UNL     1      -0.922  -2.791  -1.054  0.00  0.00    +0.011 C 
ATOM     20  C   UNL     1      -1.901   1.640  -0.879  0.00  0.00    +0.010 C 
ENDROOT
BRANCH  15   5
ATOM      3  O   UNL     1      -5.546   0.697   1.633  0.00  0.00    -0.273 OA
ATOM      5  N   UNL     1      -4.408   0.194  -0.331  0.00  0.00    -0.310 N 
ATOM     23  C   UNL     1      -5.500   0.616   0.408  0.00  0.00    +0.239 C 
ATOM     30  H   UNL     1      -4.500   0.104  -1.339  0.00  0.00    +0.149 HD
BRANCH  23  24
ATOM     24  C   UNL     1      -6.668   0.982  -0.481  0.00  0.00    +0.255 C 
BRANCH  24   4
ATOM      4  O   UNL     1      -7.765   1.422   0.291  0.00  0.00    -0.374 OA
ATOM     28  C   UNL     1      -8.881   1.774  -0.522  0.00  0.00    +0.194 C 
ENDBRANCH  24   4
ENDBRANCH  23  24
ENDBRANCH  15   5
BRANCH  11   1
ATOM      1  O   UNL     1       0.872   1.313  -0.788  0.00  0.00    -0.391 OA
ATOM     31  H   UNL     1       0.935   1.625   0.131  0.00  0.00    +0.210 HD
ENDBRANCH  11   1
BRANCH  13  19
ATOM     19  C   UNL     1       3.208  -0.463  -0.931  0.00  0.00    +0.078 C 
ATOM     21  C   UNL     1       3.042  -1.127  -2.299  0.00  0.00    +0.017 C 
BRANCH  19  22
ATOM      2  O   UNL     1       4.763  -2.195  -0.369  0.00  0.00    -0.275 OA
ATOM      6  N   UNL     1       5.118  -0.157   0.667  0.00  0.00    -0.303 N 
ATOM     22  C   UNL     1       4.431  -1.017  -0.196  0.00  0.00    +0.219 C 
ATOM     26  C   UNL     1       6.275  -0.660   1.400  0.00  0.00    +0.132 C 
BRANCH   6  25
ATOM     25  C   UNL     1       4.814   1.253   0.901  0.00  0.00    +0.122 C 
BRANCH  25  27
ATOM     27  C   UNL     1       5.561   2.176  -0.055  0.00  0.00    +0.137 C 
BRANCH  27  29
ATOM      7  N   UNL     1       4.972   4.705   0.361  0.00  0.00    -0.197 NA
ATOM     29  C   UNL     1       5.231   3.589   0.178  0.00  0.00    +0.064 C 
ENDBRANCH  27  29
ENDBRANCH  25  27
ENDBRANCH   6  25
ENDBRANCH  19  22
ENDBRANCH  13  19
TORSDOF 9
