REMARK  Name = 40587832
REMARK  6 active torsions:
REMARK  status: ('A' for Active; 'I' for Inactive)
REMARK    1  A    between atoms: O_5  and  C_30
REMARK    2  A    between atoms: O_5  and  C_34
REMARK    3  A    between atoms: N_8  and  C_14
REMARK    4  A    between atoms: C_10  and  C_15
REMARK    5  A    between atoms: C_18  and  C_22
REMARK    6  A    between atoms: C_21  and  C_23
REMARK                            x       y       z     vdW  Elec       q    Type
REMARK                         _______ _______ _______ _____ _____    ______ ____
ROOT
ATOM      2  O   UNL     1      -1.836   4.147  -0.814  0.00  0.00    -0.270 OA
ATOM      4  O   UNL     1       4.627   1.449  -1.626  0.00  0.00    -0.270 OA
ATOM      6  N   UNL     1      -0.199   2.515  -0.432  0.00  0.00    -0.283 N 
ATOM      7  N   UNL     1       2.577   1.616  -0.519  0.00  0.00    -0.294 N 
ATOM     10  C   UNL     1       0.200   1.240   0.181  0.00  0.00    +0.179 C 
ATOM     11  C   UNL     1       1.679   1.203   0.571  0.00  0.00    +0.140 C 
ATOM     12  C   UNL     1       0.872   3.362  -0.959  0.00  0.00    +0.128 C 
ATOM     13  C   UNL     1       2.040   2.554  -1.503  0.00  0.00    +0.127 C 
ATOM     18  C   UNL     1      -1.502   3.031  -0.418  0.00  0.00    +0.247 C 
ATOM     21  C   UNL     1       3.881   1.140  -0.697  0.00  0.00    +0.247 C 
ENDROOT
BRANCH  18  22
ATOM     22  C   UNL     1      -2.576   2.182   0.111  0.00  0.00    +0.037 A 
ATOM     24  C   UNL     1      -2.897   2.228   1.468  0.00  0.00    +0.016 A 
ATOM     25  C   UNL     1      -3.276   1.329  -0.742  0.00  0.00    +0.016 A 
ATOM     28  C   UNL     1      -3.917   1.421   1.972  0.00  0.00    +0.046 A 
ATOM     29  C   UNL     1      -4.296   0.522  -0.238  0.00  0.00    +0.046 A 
ATOM     30  C   UNL     1      -4.617   0.568   1.119  0.00  0.00    +0.120 A 
BRANCH  30   5
ATOM      5  O   UNL     1      -5.612  -0.220   1.610  0.00  0.00    -0.495 OA
ATOM     34  C   UNL     1      -6.286  -1.068   0.682  0.00  0.00    +0.277 C 
ENDBRANCH  30   5
ENDBRANCH  18  22
BRANCH  21  23
ATOM     23  C   UNL     1       4.423   0.202   0.299  0.00  0.00    +0.037 A 
ATOM     26  C   UNL     1       4.253  -1.172   0.129  0.00  0.00    +0.013 A 
ATOM     27  C   UNL     1       5.107   0.687   1.414  0.00  0.00    +0.013 A 
ATOM     31  C   UNL     1       4.768  -2.061   1.072  0.00  0.00    +0.001 A 
ATOM     32  C   UNL     1       5.622  -0.202   2.357  0.00  0.00    +0.001 A 
ATOM     33  C   UNL     1       5.453  -1.576   2.186  0.00  0.00    +0.000 A 
ENDBRANCH  21  23
BRANCH  10  15
ATOM      1  O   UNL     1      -0.043   0.316  -2.010  0.00  0.00    -0.274 OA
ATOM      8  N   UNL     1      -0.455  -1.040  -0.163  0.00  0.00    -0.302 N 
ATOM     15  C   UNL     1      -0.100   0.139  -0.796  0.00  0.00    +0.236 C 
ATOM     35  H   UNL     1      -0.440  -1.079   0.852  0.00  0.00    +0.150 HD
BRANCH   8  14
ATOM      3  O   UNL     1      -2.759  -2.327   0.548  0.00  0.00    -0.274 OA
ATOM      9  N   UNL     1      -1.946  -4.324  -0.205  0.00  0.00    -0.314 N 
ATOM     14  C   UNL     1      -0.811  -2.240  -0.875  0.00  0.00    +0.159 C 
ATOM     16  C   UNL     1       0.419  -3.092  -1.152  0.00  0.00    +0.033 C 
ATOM     17  C   UNL     1      -0.007  -4.426  -1.744  0.00  0.00    +0.021 C 
ATOM     19  C   UNL     1      -0.885  -5.154  -0.745  0.00  0.00    +0.104 C 
ATOM     20  C   UNL     1      -1.902  -2.950  -0.082  0.00  0.00    +0.233 C 
ATOM     36  H   UNL     1      -2.704  -4.803   0.273  0.00  0.00    +0.149 HD
ENDBRANCH   8  14
ENDBRANCH  10  15
TORSDOF 5
