MODEL 1
REMARK VINA RESULT:      -7.7      0.000      0.000
REMARK  Name = 11941698
REMARK  5 active torsions:
REMARK  status: ('A' for Active; 'I' for Inactive)
REMARK    1  A    between atoms: O_3  and  C_18
REMARK    2  A    between atoms: O_3  and  C_25
REMARK    3  A    between atoms: C_15  and  C_18
REMARK    4  A    between atoms: C_16  and  C_19
REMARK    5  A    between atoms: C_20  and  C_23
REMARK                            x       y       z     vdW  Elec       q    Type
REMARK                         _______ _______ _______ _____ _____    ______ ____
ROOT
ATOM      1  O   UNL     1      10.763   9.873  22.302  0.00  0.00    -0.267 OA
ATOM      2  O   UNL     1      14.982   6.845  21.027  0.00  0.00    -0.272 OA
ATOM      4  N   UNL     1      14.316   8.132  19.211  0.00  0.00    -0.298 N 
ATOM      5  N   UNL     1      11.916   9.949  20.276  0.00  0.00    -0.311 N 
ATOM      6  C   UNL     1      11.896   8.007  18.608  0.00  0.00    +0.027 C 
ATOM      7  C   UNL     1      13.178  10.044  18.099  0.00  0.00    +0.054 C 
ATOM      8  C   UNL     1      12.113   9.091  17.558  0.00  0.00    +0.018 C 
ATOM      9  C   UNL     1      13.204   7.242  18.872  0.00  0.00    +0.113 C 
ATOM     10  C   UNL     1      11.340   8.656  19.881  0.00  0.00    +0.130 C 
ATOM     11  C   UNL     1      14.499   9.277  18.307  0.00  0.00    +0.117 C 
ATOM     12  C   UNL     1      12.736  10.672  19.407  0.00  0.00    +0.027 A 
ATOM     13  C   UNL     1      13.152  11.903  19.742  0.00  0.00    +0.022 A 
ATOM     14  C   UNL     1      11.512  10.466  21.524  0.00  0.00    +0.259 A 
ATOM     15  C   UNL     1      15.154   7.811  20.280  0.00  0.00    +0.253 C 
ATOM     16  C   UNL     1      12.025  11.833  21.887  0.00  0.00    +0.047 A 
ATOM     17  C   UNL     1      12.794  12.486  21.003  0.00  0.00    +0.015 A 
ENDROOT
BRANCH  16  19
ATOM     19  C   UNL     1      11.704  12.448  23.186  0.00  0.00    -0.010 A 
ATOM     20  C   UNL     1      12.527  12.271  24.300  0.00  0.00    -0.043 A 
ATOM     21  C   UNL     1      10.548  13.225  23.295  0.00  0.00    +0.009 A 
ATOM     22  C   UNL     1      12.197  12.868  25.516  0.00  0.00    +0.004 A 
ATOM     23  C   UNL     1      13.773  11.448  24.223  0.00  0.00    +0.044 C 
ATOM     24  C   UNL     1      10.218  13.821  24.512  0.00  0.00    +0.001 A 
ATOM     26  C   UNL     1      11.042  13.642  25.623  0.00  0.00    +0.000 A 
ENDBRANCH  16  19
BRANCH  15  18
ATOM     18  C   UNL     1      16.328   8.726  20.516  0.00  0.00    +0.324 C 
BRANCH  18   3
ATOM      3  O   UNL     1      17.056   8.177  21.587  0.00  0.00    -0.483 OA
BRANCH   3  25
ATOM     25  C   UNL     1      18.338   7.746  21.326  0.00  0.00    +0.121 A 
ATOM     27  C   UNL     1      18.543   6.452  20.871  0.00  0.00    +0.045 A 
ATOM     28  C   UNL     1      19.402   8.614  21.521  0.00  0.00    +0.045 A 
ATOM     29  C   UNL     1      19.840   6.015  20.608  0.00  0.00    +0.004 A 
ATOM     30  C   UNL     1      20.700   8.178  21.256  0.00  0.00    +0.004 A 
ATOM     31  C   UNL     1      20.919   6.878  20.800  0.00  0.00    +0.000 A 
ENDBRANCH   3  25
ENDBRANCH  18   3
ENDBRANCH  15  18
TORSDOF 4
ENDMDL
MODEL 2
REMARK VINA RESULT:      -7.6     15.951     19.075
REMARK  Name = 11941698
REMARK  5 active torsions:
REMARK  status: ('A' for Active; 'I' for Inactive)
REMARK    1  A    between atoms: O_3  and  C_18
REMARK    2  A    between atoms: O_3  and  C_25
REMARK    3  A    between atoms: C_15  and  C_18
REMARK    4  A    between atoms: C_16  and  C_19
REMARK    5  A    between atoms: C_20  and  C_23
REMARK                            x       y       z     vdW  Elec       q    Type
REMARK                         _______ _______ _______ _____ _____    ______ ____
ROOT
ATOM      1  O   UNL     1       8.246   6.585   4.893  0.00  0.00    -0.267 OA
ATOM      2  O   UNL     1       9.942   3.990   0.536  0.00  0.00    -0.272 OA
ATOM      4  N   UNL     1      11.080   5.999   0.790  0.00  0.00    -0.298 N 
ATOM      5  N   UNL     1      10.011   7.255   3.524  0.00  0.00    -0.311 N 
ATOM      6  C   UNL     1       9.663   8.030   1.109  0.00  0.00    +0.027 C 
ATOM      7  C   UNL     1      11.932   7.964   2.057  0.00  0.00    +0.054 C 
ATOM      8  C   UNL     1      10.921   8.858   1.341  0.00  0.00    +0.018 C 
ATOM      9  C   UNL     1       9.981   6.796   0.246  0.00  0.00    +0.113 C 
ATOM     10  C   UNL     1       9.067   7.645   2.468  0.00  0.00    +0.130 C 
ATOM     11  C   UNL     1      12.283   6.761   1.159  0.00  0.00    +0.117 C 
ATOM     12  C   UNL     1      11.384   7.472   3.383  0.00  0.00    +0.027 A 
ATOM     13  C   UNL     1      12.214   7.221   4.407  0.00  0.00    +0.022 A 
ATOM     14  C   UNL     1       9.454   6.757   4.719  0.00  0.00    +0.259 A 
ATOM     15  C   UNL     1      10.960   4.610   0.850  0.00  0.00    +0.253 C 
ATOM     16  C   UNL     1      10.414   6.449   5.836  0.00  0.00    +0.047 A 
ATOM     17  C   UNL     1      11.719   6.697   5.648  0.00  0.00    +0.015 A 
ENDROOT
BRANCH  16  19
ATOM     19  C   UNL     1       9.945   5.880   7.111  0.00  0.00    -0.010 A 
ATOM     20  C   UNL     1       9.375   6.683   8.101  0.00  0.00    -0.043 A 
ATOM     21  C   UNL     1      10.077   4.506   7.324  0.00  0.00    +0.009 A 
ATOM     22  C   UNL     1       8.939   6.116   9.298  0.00  0.00    +0.004 A 
ATOM     23  C   UNL     1       9.216   8.158   7.910  0.00  0.00    +0.044 C 
ATOM     24  C   UNL     1       9.642   3.939   8.522  0.00  0.00    +0.001 A 
ATOM     26  C   UNL     1       9.073   4.744   9.508  0.00  0.00    +0.000 A 
ENDBRANCH  16  19
BRANCH  15  18
ATOM     18  C   UNL     1      12.165   3.849   1.340  0.00  0.00    +0.324 C 
BRANCH  18   3
ATOM      3  O   UNL     1      12.688   3.163   0.228  0.00  0.00    -0.483 OA
BRANCH   3  25
ATOM     25  C   UNL     1      13.840   3.661  -0.338  0.00  0.00    +0.121 A 
ATOM     27  C   UNL     1      13.841   4.027  -1.676  0.00  0.00    +0.045 A 
ATOM     28  C   UNL     1      14.981   3.789   0.440  0.00  0.00    +0.045 A 
ATOM     29  C   UNL     1      15.008   4.531  -2.249  0.00  0.00    +0.004 A 
ATOM     30  C   UNL     1      16.149   4.293  -0.132  0.00  0.00    +0.004 A 
ATOM     31  C   UNL     1      16.163   4.664  -1.477  0.00  0.00    +0.000 A 
ENDBRANCH   3  25
ENDBRANCH  18   3
ENDBRANCH  15  18
TORSDOF 4
ENDMDL
MODEL 3
REMARK VINA RESULT:      -7.6      2.015      6.733
REMARK  Name = 11941698
REMARK  5 active torsions:
REMARK  status: ('A' for Active; 'I' for Inactive)
REMARK    1  A    between atoms: O_3  and  C_18
REMARK    2  A    between atoms: O_3  and  C_25
REMARK    3  A    between atoms: C_15  and  C_18
REMARK    4  A    between atoms: C_16  and  C_19
REMARK    5  A    between atoms: C_20  and  C_23
REMARK                            x       y       z     vdW  Elec       q    Type
REMARK                         _______ _______ _______ _____ _____    ______ ____
ROOT
ATOM      1  O   UNL     1      16.305  11.155  23.260  0.00  0.00    -0.267 OA
ATOM      2  O   UNL     1      11.195  10.701  24.770  0.00  0.00    -0.272 OA
ATOM      4  N   UNL     1      11.389  12.130  22.948  0.00  0.00    -0.298 N 
ATOM      5  N   UNL     1      14.481  12.094  22.150  0.00  0.00    -0.311 N 
ATOM      6  C   UNL     1      13.065  13.968  23.169  0.00  0.00    +0.027 C 
ATOM      7  C   UNL     1      12.507  13.087  20.942  0.00  0.00    +0.054 C 
ATOM      8  C   UNL     1      12.803  14.366  21.722  0.00  0.00    +0.018 C 
ATOM      9  C   UNL     1      11.836  13.259  23.764  0.00  0.00    +0.113 C 
ATOM     10  C   UNL     1      14.320  13.088  23.221  0.00  0.00    +0.130 C 
ATOM     11  C   UNL     1      11.243  12.415  21.513  0.00  0.00    +0.117 C 
ATOM     12  C   UNL     1      13.676  12.123  21.009  0.00  0.00    +0.027 A 
ATOM     13  C   UNL     1      13.920  11.282  19.992  0.00  0.00    +0.022 A 
ATOM     14  C   UNL     1      15.552  11.188  22.285  0.00  0.00    +0.259 A 
ATOM     15  C   UNL     1      11.064  10.920  23.563  0.00  0.00    +0.253 C 
ATOM     16  C   UNL     1      15.777  10.233  21.144  0.00  0.00    +0.047 A 
ATOM     17  C   UNL     1      14.984  10.321  20.067  0.00  0.00    +0.015 A 
ENDROOT
BRANCH  16  19
ATOM     19  C   UNL     1      16.839   9.213  21.200  0.00  0.00    -0.010 A 
ATOM     20  C   UNL     1      18.185   9.553  21.052  0.00  0.00    -0.043 A 
ATOM     21  C   UNL     1      16.480   7.879  21.407  0.00  0.00    +0.009 A 
ATOM     22  C   UNL     1      19.167   8.565  21.110  0.00  0.00    +0.004 A 
ATOM     23  C   UNL     1      18.609  10.970  20.829  0.00  0.00    +0.044 C 
ATOM     24  C   UNL     1      17.463   6.891  21.465  0.00  0.00    +0.001 A 
ATOM     26  C   UNL     1      18.806   7.234  21.316  0.00  0.00    +0.000 A 
ENDBRANCH  16  19
BRANCH  15  18
ATOM     18  C   UNL     1      10.528   9.831  22.670  0.00  0.00    +0.324 C 
BRANCH  18   3
ATOM      3  O   UNL     1      11.518   8.833  22.615  0.00  0.00    -0.483 OA
BRANCH   3  25
ATOM     25  C   UNL     1      11.889   8.377  21.369  0.00  0.00    +0.121 A 
ATOM     27  C   UNL     1      11.268   8.894  20.242  0.00  0.00    +0.045 A 
ATOM     28  C   UNL     1      12.877   7.410  21.264  0.00  0.00    +0.045 A 
ATOM     29  C   UNL     1      11.643   8.432  18.980  0.00  0.00    +0.004 A 
ATOM     30  C   UNL     1      13.253   6.948  20.003  0.00  0.00    +0.004 A 
ATOM     31  C   UNL     1      12.636   7.459  18.861  0.00  0.00    +0.000 A 
ENDBRANCH   3  25
ENDBRANCH  18   3
ENDBRANCH  15  18
TORSDOF 4
ENDMDL
MODEL 4
REMARK VINA RESULT:      -7.4     28.644     30.274
REMARK  Name = 11941698
REMARK  5 active torsions:
REMARK  status: ('A' for Active; 'I' for Inactive)
REMARK    1  A    between atoms: O_3  and  C_18
REMARK    2  A    between atoms: O_3  and  C_25
REMARK    3  A    between atoms: C_15  and  C_18
REMARK    4  A    between atoms: C_16  and  C_19
REMARK    5  A    between atoms: C_20  and  C_23
REMARK                            x       y       z     vdW  Elec       q    Type
REMARK                         _______ _______ _______ _____ _____    ______ ____
ROOT
ATOM      1  O   UNL     1      -8.462 -10.288  13.781  0.00  0.00    -0.267 OA
ATOM      2  O   UNL     1      -5.791 -14.910  14.092  0.00  0.00    -0.272 OA
ATOM      4  N   UNL     1      -4.329 -13.108  14.208  0.00  0.00    -0.298 N 
ATOM      5  N   UNL     1      -6.173 -10.500  14.170  0.00  0.00    -0.311 N 
ATOM      6  C   UNL     1      -4.552 -11.397  12.403  0.00  0.00    +0.027 C 
ATOM      7  C   UNL     1      -3.704 -10.734  14.614  0.00  0.00    +0.054 C 
ATOM      8  C   UNL     1      -3.519 -10.530  13.111  0.00  0.00    +0.018 C 
ATOM      9  C   UNL     1      -4.351 -12.879  12.763  0.00  0.00    +0.113 C 
ATOM     10  C   UNL     1      -5.955 -10.898  12.773  0.00  0.00    +0.130 C 
ATOM     11  C   UNL     1      -3.446 -12.211  14.970  0.00  0.00    +0.117 C 
ATOM     12  C   UNL     1      -5.101 -10.336  15.051  0.00  0.00    +0.027 A 
ATOM     13  C   UNL     1      -5.313  -9.856  16.287  0.00  0.00    +0.022 A 
ATOM     14  C   UNL     1      -7.497 -10.189  14.540  0.00  0.00    +0.259 A 
ATOM     15  C   UNL     1      -5.055 -14.170  14.749  0.00  0.00    +0.253 C 
ATOM     16  C   UNL     1      -7.706  -9.689  15.943  0.00  0.00    +0.047 A 
ATOM     17  C   UNL     1      -6.637  -9.534  16.737  0.00  0.00    +0.015 A 
ENDROOT
BRANCH  16  19
ATOM     19  C   UNL     1      -9.055  -9.379  16.449  0.00  0.00    -0.010 A 
ATOM     20  C   UNL     1      -9.953 -10.390  16.797  0.00  0.00    -0.043 A 
ATOM     21  C   UNL     1      -9.433  -8.040  16.580  0.00  0.00    +0.009 A 
ATOM     22  C   UNL     1     -11.222 -10.065  17.274  0.00  0.00    +0.004 A 
ATOM     23  C   UNL     1      -9.585 -11.834  16.671  0.00  0.00    +0.044 C 
ATOM     24  C   UNL     1     -10.703  -7.716  17.057  0.00  0.00    +0.001 A 
ATOM     26  C   UNL     1     -11.598  -8.728  17.403  0.00  0.00    +0.000 A 
ENDBRANCH  16  19
BRANCH  15  18
ATOM     18  C   UNL     1      -4.915 -14.397  16.233  0.00  0.00    +0.324 C 
BRANCH  18   3
ATOM      3  O   UNL     1      -6.100 -13.923  16.825  0.00  0.00    -0.483 OA
BRANCH   3  25
ATOM     25  C   UNL     1      -5.973 -13.076  17.904  0.00  0.00    +0.121 A 
ATOM     27  C   UNL     1      -7.107 -12.668  18.589  0.00  0.00    +0.045 A 
ATOM     28  C   UNL     1      -4.711 -12.645  18.287  0.00  0.00    +0.045 A 
ATOM     29  C   UNL     1      -6.979 -11.810  19.680  0.00  0.00    +0.004 A 
ATOM     30  C   UNL     1      -4.581 -11.787  19.379  0.00  0.00    +0.004 A 
ATOM     31  C   UNL     1      -5.716 -11.369  20.076  0.00  0.00    +0.000 A 
ENDBRANCH   3  25
ENDBRANCH  18   3
ENDBRANCH  15  18
TORSDOF 4
ENDMDL
MODEL 5
REMARK VINA RESULT:      -7.4     28.224     30.359
REMARK  Name = 11941698
REMARK  5 active torsions:
REMARK  status: ('A' for Active; 'I' for Inactive)
REMARK    1  A    between atoms: O_3  and  C_18
REMARK    2  A    between atoms: O_3  and  C_25
REMARK    3  A    between atoms: C_15  and  C_18
REMARK    4  A    between atoms: C_16  and  C_19
REMARK    5  A    between atoms: C_20  and  C_23
REMARK                            x       y       z     vdW  Elec       q    Type
REMARK                         _______ _______ _______ _____ _____    ______ ____
ROOT
ATOM      1  O   UNL     1      -4.455 -14.949  15.245  0.00  0.00    -0.267 OA
ATOM      2  O   UNL     1      -8.297 -11.329  14.394  0.00  0.00    -0.272 OA
ATOM      4  N   UNL     1      -6.697 -10.499  15.859  0.00  0.00    -0.298 N 
ATOM      5  N   UNL     1      -4.456 -12.765  16.063  0.00  0.00    -0.311 N 
ATOM      6  C   UNL     1      -6.140 -11.951  17.812  0.00  0.00    +0.027 C 
ATOM      7  C   UNL     1      -4.451 -10.398  16.925  0.00  0.00    +0.054 C 
ATOM      8  C   UNL     1      -5.040 -10.974  18.211  0.00  0.00    +0.018 C 
ATOM      9  C   UNL     1      -7.235 -11.231  17.006  0.00  0.00    +0.113 C 
ATOM     10  C   UNL     1      -5.511 -13.109  17.026  0.00  0.00    +0.130 C 
ATOM     11  C   UNL     1      -5.545  -9.633  16.154  0.00  0.00    +0.117 C 
ATOM     12  C   UNL     1      -3.876 -11.494  16.048  0.00  0.00    +0.027 A 
ATOM     13  C   UNL     1      -2.833 -11.240  15.243  0.00  0.00    +0.022 A 
ATOM     14  C   UNL     1      -3.991 -13.807  15.236  0.00  0.00    +0.259 A 
ATOM     15  C   UNL     1      -7.332 -10.596  14.620  0.00  0.00    +0.253 C 
ATOM     16  C   UNL     1      -2.846 -13.480  14.317  0.00  0.00    +0.047 A 
ATOM     17  C   UNL     1      -2.317 -12.249  14.362  0.00  0.00    +0.015 A 
ENDROOT
BRANCH  16  19
ATOM     19  C   UNL     1      -2.311 -14.481  13.378  0.00  0.00    -0.010 A 
ATOM     20  C   UNL     1      -2.896 -14.693  12.127  0.00  0.00    -0.043 A 
ATOM     21  C   UNL     1      -1.194 -15.230  13.756  0.00  0.00    +0.009 A 
ATOM     22  C   UNL     1      -2.367 -15.647  11.260  0.00  0.00    +0.004 A 
ATOM     23  C   UNL     1      -4.092 -13.910  11.686  0.00  0.00    +0.044 C 
ATOM     24  C   UNL     1      -0.666 -16.185  12.887  0.00  0.00    +0.001 A 
ATOM     26  C   UNL     1      -1.252 -16.394  11.640  0.00  0.00    +0.000 A 
ENDBRANCH  16  19
BRANCH  15  18
ATOM     18  C   UNL     1      -6.775  -9.746  13.507  0.00  0.00    +0.324 C 
BRANCH  18   3
ATOM      3  O   UNL     1      -5.641 -10.419  13.016  0.00  0.00    -0.483 OA
BRANCH   3  25
ATOM     25  C   UNL     1      -5.034  -9.900  11.894  0.00  0.00    +0.121 A 
ATOM     27  C   UNL     1      -3.725 -10.252  11.602  0.00  0.00    +0.045 A 
ATOM     28  C   UNL     1      -5.743  -9.035  11.075  0.00  0.00    +0.045 A 
ATOM     29  C   UNL     1      -3.110  -9.726  10.466  0.00  0.00    +0.004 A 
ATOM     30  C   UNL     1      -5.130  -8.508   9.938  0.00  0.00    +0.004 A 
ATOM     31  C   UNL     1      -3.813  -8.854   9.633  0.00  0.00    +0.000 A 
ENDBRANCH   3  25
ENDBRANCH  18   3
ENDBRANCH  15  18
TORSDOF 4
ENDMDL
MODEL 6
REMARK VINA RESULT:      -7.4     17.606     21.325
REMARK  Name = 11941698
REMARK  5 active torsions:
REMARK  status: ('A' for Active; 'I' for Inactive)
REMARK    1  A    between atoms: O_3  and  C_18
REMARK    2  A    between atoms: O_3  and  C_25
REMARK    3  A    between atoms: C_15  and  C_18
REMARK    4  A    between atoms: C_16  and  C_19
REMARK    5  A    between atoms: C_20  and  C_23
REMARK                            x       y       z     vdW  Elec       q    Type
REMARK                         _______ _______ _______ _____ _____    ______ ____
ROOT
ATOM      1  O   UNL     1      12.260   7.723   2.694  0.00  0.00    -0.267 OA
ATOM      2  O   UNL     1      12.758   5.923  -2.317  0.00  0.00    -0.272 OA
ATOM      4  N   UNL     1      13.350   4.275  -0.789  0.00  0.00    -0.298 N 
ATOM      5  N   UNL     1      12.808   5.537   2.094  0.00  0.00    -0.311 N 
ATOM      6  C   UNL     1      15.017   4.938   0.947  0.00  0.00    +0.027 C 
ATOM      7  C   UNL     1      13.377   3.172   1.441  0.00  0.00    +0.054 C 
ATOM      8  C   UNL     1      14.838   3.583   1.621  0.00  0.00    +0.018 C 
ATOM      9  C   UNL     1      14.677   4.845  -0.550  0.00  0.00    +0.113 C 
ATOM     10  C   UNL     1      14.148   5.971   1.674  0.00  0.00    +0.130 C 
ATOM     11  C   UNL     1      13.064   3.030  -0.062  0.00  0.00    +0.117 C 
ATOM     12  C   UNL     1      12.442   4.189   2.066  0.00  0.00    +0.027 A 
ATOM     13  C   UNL     1      11.258   3.803   2.567  0.00  0.00    +0.022 A 
ATOM     14  C   UNL     1      11.959   6.530   2.622  0.00  0.00    +0.259 A 
ATOM     15  C   UNL     1      12.498   4.877  -1.717  0.00  0.00    +0.253 C 
ATOM     16  C   UNL     1      10.623   6.071   3.140  0.00  0.00    +0.047 A 
ATOM     17  C   UNL     1      10.336   4.761   3.106  0.00  0.00    +0.015 A 
ENDROOT
BRANCH  16  19
ATOM     19  C   UNL     1       9.639   7.031   3.671  0.00  0.00    -0.010 A 
ATOM     20  C   UNL     1       9.527   7.276   5.041  0.00  0.00    -0.043 A 
ATOM     21  C   UNL     1       8.806   7.704   2.775  0.00  0.00    +0.009 A 
ATOM     22  C   UNL     1       8.586   8.191   5.513  0.00  0.00    +0.004 A 
ATOM     23  C   UNL     1      10.401   6.575   6.031  0.00  0.00    +0.044 C 
ATOM     24  C   UNL     1       7.864   8.619   3.248  0.00  0.00    +0.001 A 
ATOM     26  C   UNL     1       7.755   8.862   4.617  0.00  0.00    +0.000 A 
ENDBRANCH  16  19
BRANCH  15  18
ATOM     18  C   UNL     1      11.185   4.186  -1.975  0.00  0.00    +0.324 C 
BRANCH  18   3
ATOM      3  O   UNL     1      10.278   4.674  -1.017  0.00  0.00    -0.483 OA
BRANCH   3  25
ATOM     25  C   UNL     1       9.559   5.802  -1.343  0.00  0.00    +0.121 A 
ATOM     27  C   UNL     1       8.649   5.753  -2.389  0.00  0.00    +0.045 A 
ATOM     28  C   UNL     1       9.756   6.968  -0.619  0.00  0.00    +0.045 A 
ATOM     29  C   UNL     1       7.922   6.895  -2.720  0.00  0.00    +0.004 A 
ATOM     30  C   UNL     1       9.028   8.112  -0.949  0.00  0.00    +0.004 A 
ATOM     31  C   UNL     1       8.110   8.075  -2.000  0.00  0.00    +0.000 A 
ENDBRANCH   3  25
ENDBRANCH  18   3
ENDBRANCH  15  18
TORSDOF 4
ENDMDL
MODEL 7
REMARK VINA RESULT:      -7.3     23.039     24.782
REMARK  Name = 11941698
REMARK  5 active torsions:
REMARK  status: ('A' for Active; 'I' for Inactive)
REMARK    1  A    between atoms: O_3  and  C_18
REMARK    2  A    between atoms: O_3  and  C_25
REMARK    3  A    between atoms: C_15  and  C_18
REMARK    4  A    between atoms: C_16  and  C_19
REMARK    5  A    between atoms: C_20  and  C_23
REMARK                            x       y       z     vdW  Elec       q    Type
REMARK                         _______ _______ _______ _____ _____    ______ ____
ROOT
ATOM      1  O   UNL     1       9.158  -9.850  33.307  0.00  0.00    -0.267 OA
ATOM      2  O   UNL     1       8.434  -7.528  38.069  0.00  0.00    -0.272 OA
ATOM      4  N   UNL     1       8.325  -5.955  36.363  0.00  0.00    -0.298 N 
ATOM      5  N   UNL     1       8.616  -7.607  33.646  0.00  0.00    -0.311 N 
ATOM      6  C   UNL     1      10.230  -5.953  34.749  0.00  0.00    +0.027 C 
ATOM      7  C   UNL     1       8.009  -5.191  34.017  0.00  0.00    +0.054 C 
ATOM      8  C   UNL     1       9.506  -4.905  33.912  0.00  0.00    +0.018 C 
ATOM      9  C   UNL     1       9.779  -5.877  36.218  0.00  0.00    +0.113 C 
ATOM     10  C   UNL     1       9.974  -7.337  34.138  0.00  0.00    +0.130 C 
ATOM     11  C   UNL     1       7.559  -5.058  35.485  0.00  0.00    +0.117 C 
ATOM     12  C   UNL     1       7.681  -6.580  33.503  0.00  0.00    +0.027 A 
ATOM     13  C   UNL     1       6.489  -6.829  32.939  0.00  0.00    +0.022 A 
ATOM     14  C   UNL     1       8.346  -8.926  33.228  0.00  0.00    +0.259 A 
ATOM     15  C   UNL     1       7.773  -6.782  37.343  0.00  0.00    +0.253 C 
ATOM     16  C   UNL     1       6.988  -9.182  32.635  0.00  0.00    +0.047 A 
ATOM     17  C   UNL     1       6.139  -8.152  32.505  0.00  0.00    +0.015 A 
ENDROOT
BRANCH  16  19
ATOM     19  C   UNL     1       6.584 -10.533  32.208  0.00  0.00    -0.010 A 
ATOM     20  C   UNL     1       6.681 -10.935  30.874  0.00  0.00    -0.043 A 
ATOM     21  C   UNL     1       6.093 -11.423  33.166  0.00  0.00    +0.009 A 
ATOM     22  C   UNL     1       6.291 -12.221  30.501  0.00  0.00    +0.004 A 
ATOM     23  C   UNL     1       7.202 -10.012  29.819  0.00  0.00    +0.044 C 
ATOM     24  C   UNL     1       5.703 -12.708  32.792  0.00  0.00    +0.001 A 
ATOM     26  C   UNL     1       5.802 -13.107  31.460  0.00  0.00    +0.000 A 
ENDBRANCH  16  19
BRANCH  15  18
ATOM     18  C   UNL     1       6.274  -6.745  37.492  0.00  0.00    +0.324 C 
BRANCH  18   3
ATOM      3  O   UNL     1       5.880  -8.029  37.911  0.00  0.00    -0.483 OA
BRANCH   3  25
ATOM     25  C   UNL     1       4.837  -8.623  37.235  0.00  0.00    +0.121 A 
ATOM     27  C   UNL     1       3.643  -8.865  37.898  0.00  0.00    +0.045 A 
ATOM     28  C   UNL     1       4.999  -8.969  35.902  0.00  0.00    +0.045 A 
ATOM     29  C   UNL     1       2.588  -9.467  37.214  0.00  0.00    +0.004 A 
ATOM     30  C   UNL     1       3.944  -9.571  35.216  0.00  0.00    +0.004 A 
ATOM     31  C   UNL     1       2.738  -9.820  35.873  0.00  0.00    +0.000 A 
ENDBRANCH   3  25
ENDBRANCH  18   3
ENDBRANCH  15  18
TORSDOF 4
ENDMDL
MODEL 8
REMARK VINA RESULT:      -7.2     28.554     30.596
REMARK  Name = 11941698
REMARK  5 active torsions:
REMARK  status: ('A' for Active; 'I' for Inactive)
REMARK    1  A    between atoms: O_3  and  C_18
REMARK    2  A    between atoms: O_3  and  C_25
REMARK    3  A    between atoms: C_15  and  C_18
REMARK    4  A    between atoms: C_16  and  C_19
REMARK    5  A    between atoms: C_20  and  C_23
REMARK                            x       y       z     vdW  Elec       q    Type
REMARK                         _______ _______ _______ _____ _____    ______ ____
ROOT
ATOM      1  O   UNL     1      -4.032 -13.343  10.379  0.00  0.00    -0.267 OA
ATOM      2  O   UNL     1      -5.577 -16.652  14.285  0.00  0.00    -0.272 OA
ATOM      4  N   UNL     1      -3.261 -16.490  14.214  0.00  0.00    -0.298 N 
ATOM      5  N   UNL     1      -2.616 -14.350  11.934  0.00  0.00    -0.311 N 
ATOM      6  C   UNL     1      -2.202 -16.876  11.986  0.00  0.00    +0.027 C 
ATOM      7  C   UNL     1      -1.092 -15.421  13.629  0.00  0.00    +0.054 C 
ATOM      8  C   UNL     1      -0.848 -16.500  12.577  0.00  0.00    +0.018 C 
ATOM      9  C   UNL     1      -3.139 -17.410  13.083  0.00  0.00    +0.113 C 
ATOM     10  C   UNL     1      -2.787 -15.651  11.273  0.00  0.00    +0.130 C 
ATOM     11  C   UNL     1      -1.987 -15.985  14.750  0.00  0.00    +0.117 C 
ATOM     12  C   UNL     1      -1.746 -14.197  13.016  0.00  0.00    +0.027 A 
ATOM     13  C   UNL     1      -1.514 -12.978  13.526  0.00  0.00    +0.022 A 
ATOM     14  C   UNL     1      -3.285 -13.253  11.354  0.00  0.00    +0.259 A 
ATOM     15  C   UNL     1      -4.521 -16.218  14.750  0.00  0.00    +0.253 C 
ATOM     16  C   UNL     1      -3.033 -11.905  11.972  0.00  0.00    +0.047 A 
ATOM     17  C   UNL     1      -2.173 -11.818  12.997  0.00  0.00    +0.015 A 
ENDROOT
BRANCH  16  19
ATOM     19  C   UNL     1      -3.717 -10.698  11.476  0.00  0.00    -0.010 A 
ATOM     20  C   UNL     1      -4.953 -10.298  11.987  0.00  0.00    -0.043 A 
ATOM     21  C   UNL     1      -3.106  -9.944  10.471  0.00  0.00    +0.009 A 
ATOM     22  C   UNL     1      -5.575  -9.151  11.497  0.00  0.00    +0.004 A 
ATOM     23  C   UNL     1      -5.639 -11.079  13.063  0.00  0.00    +0.044 C 
ATOM     24  C   UNL     1      -3.729  -8.796   9.981  0.00  0.00    +0.001 A 
ATOM     26  C   UNL     1      -4.963  -8.400  10.493  0.00  0.00    +0.000 A 
ENDBRANCH  16  19
BRANCH  15  18
ATOM     18  C   UNL     1      -4.560 -15.332  15.968  0.00  0.00    +0.324 C 
BRANCH  18   3
ATOM      3  O   UNL     1      -4.669 -14.009  15.499  0.00  0.00    -0.483 OA
BRANCH   3  25
ATOM     25  C   UNL     1      -4.743 -13.008  16.442  0.00  0.00    +0.121 A 
ATOM     27  C   UNL     1      -5.455 -13.224  17.612  0.00  0.00    +0.045 A 
ATOM     28  C   UNL     1      -4.102 -11.801  16.205  0.00  0.00    +0.045 A 
ATOM     29  C   UNL     1      -5.531 -12.210  18.566  0.00  0.00    +0.004 A 
ATOM     30  C   UNL     1      -4.176 -10.787  17.160  0.00  0.00    +0.004 A 
ATOM     31  C   UNL     1      -4.891 -10.991  18.341  0.00  0.00    +0.000 A 
ENDBRANCH   3  25
ENDBRANCH  18   3
ENDBRANCH  15  18
TORSDOF 4
ENDMDL
MODEL 9
REMARK VINA RESULT:      -7.1     14.789     17.808
REMARK  Name = 11941698
REMARK  5 active torsions:
REMARK  status: ('A' for Active; 'I' for Inactive)
REMARK    1  A    between atoms: O_3  and  C_18
REMARK    2  A    between atoms: O_3  and  C_25
REMARK    3  A    between atoms: C_15  and  C_18
REMARK    4  A    between atoms: C_16  and  C_19
REMARK    5  A    between atoms: C_20  and  C_23
REMARK                            x       y       z     vdW  Elec       q    Type
REMARK                         _______ _______ _______ _____ _____    ______ ____
ROOT
ATOM      1  O   UNL     1      14.080   6.734   7.219  0.00  0.00    -0.267 OA
ATOM      2  O   UNL     1      10.543   3.797   4.488  0.00  0.00    -0.272 OA
ATOM      4  N   UNL     1       9.549   5.732   5.302  0.00  0.00    -0.298 N 
ATOM      5  N   UNL     1      11.889   7.368   6.732  0.00  0.00    -0.311 N 
ATOM      6  C   UNL     1       9.856   6.182   7.739  0.00  0.00    +0.027 C 
ATOM      7  C   UNL     1       9.530   8.059   6.184  0.00  0.00    +0.054 C 
ATOM      8  C   UNL     1       9.162   7.527   7.568  0.00  0.00    +0.018 C 
ATOM      9  C   UNL     1       9.394   5.194   6.654  0.00  0.00    +0.113 C 
ATOM     10  C   UNL     1      11.374   6.401   7.711  0.00  0.00    +0.130 C 
ATOM     11  C   UNL     1       9.013   7.087   5.104  0.00  0.00    +0.117 C 
ATOM     12  C   UNL     1      11.031   8.230   6.045  0.00  0.00    +0.027 A 
ATOM     13  C   UNL     1      11.532   9.185   5.247  0.00  0.00    +0.022 A 
ATOM     14  C   UNL     1      13.290   7.453   6.604  0.00  0.00    +0.259 A 
ATOM     15  C   UNL     1      10.099   4.932   4.300  0.00  0.00    +0.253 C 
ATOM     16  C   UNL     1      13.821   8.509   5.674  0.00  0.00    +0.047 A 
ATOM     17  C   UNL     1      12.949   9.320   5.057  0.00  0.00    +0.015 A 
ENDROOT
BRANCH  16  19
ATOM     19  C   UNL     1      15.267   8.655   5.430  0.00  0.00    -0.010 A 
ATOM     20  C   UNL     1      15.917   7.917   4.439  0.00  0.00    -0.043 A 
ATOM     21  C   UNL     1      15.993   9.555   6.214  0.00  0.00    +0.009 A 
ATOM     22  C   UNL     1      17.286   8.078   4.232  0.00  0.00    +0.004 A 
ATOM     23  C   UNL     1      15.173   6.945   3.579  0.00  0.00    +0.044 C 
ATOM     24  C   UNL     1      17.364   9.714   6.006  0.00  0.00    +0.001 A 
ATOM     26  C   UNL     1      18.010   8.976   5.016  0.00  0.00    +0.000 A 
ENDBRANCH  16  19
BRANCH  15  18
ATOM     18  C   UNL     1      10.146   5.522   2.914  0.00  0.00    +0.324 C 
BRANCH  18   3
ATOM      3  O   UNL     1      10.573   4.494   2.054  0.00  0.00    -0.483 OA
BRANCH   3  25
ATOM     25  C   UNL     1      11.855   4.575   1.559  0.00  0.00    +0.121 A 
ATOM     27  C   UNL     1      12.267   5.732   0.915  0.00  0.00    +0.045 A 
ATOM     28  C   UNL     1      12.715   3.498   1.714  0.00  0.00    +0.045 A 
ATOM     29  C   UNL     1      13.565   5.814   0.413  0.00  0.00    +0.004 A 
ATOM     30  C   UNL     1      14.014   3.579   1.212  0.00  0.00    +0.004 A 
ATOM     31  C   UNL     1      14.439   4.737   0.562  0.00  0.00    +0.000 A 
ENDBRANCH   3  25
ENDBRANCH  18   3
ENDBRANCH  15  18
TORSDOF 4
ENDMDL
MODEL 10
REMARK VINA RESULT:      -7.0      2.707      3.749
REMARK  Name = 11941698
REMARK  5 active torsions:
REMARK  status: ('A' for Active; 'I' for Inactive)
REMARK    1  A    between atoms: O_3  and  C_18
REMARK    2  A    between atoms: O_3  and  C_25
REMARK    3  A    between atoms: C_15  and  C_18
REMARK    4  A    between atoms: C_16  and  C_19
REMARK    5  A    between atoms: C_20  and  C_23
REMARK                            x       y       z     vdW  Elec       q    Type
REMARK                         _______ _______ _______ _____ _____    ______ ____
ROOT
ATOM      1  O   UNL     1      13.579  11.893  21.322  0.00  0.00    -0.267 OA
ATOM      2  O   UNL     1      14.440   6.620  21.544  0.00  0.00    -0.272 OA
ATOM      4  N   UNL     1      13.125   7.161  19.707  0.00  0.00    -0.298 N 
ATOM      5  N   UNL     1      12.905  10.347  19.712  0.00  0.00    -0.311 N 
ATOM      6  C   UNL     1      11.118   8.571  20.171  0.00  0.00    +0.027 C 
ATOM      7  C   UNL     1      12.199   8.676  17.964  0.00  0.00    +0.054 C 
ATOM      8  C   UNL     1      10.846   8.659  18.674  0.00  0.00    +0.018 C 
ATOM      9  C   UNL     1      11.904   7.292  20.503  0.00  0.00    +0.113 C 
ATOM     10  C   UNL     1      11.862   9.837  20.613  0.00  0.00    +0.130 C 
ATOM     11  C   UNL     1      12.954   7.365  18.260  0.00  0.00    +0.117 C 
ATOM     12  C   UNL     1      13.034   9.861  18.408  0.00  0.00    +0.027 A 
ATOM     13  C   UNL     1      13.913  10.425  17.565  0.00  0.00    +0.022 A 
ATOM     14  C   UNL     1      13.688  11.416  20.191  0.00  0.00    +0.259 A 
ATOM     15  C   UNL     1      14.317   6.786  20.329  0.00  0.00    +0.253 C 
ATOM     16  C   UNL     1      14.690  12.001  19.234  0.00  0.00    +0.047 A 
ATOM     17  C   UNL     1      14.755  11.507  17.989  0.00  0.00    +0.015 A 
ENDROOT
BRANCH  16  19
ATOM     19  C   UNL     1      15.592  13.091  19.645  0.00  0.00    -0.010 A 
ATOM     20  C   UNL     1      16.838  12.829  20.218  0.00  0.00    -0.043 A 
ATOM     21  C   UNL     1      15.182  14.413  19.453  0.00  0.00    +0.009 A 
ATOM     22  C   UNL     1      17.670  13.881  20.597  0.00  0.00    +0.004 A 
ATOM     23  C   UNL     1      17.312  11.427  20.440  0.00  0.00    +0.044 C 
ATOM     24  C   UNL     1      16.015  15.465  19.833  0.00  0.00    +0.001 A 
ATOM     26  C   UNL     1      17.259  15.200  20.404  0.00  0.00    +0.000 A 
ENDBRANCH  16  19
BRANCH  15  18
ATOM     18  C   UNL     1      15.512   6.586  19.433  0.00  0.00    +0.324 C 
BRANCH  18   3
ATOM      3  O   UNL     1      16.436   7.594  19.764  0.00  0.00    -0.483 OA
BRANCH   3  25
ATOM     25  C   UNL     1      17.611   7.202  20.367  0.00  0.00    +0.121 A 
ATOM     27  C   UNL     1      18.108   7.936  21.434  0.00  0.00    +0.045 A 
ATOM     28  C   UNL     1      18.276   6.079  19.898  0.00  0.00    +0.045 A 
ATOM     29  C   UNL     1      19.298   7.540  22.044  0.00  0.00    +0.004 A 
ATOM     30  C   UNL     1      19.465   5.682  20.508  0.00  0.00    +0.004 A 
ATOM     31  C   UNL     1      19.977   6.412  21.581  0.00  0.00    +0.000 A 
ENDBRANCH   3  25
ENDBRANCH  18   3
ENDBRANCH  15  18
TORSDOF 4
ENDMDL
