MODEL 1
REMARK VINA RESULT:      -7.4      0.000      0.000
REMARK  Name = 7155387
REMARK  6 active torsions:
REMARK  status: ('A' for Active; 'I' for Inactive)
REMARK    1  A    between atoms: O_5  and  C_23
REMARK    2  A    between atoms: O_6  and  C_31
REMARK    3  A    between atoms: O_6  and  C_33
REMARK    4  A    between atoms: N_7  and  C_16
REMARK    5  A    between atoms: C_16  and  C_21
REMARK    6  A    between atoms: C_17  and  C_22
REMARK                            x       y       z     vdW  Elec       q    Type
REMARK                         _______ _______ _______ _____ _____    ______ ____
ROOT
ATOM      4  O   UNL     1       9.228   9.039  -0.077  0.00  0.00    -0.268 OA
ATOM      7  N   UNL     1      12.200   5.178   0.982  0.00  0.00    -0.297 NA
ATOM      8  N   UNL     1      10.720   7.967   1.376  0.00  0.00    -0.311 N 
ATOM      9  C   UNL     1      13.146   7.477   0.696  0.00  0.00    +0.024 C 
ATOM     10  C   UNL     1      12.331   6.782   2.898  0.00  0.00    +0.051 C 
ATOM     11  C   UNL     1      13.423   7.578   2.187  0.00  0.00    +0.017 C 
ATOM     12  C   UNL     1      13.167   6.001   0.247  0.00  0.00    +0.090 C 
ATOM     13  C   UNL     1      12.387   5.307   2.434  0.00  0.00    +0.094 C 
ATOM     14  C   UNL     1      11.806   8.158   0.404  0.00  0.00    +0.130 C 
ATOM     15  C   UNL     1      10.946   7.383   2.637  0.00  0.00    +0.034 A 
ATOM     17  C   UNL     1       9.947   7.354   3.558  0.00  0.00    +0.002 A 
ATOM     18  C   UNL     1       9.475   8.505   1.005  0.00  0.00    +0.252 A 
ATOM     19  C   UNL     1       8.648   7.895   3.210  0.00  0.00    +0.015 A 
ATOM     20  C   UNL     1       8.396   8.429   2.015  0.00  0.00    +0.071 A 
ENDROOT
BRANCH  17  22
ATOM     22  C   UNL     1      10.145   6.769   4.902  0.00  0.00    -0.016 A 
ATOM     25  C   UNL     1      10.737   7.530   5.905  0.00  0.00    +0.012 A 
ATOM     26  C   UNL     1       9.737   5.463   5.156  0.00  0.00    +0.012 A 
ATOM     29  C   UNL     1      10.923   6.979   7.173  0.00  0.00    +0.046 A 
ATOM     30  C   UNL     1       9.923   4.913   6.423  0.00  0.00    +0.046 A 
ATOM     31  C   UNL     1      10.516   5.672   7.432  0.00  0.00    +0.130 A 
BRANCH  31   6
ATOM      6  O   UNL     1      10.697   5.135   8.670  0.00  0.00    -0.406 OA
BRANCH   6  33
ATOM      1  F   UNL     1       9.908   4.769  10.752  0.00  0.00    -0.133 F 
ATOM      2  F   UNL     1       8.615   5.812   9.332  0.00  0.00    -0.133 F 
ATOM      3  F   UNL     1       9.013   3.649   9.104  0.00  0.00    -0.133 F 
ATOM     33  C   UNL     1       9.545   4.840   9.452  0.00  0.00    +0.575 C 
ENDBRANCH   6  33
ENDBRANCH  31   6
ENDBRANCH  17  22
BRANCH   7  16
ATOM     16  C   UNL     1      12.279   3.779   0.566  0.00  0.00    +0.123 C 
BRANCH  16  21
ATOM     21  C   UNL     1      11.911   3.601  -0.878  0.00  0.00    +0.008 A 
ATOM     23  C   UNL     1      10.702   4.087  -1.363  0.00  0.00    +0.121 A 
ATOM     24  C   UNL     1      12.798   2.941  -1.722  0.00  0.00    +0.008 A 
ATOM     27  C   UNL     1      10.375   3.910  -2.707  0.00  0.00    +0.046 A 
ATOM     28  C   UNL     1      12.472   2.765  -3.067  0.00  0.00    +0.001 A 
ATOM     32  C   UNL     1      11.260   3.249  -3.559  0.00  0.00    +0.004 A 
BRANCH  23   5
ATOM      5  O   UNL     1       9.827   4.735  -0.545  0.00  0.00    -0.506 OA
ATOM     34  H   UNL     1       9.053   5.014  -1.065  0.00  0.00    +0.292 HD
ENDBRANCH  23   5
ENDBRANCH  16  21
ENDBRANCH   7  16
TORSDOF 6
ENDMDL
MODEL 2
REMARK VINA RESULT:      -6.9      4.145      7.647
REMARK  Name = 7155387
REMARK  6 active torsions:
REMARK  status: ('A' for Active; 'I' for Inactive)
REMARK    1  A    between atoms: O_5  and  C_23
REMARK    2  A    between atoms: O_6  and  C_31
REMARK    3  A    between atoms: O_6  and  C_33
REMARK    4  A    between atoms: N_7  and  C_16
REMARK    5  A    between atoms: C_16  and  C_21
REMARK    6  A    between atoms: C_17  and  C_22
REMARK                            x       y       z     vdW  Elec       q    Type
REMARK                         _______ _______ _______ _____ _____    ______ ____
ROOT
ATOM      4  O   UNL     1       8.245  10.713   5.457  0.00  0.00    -0.268 OA
ATOM      7  N   UNL     1      11.156   6.833   6.611  0.00  0.00    -0.297 NA
ATOM      8  N   UNL     1       8.966   8.524   5.041  0.00  0.00    -0.311 N 
ATOM      9  C   UNL     1       8.666   6.654   6.772  0.00  0.00    +0.024 C 
ATOM     10  C   UNL     1       9.765   6.176   4.637  0.00  0.00    +0.051 C 
ATOM     11  C   UNL     1       8.626   5.743   5.555  0.00  0.00    +0.017 C 
ATOM     12  C   UNL     1      10.024   6.525   7.492  0.00  0.00    +0.090 C 
ATOM     13  C   UNL     1      11.112   6.025   5.384  0.00  0.00    +0.094 C 
ATOM     14  C   UNL     1       8.380   8.086   6.315  0.00  0.00    +0.130 C 
ATOM     15  C   UNL     1       9.572   7.616   4.151  0.00  0.00    +0.034 A 
ATOM     17  C   UNL     1       9.975   8.037   2.924  0.00  0.00    +0.002 A 
ATOM     18  C   UNL     1       8.781   9.881   4.724  0.00  0.00    +0.252 A 
ATOM     19  C   UNL     1       9.804   9.432   2.563  0.00  0.00    +0.015 A 
ATOM     20  C   UNL     1       9.259  10.320   3.393  0.00  0.00    +0.071 A 
ENDROOT
BRANCH  17  22
ATOM     22  C   UNL     1      10.597   7.115   1.949  0.00  0.00    -0.016 A 
ATOM     25  C   UNL     1       9.793   6.291   1.168  0.00  0.00    +0.012 A 
ATOM     26  C   UNL     1      11.982   7.077   1.820  0.00  0.00    +0.012 A 
ATOM     29  C   UNL     1      10.380   5.422   0.248  0.00  0.00    +0.046 A 
ATOM     30  C   UNL     1      12.568   6.207   0.901  0.00  0.00    +0.046 A 
ATOM     31  C   UNL     1      11.766   5.380   0.115  0.00  0.00    +0.130 A 
BRANCH  31   6
ATOM      6  O   UNL     1      12.338   4.532  -0.783  0.00  0.00    -0.406 OA
BRANCH   6  33
ATOM      1  F   UNL     1      12.702   2.328  -1.106  0.00  0.00    -0.133 F 
ATOM      2  F   UNL     1      14.330   3.528  -0.280  0.00  0.00    -0.133 F 
ATOM      3  F   UNL     1      12.555   3.054   0.949  0.00  0.00    -0.133 F 
ATOM     33  C   UNL     1      12.990   3.367  -0.290  0.00  0.00    +0.575 C 
ENDBRANCH   6  33
ENDBRANCH  31   6
ENDBRANCH  17  22
BRANCH   7  16
ATOM     16  C   UNL     1      12.427   6.656   7.310  0.00  0.00    +0.123 C 
BRANCH  16  21
ATOM     21  C   UNL     1      13.440   7.688   6.906  0.00  0.00    +0.008 A 
ATOM     23  C   UNL     1      13.119   9.041   6.937  0.00  0.00    +0.121 A 
ATOM     24  C   UNL     1      14.701   7.269   6.498  0.00  0.00    +0.008 A 
ATOM     27  C   UNL     1      14.071   9.986   6.556  0.00  0.00    +0.046 A 
ATOM     28  C   UNL     1      15.655   8.214   6.117  0.00  0.00    +0.001 A 
ATOM     32  C   UNL     1      15.339   9.572   6.146  0.00  0.00    +0.004 A 
BRANCH  23   5
ATOM      5  O   UNL     1      11.886   9.461   7.335  0.00  0.00    -0.506 OA
ATOM     34  H   UNL     1      11.847   9.455   8.307  0.00  0.00    +0.292 HD
ENDBRANCH  23   5
ENDBRANCH  16  21
ENDBRANCH   7  16
TORSDOF 6
ENDMDL
MODEL 3
REMARK VINA RESULT:      -6.8     23.637     27.053
REMARK  Name = 7155387
REMARK  6 active torsions:
REMARK  status: ('A' for Active; 'I' for Inactive)
REMARK    1  A    between atoms: O_5  and  C_23
REMARK    2  A    between atoms: O_6  and  C_31
REMARK    3  A    between atoms: O_6  and  C_33
REMARK    4  A    between atoms: N_7  and  C_16
REMARK    5  A    between atoms: C_16  and  C_21
REMARK    6  A    between atoms: C_17  and  C_22
REMARK                            x       y       z     vdW  Elec       q    Type
REMARK                         _______ _______ _______ _____ _____    ______ ____
ROOT
ATOM      4  O   UNL     1      -0.860 -11.915  14.149  0.00  0.00    -0.268 OA
ATOM      7  N   UNL     1      -5.671 -12.225  12.879  0.00  0.00    -0.297 NA
ATOM      8  N   UNL     1      -3.061 -12.519  14.674  0.00  0.00    -0.311 N 
ATOM      9  C   UNL     1      -4.332 -14.291  13.322  0.00  0.00    +0.024 C 
ATOM     10  C   UNL     1      -5.437 -13.157  15.189  0.00  0.00    +0.051 C 
ATOM     11  C   UNL     1      -5.079 -14.529  14.624  0.00  0.00    +0.017 C 
ATOM     12  C   UNL     1      -5.219 -13.509  12.331  0.00  0.00    +0.090 C 
ATOM     13  C   UNL     1      -6.334 -12.404  14.178  0.00  0.00    +0.094 C 
ATOM     14  C   UNL     1      -3.025 -13.561  13.639  0.00  0.00    +0.130 C 
ATOM     15  C   UNL     1      -4.180 -12.343  15.512  0.00  0.00    +0.034 A 
ATOM     17  C   UNL     1      -4.119 -11.464  16.546  0.00  0.00    +0.002 A 
ATOM     18  C   UNL     1      -1.870 -11.791  14.842  0.00  0.00    +0.252 A 
ATOM     19  C   UNL     1      -2.908 -10.692  16.749  0.00  0.00    +0.015 A 
ATOM     20  C   UNL     1      -1.844 -10.816  15.957  0.00  0.00    +0.071 A 
ENDROOT
BRANCH  17  22
ATOM     22  C   UNL     1      -5.261 -11.262  17.464  0.00  0.00    -0.016 A 
ATOM     25  C   UNL     1      -6.201 -10.274  17.189  0.00  0.00    +0.012 A 
ATOM     26  C   UNL     1      -5.389 -12.061  18.596  0.00  0.00    +0.012 A 
ATOM     29  C   UNL     1      -7.278 -10.083  18.054  0.00  0.00    +0.046 A 
ATOM     30  C   UNL     1      -6.466 -11.871  19.461  0.00  0.00    +0.046 A 
ATOM     31  C   UNL     1      -7.411 -10.881  19.189  0.00  0.00    +0.130 A 
BRANCH  31   6
ATOM      6  O   UNL     1      -8.463 -10.696  20.033  0.00  0.00    -0.406 OA
BRANCH   6  33
ATOM      1  F   UNL     1     -10.551 -11.396  20.526  0.00  0.00    -0.133 F 
ATOM      2  F   UNL     1     -10.327  -9.756  19.099  0.00  0.00    -0.133 F 
ATOM      3  F   UNL     1      -9.771 -11.819  18.529  0.00  0.00    -0.133 F 
ATOM     33  C   UNL     1      -9.777 -10.911  19.530  0.00  0.00    +0.575 C 
ENDBRANCH   6  33
ENDBRANCH  31   6
ENDBRANCH  17  22
BRANCH   7  16
ATOM     16  C   UNL     1      -6.546 -11.533  11.935  0.00  0.00    +0.123 C 
BRANCH  16  21
ATOM     21  C   UNL     1      -5.795 -10.538  11.098  0.00  0.00    +0.008 A 
ATOM     23  C   UNL     1      -5.735  -9.201  11.474  0.00  0.00    +0.121 A 
ATOM     24  C   UNL     1      -5.163 -10.976   9.939  0.00  0.00    +0.008 A 
ATOM     27  C   UNL     1      -5.035  -8.291  10.684  0.00  0.00    +0.046 A 
ATOM     28  C   UNL     1      -4.462 -10.066   9.148  0.00  0.00    +0.001 A 
ATOM     32  C   UNL     1      -4.398  -8.723   9.521  0.00  0.00    +0.004 A 
BRANCH  23   5
ATOM      5  O   UNL     1      -6.351  -8.763  12.608  0.00  0.00    -0.506 OA
ATOM     34  H   UNL     1      -6.853  -9.498  13.001  0.00  0.00    +0.292 HD
ENDBRANCH  23   5
ENDBRANCH  16  21
ENDBRANCH   7  16
TORSDOF 6
ENDMDL
MODEL 4
REMARK VINA RESULT:      -6.8     27.456     29.908
REMARK  Name = 7155387
REMARK  6 active torsions:
REMARK  status: ('A' for Active; 'I' for Inactive)
REMARK    1  A    between atoms: O_5  and  C_23
REMARK    2  A    between atoms: O_6  and  C_31
REMARK    3  A    between atoms: O_6  and  C_33
REMARK    4  A    between atoms: N_7  and  C_16
REMARK    5  A    between atoms: C_16  and  C_21
REMARK    6  A    between atoms: C_17  and  C_22
REMARK                            x       y       z     vdW  Elec       q    Type
REMARK                         _______ _______ _______ _____ _____    ______ ____
ROOT
ATOM      4  O   UNL     1     -11.294 -12.487  19.527  0.00  0.00    -0.268 OA
ATOM      7  N   UNL     1      -8.056 -10.318  16.418  0.00  0.00    -0.297 NA
ATOM      8  N   UNL     1     -10.852 -11.357  17.523  0.00  0.00    -0.311 N 
ATOM      9  C   UNL     1      -9.325 -12.358  15.720  0.00  0.00    +0.024 C 
ATOM     10  C   UNL     1     -10.327 -10.150  15.382  0.00  0.00    +0.051 C 
ATOM     11  C   UNL     1     -10.173 -11.536  14.763  0.00  0.00    +0.017 C 
ATOM     12  C   UNL     1      -7.947 -11.694  15.919  0.00  0.00    +0.090 C 
ATOM     13  C   UNL     1      -8.931  -9.508  15.559  0.00  0.00    +0.094 C 
ATOM     14  C   UNL     1     -10.093 -12.517  17.034  0.00  0.00    +0.130 C 
ATOM     15  C   UNL     1     -11.067 -10.219  16.723  0.00  0.00    +0.034 A 
ATOM     17  C   UNL     1     -11.890  -9.230  17.159  0.00  0.00    +0.002 A 
ATOM     18  C   UNL     1     -11.437 -11.509  18.792  0.00  0.00    +0.252 A 
ATOM     19  C   UNL     1     -12.509  -9.349  18.465  0.00  0.00    +0.015 A 
ATOM     20  C   UNL     1     -12.303 -10.401  19.257  0.00  0.00    +0.071 A 
ENDROOT
BRANCH  17  22
ATOM     22  C   UNL     1     -12.162  -8.026  16.343  0.00  0.00    -0.016 A 
ATOM     25  C   UNL     1     -13.299  -7.977  15.544  0.00  0.00    +0.012 A 
ATOM     26  C   UNL     1     -11.279  -6.952  16.381  0.00  0.00    +0.012 A 
ATOM     29  C   UNL     1     -13.556  -6.841  14.775  0.00  0.00    +0.046 A 
ATOM     30  C   UNL     1     -11.535  -5.817  15.612  0.00  0.00    +0.046 A 
ATOM     31  C   UNL     1     -12.675  -5.762  14.809  0.00  0.00    +0.130 A 
BRANCH  31   6
ATOM      6  O   UNL     1     -12.926  -4.654  14.060  0.00  0.00    -0.406 OA
BRANCH   6  33
ATOM      1  F   UNL     1     -11.939  -3.621  12.313  0.00  0.00    -0.133 F 
ATOM      2  F   UNL     1     -11.936  -5.806  12.350  0.00  0.00    -0.133 F 
ATOM      3  F   UNL     1     -13.805  -4.696  11.949  0.00  0.00    -0.133 F 
ATOM     33  C   UNL     1     -12.659  -4.710  12.663  0.00  0.00    +0.575 C 
ENDBRANCH   6  33
ENDBRANCH  31   6
ENDBRANCH  17  22
BRANCH   7  16
ATOM     16  C   UNL     1      -6.736  -9.704  16.550  0.00  0.00    +0.123 C 
BRANCH  16  21
ATOM     21  C   UNL     1      -5.868 -10.443  17.526  0.00  0.00    +0.008 A 
ATOM     23  C   UNL     1      -6.284 -10.630  18.840  0.00  0.00    +0.121 A 
ATOM     24  C   UNL     1      -4.640 -10.934  17.096  0.00  0.00    +0.008 A 
ATOM     27  C   UNL     1      -5.463 -11.317  19.734  0.00  0.00    +0.046 A 
ATOM     28  C   UNL     1      -3.819 -11.622  17.990  0.00  0.00    +0.001 A 
ATOM     32  C   UNL     1      -4.231 -11.813  19.309  0.00  0.00    +0.004 A 
BRANCH  23   5
ATOM      5  O   UNL     1      -7.485 -10.152  19.270  0.00  0.00    -0.506 OA
ATOM     34  H   UNL     1      -7.477  -9.181  19.219  0.00  0.00    +0.292 HD
ENDBRANCH  23   5
ENDBRANCH  16  21
ENDBRANCH   7  16
TORSDOF 6
ENDMDL
MODEL 5
REMARK VINA RESULT:      -6.7     23.525     26.622
REMARK  Name = 7155387
REMARK  6 active torsions:
REMARK  status: ('A' for Active; 'I' for Inactive)
REMARK    1  A    between atoms: O_5  and  C_23
REMARK    2  A    between atoms: O_6  and  C_31
REMARK    3  A    between atoms: O_6  and  C_33
REMARK    4  A    between atoms: N_7  and  C_16
REMARK    5  A    between atoms: C_16  and  C_21
REMARK    6  A    between atoms: C_17  and  C_22
REMARK                            x       y       z     vdW  Elec       q    Type
REMARK                         _______ _______ _______ _____ _____    ______ ____
ROOT
ATOM      4  O   UNL     1      19.543  -5.217  21.315  0.00  0.00    -0.268 OA
ATOM      7  N   UNL     1      18.624  -1.816  24.843  0.00  0.00    -0.297 NA
ATOM      8  N   UNL     1      18.185  -4.400  23.039  0.00  0.00    -0.311 N 
ATOM      9  C   UNL     1      17.073  -2.091  22.900  0.00  0.00    +0.024 C 
ATOM     10  C   UNL     1      16.756  -3.480  24.890  0.00  0.00    +0.051 C 
ATOM     11  C   UNL     1      16.016  -2.716  23.796  0.00  0.00    +0.017 C 
ATOM     12  C   UNL     1      17.973  -1.140  23.715  0.00  0.00    +0.090 C 
ATOM     13  C   UNL     1      17.640  -2.498  25.695  0.00  0.00    +0.094 C 
ATOM     14  C   UNL     1      17.866  -3.216  22.229  0.00  0.00    +0.130 C 
ATOM     15  C   UNL     1      17.601  -4.615  24.302  0.00  0.00    +0.034 A 
ATOM     17  C   UNL     1      17.813  -5.787  24.955  0.00  0.00    +0.002 A 
ATOM     18  C   UNL     1      19.019  -5.348  22.421  0.00  0.00    +0.252 A 
ATOM     19  C   UNL     1      18.672  -6.788  24.352  0.00  0.00    +0.015 A 
ATOM     20  C   UNL     1      19.260  -6.602  23.170  0.00  0.00    +0.071 A 
ENDROOT
BRANCH  17  22
ATOM     22  C   UNL     1      17.204  -6.066  26.274  0.00  0.00    -0.016 A 
ATOM     25  C   UNL     1      15.937  -6.636  26.342  0.00  0.00    +0.012 A 
ATOM     26  C   UNL     1      17.901  -5.755  27.437  0.00  0.00    +0.012 A 
ATOM     29  C   UNL     1      15.362  -6.899  27.586  0.00  0.00    +0.046 A 
ATOM     30  C   UNL     1      17.327  -6.018  28.680  0.00  0.00    +0.046 A 
ATOM     31  C   UNL     1      16.057  -6.590  28.754  0.00  0.00    +0.130 A 
BRANCH  31   6
ATOM      6  O   UNL     1      15.496  -6.848  29.968  0.00  0.00    -0.406 OA
BRANCH   6  33
ATOM      1  F   UNL     1      14.567  -6.033  31.856  0.00  0.00    -0.133 F 
ATOM      2  F   UNL     1      15.000  -4.632  30.236  0.00  0.00    -0.133 F 
ATOM      3  F   UNL     1      13.343  -6.082  30.047  0.00  0.00    -0.133 F 
ATOM     33  C   UNL     1      14.596  -5.890  30.512  0.00  0.00    +0.575 C 
ENDBRANCH   6  33
ENDBRANCH  31   6
ENDBRANCH  17  22
BRANCH   7  16
ATOM     16  C   UNL     1      19.430  -0.878  25.621  0.00  0.00    +0.123 C 
BRANCH  16  21
ATOM     21  C   UNL     1      20.869  -1.300  25.694  0.00  0.00    +0.008 A 
ATOM     23  C   UNL     1      21.886  -0.355  25.626  0.00  0.00    +0.121 A 
ATOM     24  C   UNL     1      21.167  -2.652  25.829  0.00  0.00    +0.008 A 
ATOM     27  C   UNL     1      23.217  -0.765  25.694  0.00  0.00    +0.046 A 
ATOM     28  C   UNL     1      22.499  -3.063  25.897  0.00  0.00    +0.001 A 
ATOM     32  C   UNL     1      23.524  -2.118  25.829  0.00  0.00    +0.004 A 
BRANCH  23   5
ATOM      5  O   UNL     1      21.604   0.972  25.495  0.00  0.00    -0.506 OA
ATOM     34  H   UNL     1      20.880   1.080  24.854  0.00  0.00    +0.292 HD
ENDBRANCH  23   5
ENDBRANCH  16  21
ENDBRANCH   7  16
TORSDOF 6
ENDMDL
MODEL 6
REMARK VINA RESULT:      -6.6      4.146      7.885
REMARK  Name = 7155387
REMARK  6 active torsions:
REMARK  status: ('A' for Active; 'I' for Inactive)
REMARK    1  A    between atoms: O_5  and  C_23
REMARK    2  A    between atoms: O_6  and  C_31
REMARK    3  A    between atoms: O_6  and  C_33
REMARK    4  A    between atoms: N_7  and  C_16
REMARK    5  A    between atoms: C_16  and  C_21
REMARK    6  A    between atoms: C_17  and  C_22
REMARK                            x       y       z     vdW  Elec       q    Type
REMARK                         _______ _______ _______ _____ _____    ______ ____
ROOT
ATOM      4  O   UNL     1      13.803   9.653   5.439  0.00  0.00    -0.268 OA
ATOM      7  N   UNL     1       9.559   7.357   4.188  0.00  0.00    -0.297 NA
ATOM      8  N   UNL     1      12.443   8.647   3.819  0.00  0.00    -0.311 N 
ATOM      9  C   UNL     1      10.133   9.593   3.223  0.00  0.00    +0.024 C 
ATOM     10  C   UNL     1      10.945   7.566   2.115  0.00  0.00    +0.051 C 
ATOM     11  C   UNL     1      10.398   8.968   1.863  0.00  0.00    +0.017 C 
ATOM     12  C   UNL     1       9.114   8.745   4.012  0.00  0.00    +0.090 C 
ATOM     13  C   UNL     1       9.897   6.739   2.898  0.00  0.00    +0.094 C 
ATOM     14  C   UNL     1      11.468   9.738   3.958  0.00  0.00    +0.130 C 
ATOM     15  C   UNL     1      12.275   7.616   2.875  0.00  0.00    +0.034 A 
ATOM     17  C   UNL     1      13.266   6.708   2.681  0.00  0.00    +0.002 A 
ATOM     18  C   UNL     1      13.599   8.766   4.610  0.00  0.00    +0.252 A 
ATOM     19  C   UNL     1      14.473   6.795   3.481  0.00  0.00    +0.015 A 
ATOM     20  C   UNL     1      14.649   7.742   4.402  0.00  0.00    +0.071 A 
ENDROOT
BRANCH  17  22
ATOM     22  C   UNL     1      13.143   5.621   1.686  0.00  0.00    -0.016 A 
ATOM     25  C   UNL     1      12.672   4.373   2.081  0.00  0.00    +0.012 A 
ATOM     26  C   UNL     1      13.497   5.853   0.360  0.00  0.00    +0.012 A 
ATOM     29  C   UNL     1      12.554   3.348   1.142  0.00  0.00    +0.046 A 
ATOM     30  C   UNL     1      13.380   4.829  -0.578  0.00  0.00    +0.046 A 
ATOM     31  C   UNL     1      12.908   3.576  -0.187  0.00  0.00    +0.130 A 
BRANCH  31   6
ATOM      6  O   UNL     1      12.793   2.576  -1.103  0.00  0.00    -0.406 OA
BRANCH   6  33
ATOM      1  F   UNL     1      10.773   3.445  -1.612  0.00  0.00    -0.133 F 
ATOM      2  F   UNL     1      12.257   3.287  -3.209  0.00  0.00    -0.133 F 
ATOM      3  F   UNL     1      11.274   1.474  -2.412  0.00  0.00    -0.133 F 
ATOM     33  C   UNL     1      11.781   2.686  -2.098  0.00  0.00    +0.575 C 
ENDBRANCH   6  33
ENDBRANCH  31   6
ENDBRANCH  17  22
BRANCH   7  16
ATOM     16  C   UNL     1       8.551   6.570   4.896  0.00  0.00    +0.123 C 
BRANCH  16  21
ATOM     21  C   UNL     1       9.007   6.183   6.273  0.00  0.00    +0.008 A 
ATOM     23  C   UNL     1       9.792   5.052   6.465  0.00  0.00    +0.121 A 
ATOM     24  C   UNL     1       8.630   6.974   7.354  0.00  0.00    +0.008 A 
ATOM     27  C   UNL     1      10.204   4.706   7.751  0.00  0.00    +0.046 A 
ATOM     28  C   UNL     1       9.043   6.628   8.641  0.00  0.00    +0.001 A 
ATOM     32  C   UNL     1       9.830   5.494   8.839  0.00  0.00    +0.004 A 
BRANCH  23   5
ATOM      5  O   UNL     1      10.166   4.271   5.413  0.00  0.00    -0.506 OA
ATOM     34  H   UNL     1       9.899   3.352   5.588  0.00  0.00    +0.292 HD
ENDBRANCH  23   5
ENDBRANCH  16  21
ENDBRANCH   7  16
TORSDOF 6
ENDMDL
MODEL 7
REMARK VINA RESULT:      -6.3     34.837     38.512
REMARK  Name = 7155387
REMARK  6 active torsions:
REMARK  status: ('A' for Active; 'I' for Inactive)
REMARK    1  A    between atoms: O_5  and  C_23
REMARK    2  A    between atoms: O_6  and  C_31
REMARK    3  A    between atoms: O_6  and  C_33
REMARK    4  A    between atoms: N_7  and  C_16
REMARK    5  A    between atoms: C_16  and  C_21
REMARK    6  A    between atoms: C_17  and  C_22
REMARK                            x       y       z     vdW  Elec       q    Type
REMARK                         _______ _______ _______ _____ _____    ______ ____
ROOT
ATOM      4  O   UNL     1     -16.001  11.952  33.645  0.00  0.00    -0.268 OA
ATOM      7  N   UNL     1     -11.944  10.029  31.477  0.00  0.00    -0.297 NA
ATOM      8  N   UNL     1     -14.318  10.324  33.574  0.00  0.00    -0.311 N 
ATOM      9  C   UNL     1     -11.838  10.939  33.805  0.00  0.00    +0.024 C 
ATOM     10  C   UNL     1     -12.490   8.604  33.461  0.00  0.00    +0.051 C 
ATOM     11  C   UNL     1     -11.702   9.536  34.377  0.00  0.00    +0.017 C 
ATOM     12  C   UNL     1     -11.280  10.988  32.368  0.00  0.00    +0.090 C 
ATOM     13  C   UNL     1     -11.900   8.669  32.032  0.00  0.00    +0.094 C 
ATOM     14  C   UNL     1     -13.310  11.350  33.876  0.00  0.00    +0.130 C 
ATOM     15  C   UNL     1     -13.979   8.963  33.450  0.00  0.00    +0.034 A 
ATOM     17  C   UNL     1     -14.959   8.032  33.311  0.00  0.00    +0.002 A 
ATOM     18  C   UNL     1     -15.648  10.778  33.528  0.00  0.00    +0.252 A 
ATOM     19  C   UNL     1     -16.342   8.462  33.256  0.00  0.00    +0.015 A 
ATOM     20  C   UNL     1     -16.692   9.745  33.342  0.00  0.00    +0.071 A 
ENDROOT
BRANCH  17  22
ATOM     22  C   UNL     1     -14.651   6.589  33.199  0.00  0.00    -0.016 A 
ATOM     25  C   UNL     1     -14.295   5.870  34.335  0.00  0.00    +0.012 A 
ATOM     26  C   UNL     1     -14.719   5.962  31.959  0.00  0.00    +0.012 A 
ATOM     29  C   UNL     1     -14.005   4.509  34.229  0.00  0.00    +0.046 A 
ATOM     30  C   UNL     1     -14.430   4.602  31.853  0.00  0.00    +0.046 A 
ATOM     31  C   UNL     1     -14.072   3.876  32.990  0.00  0.00    +0.130 A 
BRANCH  31   6
ATOM      6  O   UNL     1     -13.791   2.548  32.887  0.00  0.00    -0.406 OA
BRANCH   6  33
ATOM      1  F   UNL     1     -14.840   0.573  32.579  0.00  0.00    -0.133 F 
ATOM      2  F   UNL     1     -14.291   1.139  34.617  0.00  0.00    -0.133 F 
ATOM      3  F   UNL     1     -15.941   2.177  33.574  0.00  0.00    -0.133 F 
ATOM     33  C   UNL     1     -14.720   1.617  33.430  0.00  0.00    +0.575 C 
ENDBRANCH   6  33
ENDBRANCH  31   6
ENDBRANCH  17  22
BRANCH   7  16
ATOM     16  C   UNL     1     -11.360  10.068  30.138  0.00  0.00    +0.123 C 
BRANCH  16  21
ATOM     21  C   UNL     1     -12.402  10.272  29.077  0.00  0.00    +0.008 A 
ATOM     23  C   UNL     1     -12.091  10.080  27.735  0.00  0.00    +0.121 A 
ATOM     24  C   UNL     1     -13.683  10.659  29.458  0.00  0.00    +0.008 A 
ATOM     27  C   UNL     1     -13.070  10.277  26.763  0.00  0.00    +0.046 A 
ATOM     28  C   UNL     1     -14.664  10.855  28.485  0.00  0.00    +0.001 A 
ATOM     32  C   UNL     1     -14.356  10.664  27.138  0.00  0.00    +0.004 A 
BRANCH  23   5
ATOM      5  O   UNL     1     -10.839   9.701  27.353  0.00  0.00    -0.506 OA
ATOM     34  H   UNL     1     -10.184  10.223  27.849  0.00  0.00    +0.292 HD
ENDBRANCH  23   5
ENDBRANCH  16  21
ENDBRANCH   7  16
TORSDOF 6
ENDMDL
MODEL 8
REMARK VINA RESULT:      -6.3     42.107     44.045
REMARK  Name = 7155387
REMARK  6 active torsions:
REMARK  status: ('A' for Active; 'I' for Inactive)
REMARK    1  A    between atoms: O_5  and  C_23
REMARK    2  A    between atoms: O_6  and  C_31
REMARK    3  A    between atoms: O_6  and  C_33
REMARK    4  A    between atoms: N_7  and  C_16
REMARK    5  A    between atoms: C_16  and  C_21
REMARK    6  A    between atoms: C_17  and  C_22
REMARK                            x       y       z     vdW  Elec       q    Type
REMARK                         _______ _______ _______ _____ _____    ______ ____
ROOT
ATOM      4  O   UNL     1      -4.117 -10.251  40.712  0.00  0.00    -0.268 OA
ATOM      7  N   UNL     1      -8.856  -9.867  39.213  0.00  0.00    -0.297 NA
ATOM      8  N   UNL     1      -6.263  -9.353  40.983  0.00  0.00    -0.311 N 
ATOM      9  C   UNL     1      -8.299 -10.844  41.447  0.00  0.00    +0.024 C 
ATOM     10  C   UNL     1      -8.583  -8.422  41.237  0.00  0.00    +0.051 C 
ATOM     11  C   UNL     1      -8.847  -9.614  42.153  0.00  0.00    +0.017 C 
ATOM     12  C   UNL     1      -8.999 -11.037  40.086  0.00  0.00    +0.090 C 
ATOM     13  C   UNL     1      -9.306  -8.641  39.887  0.00  0.00    +0.094 C 
ATOM     14  C   UNL     1      -6.783 -10.689  41.308  0.00  0.00    +0.130 C 
ATOM     15  C   UNL     1      -7.081  -8.208  41.021  0.00  0.00    +0.034 A 
ATOM     17  C   UNL     1      -6.531  -6.977  40.852  0.00  0.00    +0.002 A 
ATOM     18  C   UNL     1      -4.879  -9.285  40.742  0.00  0.00    +0.252 A 
ATOM     19  C   UNL     1      -5.108  -6.867  40.597  0.00  0.00    +0.015 A 
ATOM     20  C   UNL     1      -4.313  -7.934  40.528  0.00  0.00    +0.071 A 
ENDROOT
BRANCH  17  22
ATOM     22  C   UNL     1      -7.349  -5.745  40.905  0.00  0.00    -0.016 A 
ATOM     25  C   UNL     1      -7.648  -5.169  42.135  0.00  0.00    +0.012 A 
ATOM     26  C   UNL     1      -7.812  -5.171  39.725  0.00  0.00    +0.012 A 
ATOM     29  C   UNL     1      -8.418  -4.006  42.185  0.00  0.00    +0.046 A 
ATOM     30  C   UNL     1      -8.582  -4.010  39.776  0.00  0.00    +0.046 A 
ATOM     31  C   UNL     1      -8.885  -3.428  41.006  0.00  0.00    +0.130 A 
BRANCH  31   6
ATOM      6  O   UNL     1      -9.635  -2.293  41.056  0.00  0.00    -0.406 OA
BRANCH   6  33
ATOM      1  F   UNL     1     -11.219  -1.954  39.484  0.00  0.00    -0.133 F 
ATOM      2  F   UNL     1     -11.449  -3.666  40.822  0.00  0.00    -0.133 F 
ATOM      3  F   UNL     1     -11.756  -1.609  41.573  0.00  0.00    -0.133 F 
ATOM     33  C   UNL     1     -11.022  -2.388  40.749  0.00  0.00    +0.575 C 
ENDBRANCH   6  33
ENDBRANCH  31   6
ENDBRANCH  17  22
BRANCH   7  16
ATOM     16  C   UNL     1      -9.570 -10.064  37.953  0.00  0.00    +0.123 C 
BRANCH  16  21
ATOM     21  C   UNL     1      -8.882 -11.063  37.068  0.00  0.00    +0.008 A 
ATOM     23  C   UNL     1      -7.524 -10.944  36.792  0.00  0.00    +0.121 A 
ATOM     24  C   UNL     1      -9.626 -12.106  36.527  0.00  0.00    +0.008 A 
ATOM     27  C   UNL     1      -6.902 -11.880  35.966  0.00  0.00    +0.046 A 
ATOM     28  C   UNL     1      -9.004 -13.043  35.701  0.00  0.00    +0.001 A 
ATOM     32  C   UNL     1      -7.642 -12.929  35.421  0.00  0.00    +0.004 A 
BRANCH  23   5
ATOM      5  O   UNL     1      -6.787  -9.926  37.318  0.00  0.00    -0.506 OA
ATOM     34  H   UNL     1      -6.475 -10.184  38.202  0.00  0.00    +0.292 HD
ENDBRANCH  23   5
ENDBRANCH  16  21
ENDBRANCH   7  16
TORSDOF 6
ENDMDL
MODEL 9
REMARK VINA RESULT:      -6.1     35.877     38.860
REMARK  Name = 7155387
REMARK  6 active torsions:
REMARK  status: ('A' for Active; 'I' for Inactive)
REMARK    1  A    between atoms: O_5  and  C_23
REMARK    2  A    between atoms: O_6  and  C_31
REMARK    3  A    between atoms: O_6  and  C_33
REMARK    4  A    between atoms: N_7  and  C_16
REMARK    5  A    between atoms: C_16  and  C_21
REMARK    6  A    between atoms: C_17  and  C_22
REMARK                            x       y       z     vdW  Elec       q    Type
REMARK                         _______ _______ _______ _____ _____    ______ ____
ROOT
ATOM      4  O   UNL     1     -16.825  10.828  33.773  0.00  0.00    -0.268 OA
ATOM      7  N   UNL     1     -12.400   9.381  31.990  0.00  0.00    -0.297 NA
ATOM      8  N   UNL     1     -15.036   9.317  33.770  0.00  0.00    -0.311 N 
ATOM      9  C   UNL     1     -12.655  10.046  34.389  0.00  0.00    +0.024 C 
ATOM     10  C   UNL     1     -13.090   7.727  33.736  0.00  0.00    +0.051 C 
ATOM     11  C   UNL     1     -12.493   8.602  34.835  0.00  0.00    +0.017 C 
ATOM     12  C   UNL     1     -11.924  10.278  33.050  0.00  0.00    +0.090 C 
ATOM     13  C   UNL     1     -12.329   7.975  32.412  0.00  0.00    +0.094 C 
ATOM     14  C   UNL     1     -14.150  10.362  34.301  0.00  0.00    +0.130 C 
ATOM     15  C   UNL     1     -14.588   7.998  33.562  0.00  0.00    +0.034 A 
ATOM     17  C   UNL     1     -15.473   7.031  33.204  0.00  0.00    +0.002 A 
ATOM     18  C   UNL     1     -16.378   9.695  33.592  0.00  0.00    +0.252 A 
ATOM     19  C   UNL     1     -16.865   7.384  33.006  0.00  0.00    +0.015 A 
ATOM     20  C   UNL     1     -17.314   8.628  33.169  0.00  0.00    +0.071 A 
ENDROOT
BRANCH  17  22
ATOM     22  C   UNL     1     -15.051   5.629  32.995  0.00  0.00    -0.016 A 
ATOM     25  C   UNL     1     -15.101   4.728  34.055  0.00  0.00    +0.012 A 
ATOM     26  C   UNL     1     -14.609   5.219  31.741  0.00  0.00    +0.012 A 
ATOM     29  C   UNL     1     -14.704   3.405  33.857  0.00  0.00    +0.046 A 
ATOM     30  C   UNL     1     -14.212   3.896  31.544  0.00  0.00    +0.046 A 
ATOM     31  C   UNL     1     -14.260   2.990  32.603  0.00  0.00    +0.130 A 
BRANCH  31   6
ATOM      6  O   UNL     1     -13.874   1.699  32.411  0.00  0.00    -0.406 OA
BRANCH   6  33
ATOM      1  F   UNL     1     -14.950  -0.260  32.098  0.00  0.00    -0.133 F 
ATOM      2  F   UNL     1     -15.756   1.523  31.124  0.00  0.00    -0.133 F 
ATOM      3  F   UNL     1     -13.878   0.605  30.403  0.00  0.00    -0.133 F 
ATOM     33  C   UNL     1     -14.615   0.902  31.494  0.00  0.00    +0.575 C 
ENDBRANCH   6  33
ENDBRANCH  31   6
ENDBRANCH  17  22
BRANCH   7  16
ATOM     16  C   UNL     1     -11.655   9.594  30.751  0.00  0.00    +0.123 C 
BRANCH  16  21
ATOM     21  C   UNL     1     -12.184  10.763  29.972  0.00  0.00    +0.008 A 
ATOM     23  C   UNL     1     -13.544  10.874  29.702  0.00  0.00    +0.121 A 
ATOM     24  C   UNL     1     -11.292  11.731  29.523  0.00  0.00    +0.008 A 
ATOM     27  C   UNL     1     -14.018  11.965  28.975  0.00  0.00    +0.046 A 
ATOM     28  C   UNL     1     -11.766  12.824  28.796  0.00  0.00    +0.001 A 
ATOM     32  C   UNL     1     -13.129  12.940  28.522  0.00  0.00    +0.004 A 
BRANCH  23   5
ATOM      5  O   UNL     1     -14.425   9.931  30.138  0.00  0.00    -0.506 OA
ATOM     34  H   UNL     1     -15.331  10.269  30.031  0.00  0.00    +0.292 HD
ENDBRANCH  23   5
ENDBRANCH  16  21
ENDBRANCH   7  16
TORSDOF 6
ENDMDL
MODEL 10
REMARK VINA RESULT:      -6.1     24.367     28.679
REMARK  Name = 7155387
REMARK  6 active torsions:
REMARK  status: ('A' for Active; 'I' for Inactive)
REMARK    1  A    between atoms: O_5  and  C_23
REMARK    2  A    between atoms: O_6  and  C_31
REMARK    3  A    between atoms: O_6  and  C_33
REMARK    4  A    between atoms: N_7  and  C_16
REMARK    5  A    between atoms: C_16  and  C_21
REMARK    6  A    between atoms: C_17  and  C_22
REMARK                            x       y       z     vdW  Elec       q    Type
REMARK                         _______ _______ _______ _____ _____    ______ ____
ROOT
ATOM      4  O   UNL     1      -7.145 -15.216  17.407  0.00  0.00    -0.268 OA
ATOM      7  N   UNL     1      -7.509 -10.259  17.802  0.00  0.00    -0.297 NA
ATOM      8  N   UNL     1      -6.289 -13.078  16.977  0.00  0.00    -0.311 N 
ATOM      9  C   UNL     1      -5.614 -11.489  18.876  0.00  0.00    +0.024 C 
ATOM     10  C   UNL     1      -5.405 -10.766  16.546  0.00  0.00    +0.051 C 
ATOM     11  C   UNL     1      -4.637 -10.930  17.854  0.00  0.00    +0.017 C 
ATOM     12  C   UNL     1      -6.804 -10.526  19.061  0.00  0.00    +0.090 C 
ATOM     13  C   UNL     1      -6.584  -9.787  16.763  0.00  0.00    +0.094 C 
ATOM     14  C   UNL     1      -6.054 -12.881  18.414  0.00  0.00    +0.130 C 
ATOM     15  C   UNL     1      -5.909 -12.115  16.023  0.00  0.00    +0.034 A 
ATOM     17  C   UNL     1      -6.014 -12.396  14.698  0.00  0.00    +0.002 A 
ATOM     18  C   UNL     1      -6.811 -14.333  16.616  0.00  0.00    +0.252 A 
ATOM     19  C   UNL     1      -6.553 -13.678  14.287  0.00  0.00    +0.015 A 
ATOM     20  C   UNL     1      -6.946 -14.600  15.166  0.00  0.00    +0.071 A 
ENDROOT
BRANCH  17  22
ATOM     22  C   UNL     1      -5.608 -11.423  13.661  0.00  0.00    -0.016 A 
ATOM     25  C   UNL     1      -4.257 -11.180  13.434  0.00  0.00    +0.012 A 
ATOM     26  C   UNL     1      -6.579 -10.757  12.919  0.00  0.00    +0.012 A 
ATOM     29  C   UNL     1      -3.874 -10.262  12.455  0.00  0.00    +0.046 A 
ATOM     30  C   UNL     1      -6.196  -9.840  11.941  0.00  0.00    +0.046 A 
ATOM     31  C   UNL     1      -4.843  -9.593  11.709  0.00  0.00    +0.130 A 
BRANCH  31   6
ATOM      6  O   UNL     1      -4.469  -8.698  10.754  0.00  0.00    -0.406 OA
BRANCH   6  33
ATOM      1  F   UNL     1      -2.405  -8.918   9.867  0.00  0.00    -0.133 F 
ATOM      2  F   UNL     1      -3.859 -10.506   9.493  0.00  0.00    -0.133 F 
ATOM      3  F   UNL     1      -4.072  -8.539   8.507  0.00  0.00    -0.133 F 
ATOM     33  C   UNL     1      -3.714  -9.173   9.644  0.00  0.00    +0.575 C 
ENDBRANCH   6  33
ENDBRANCH  31   6
ENDBRANCH  17  22
BRANCH   7  16
ATOM     16  C   UNL     1      -8.600  -9.307  18.005  0.00  0.00    +0.123 C 
BRANCH  16  21
ATOM     21  C   UNL     1      -9.939  -9.984  18.027  0.00  0.00    +0.008 A 
ATOM     23  C   UNL     1     -10.542 -10.319  19.235  0.00  0.00    +0.121 A 
ATOM     24  C   UNL     1     -10.567 -10.273  16.820  0.00  0.00    +0.008 A 
ATOM     27  C   UNL     1     -11.785 -10.949  19.236  0.00  0.00    +0.046 A 
ATOM     28  C   UNL     1     -11.812 -10.904  16.821  0.00  0.00    +0.001 A 
ATOM     32  C   UNL     1     -12.420 -11.241  18.029  0.00  0.00    +0.004 A 
BRANCH  23   5
ATOM      5  O   UNL     1      -9.935 -10.039  20.423  0.00  0.00    -0.506 OA
ATOM     34  H   UNL     1      -9.874  -9.074  20.529  0.00  0.00    +0.292 HD
ENDBRANCH  23   5
ENDBRANCH  16  21
ENDBRANCH   7  16
TORSDOF 6
ENDMDL
