MODEL 1
REMARK VINA RESULT:      -7.4      0.000      0.000
REMARK  Name = 11913093
REMARK  10 active torsions:
REMARK  status: ('A' for Active; 'I' for Inactive)
REMARK    1  A    between atoms: O_3  and  C_13
REMARK    2  A    between atoms: O_3  and  C_17
REMARK    3  A    between atoms: O_5  and  C_28
REMARK    4  A    between atoms: O_5  and  C_31
REMARK    5  A    between atoms: N_6  and  C_12
REMARK    6  A    between atoms: N_9  and  C_25
REMARK    7  A    between atoms: C_18  and  C_19
REMARK    8  A    between atoms: C_18  and  C_22
REMARK    9  A    between atoms: C_18  and  C_23
REMARK   10  A    between atoms: C_18  and  C_24
REMARK                            x       y       z     vdW  Elec       q    Type
REMARK                         _______ _______ _______ _____ _____    ______ ____
ROOT
ATOM      1  O   UNL     1     -11.503  -8.542  17.507  0.00  0.00    -0.368 OA
ATOM      2  O   UNL     1      -9.546  -8.531  15.145  0.00  0.00    -0.368 OA
ATOM     10  C   UNL     1      -9.325  -8.551  16.571  0.00  0.00    +0.173 C 
ATOM     11  C   UNL     1     -10.398  -7.680  17.193  0.00  0.00    +0.192 C 
ATOM     12  C   UNL     1      -9.610  -9.930  17.118  0.00  0.00    +0.130 C 
ATOM     13  C   UNL     1     -10.734  -6.725  16.073  0.00  0.00    +0.235 C 
ATOM     14  C   UNL     1     -11.120  -9.908  17.282  0.00  0.00    +0.185 C 
ATOM     15  C   UNL     1     -10.603  -7.607  14.852  0.00  0.00    +0.207 C 
ENDROOT
BRANCH  12   6
ATOM      6  N   UNL     1      -8.968 -10.102  18.405  0.00  0.00    -0.306 N 
ATOM      7  N   UNL     1      -6.908 -10.652  17.426  0.00  0.00    -0.219 NA
ATOM      8  N   UNL     1      -7.161 -10.583  19.821  0.00  0.00    -0.223 NA
ATOM     16  C   UNL     1      -7.639 -10.456  18.555  0.00  0.00    +0.216 A 
ATOM     19  C   UNL     1      -5.616 -10.995  17.610  0.00  0.00    +0.052 A 
ATOM     20  C   UNL     1      -5.033 -11.149  18.851  0.00  0.00    +0.043 A 
ATOM     21  C   UNL     1      -5.862 -10.928  19.932  0.00  0.00    +0.116 A 
ATOM     32  H   UNL     1      -9.491  -9.908  19.251  0.00  0.00    +0.149 HD
BRANCH  19  18
ATOM     18  C   UNL     1      -4.799 -11.214  16.381  0.00  0.00    +0.005 C 
ATOM     22  C   UNL     1      -4.878 -12.698  15.906  0.00  0.00    +0.017 C 
ATOM     23  C   UNL     1      -3.272 -10.904  16.526  0.00  0.00    +0.017 C 
ATOM     24  C   UNL     1      -5.296 -10.317  15.206  0.00  0.00    +0.017 C 
ENDBRANCH  19  18
ENDBRANCH  12   6
BRANCH  13   3
ATOM      3  O   UNL     1     -12.019  -6.158  16.184  0.00  0.00    -0.442 OA
BRANCH   3  17
ATOM      4  O   UNL     1     -13.557  -6.838  14.634  0.00  0.00    -0.226 OA
ATOM      9  N   UNL     1     -12.388  -4.824  14.403  0.00  0.00    -0.251 N 
ATOM     17  C   UNL     1     -12.740  -6.010  15.018  0.00  0.00    +0.405 C 
ATOM     33  H   UNL     1     -11.684  -4.264  14.879  0.00  0.00    +0.158 HD
BRANCH   9  25
ATOM     25  C   UNL     1     -12.884  -4.290  13.193  0.00  0.00    +0.040 A 
ATOM     26  C   UNL     1     -12.029  -4.151  12.110  0.00  0.00    +0.069 A 
ATOM     27  C   UNL     1     -14.215  -3.916  13.110  0.00  0.00    +0.023 A 
ATOM     28  C   UNL     1     -12.519  -3.624  10.915  0.00  0.00    +0.122 A 
ATOM     29  C   UNL     1     -14.705  -3.390  11.915  0.00  0.00    +0.005 A 
ATOM     30  C   UNL     1     -13.857  -3.243  10.818  0.00  0.00    +0.046 A 
BRANCH  28   5
ATOM      5  O   UNL     1     -11.691  -3.482   9.844  0.00  0.00    -0.495 OA
ATOM     31  C   UNL     1     -11.043  -4.659   9.365  0.00  0.00    +0.277 C 
ENDBRANCH  28   5
ENDBRANCH   9  25
ENDBRANCH   3  17
ENDBRANCH  13   3
TORSDOF 6
ENDMDL
MODEL 2
REMARK VINA RESULT:      -7.2     15.957     19.085
REMARK  Name = 11913093
REMARK  10 active torsions:
REMARK  status: ('A' for Active; 'I' for Inactive)
REMARK    1  A    between atoms: O_3  and  C_13
REMARK    2  A    between atoms: O_3  and  C_17
REMARK    3  A    between atoms: O_5  and  C_28
REMARK    4  A    between atoms: O_5  and  C_31
REMARK    5  A    between atoms: N_6  and  C_12
REMARK    6  A    between atoms: N_9  and  C_25
REMARK    7  A    between atoms: C_18  and  C_19
REMARK    8  A    between atoms: C_18  and  C_22
REMARK    9  A    between atoms: C_18  and  C_23
REMARK   10  A    between atoms: C_18  and  C_24
REMARK                            x       y       z     vdW  Elec       q    Type
REMARK                         _______ _______ _______ _____ _____    ______ ____
ROOT
ATOM      1  O   UNL     1     -15.037   4.112  24.631  0.00  0.00    -0.368 OA
ATOM      2  O   UNL     1     -17.071   3.900  22.344  0.00  0.00    -0.368 OA
ATOM     10  C   UNL     1     -16.757   4.979  23.249  0.00  0.00    +0.173 C 
ATOM     11  C   UNL     1     -16.453   4.350  24.594  0.00  0.00    +0.192 C 
ATOM     12  C   UNL     1     -15.454   5.628  22.846  0.00  0.00    +0.130 C 
ATOM     13  C   UNL     1     -17.237   3.061  24.536  0.00  0.00    +0.235 C 
ATOM     14  C   UNL     1     -14.424   4.707  23.477  0.00  0.00    +0.185 C 
ATOM     15  C   UNL     1     -17.100   2.670  23.082  0.00  0.00    +0.207 C 
ENDROOT
BRANCH  12   6
ATOM      6  N   UNL     1     -15.357   6.955  23.416  0.00  0.00    -0.306 N 
ATOM      7  N   UNL     1     -13.814   7.659  21.794  0.00  0.00    -0.219 NA
ATOM      8  N   UNL     1     -14.554   9.157  23.531  0.00  0.00    -0.223 NA
ATOM     16  C   UNL     1     -14.551   7.954  22.898  0.00  0.00    +0.216 A 
ATOM     19  C   UNL     1     -13.041   8.656  21.315  0.00  0.00    +0.052 A 
ATOM     20  C   UNL     1     -12.972   9.912  21.882  0.00  0.00    +0.043 A 
ATOM     21  C   UNL     1     -13.759  10.108  22.999  0.00  0.00    +0.116 A 
ATOM     32  H   UNL     1     -15.941   7.201  24.208  0.00  0.00    +0.149 HD
BRANCH  19  18
ATOM     18  C   UNL     1     -12.226   8.350  20.104  0.00  0.00    +0.005 C 
ATOM     22  C   UNL     1     -11.134   9.439  19.867  0.00  0.00    +0.017 C 
ATOM     23  C   UNL     1     -13.025   8.263  18.762  0.00  0.00    +0.017 C 
ATOM     24  C   UNL     1     -11.498   6.977  20.245  0.00  0.00    +0.017 C 
ENDBRANCH  19  18
ENDBRANCH  12   6
BRANCH  13   3
ATOM      3  O   UNL     1     -16.744   2.064  25.403  0.00  0.00    -0.442 OA
BRANCH   3  17
ATOM      4  O   UNL     1     -18.119   1.972  27.228  0.00  0.00    -0.226 OA
ATOM      9  N   UNL     1     -15.888   2.657  27.404  0.00  0.00    -0.251 N 
ATOM     17  C   UNL     1     -17.019   2.214  26.746  0.00  0.00    +0.405 C 
ATOM     33  H   UNL     1     -15.062   2.801  26.827  0.00  0.00    +0.158 HD
BRANCH   9  25
ATOM     25  C   UNL     1     -15.735   2.938  28.780  0.00  0.00    +0.040 A 
ATOM     26  C   UNL     1     -15.455   1.902  29.658  0.00  0.00    +0.069 A 
ATOM     27  C   UNL     1     -15.865   4.243  29.226  0.00  0.00    +0.023 A 
ATOM     28  C   UNL     1     -15.304   2.180  31.016  0.00  0.00    +0.122 A 
ATOM     29  C   UNL     1     -15.713   4.520  30.584  0.00  0.00    +0.005 A 
ATOM     30  C   UNL     1     -15.433   3.488  31.479  0.00  0.00    +0.046 A 
BRANCH  28   5
ATOM      5  O   UNL     1     -15.029   1.172  31.890  0.00  0.00    -0.495 OA
ATOM     31  C   UNL     1     -14.735   1.543  33.236  0.00  0.00    +0.277 C 
ENDBRANCH  28   5
ENDBRANCH   9  25
ENDBRANCH   3  17
ENDBRANCH  13   3
TORSDOF 6
ENDMDL
MODEL 3
REMARK VINA RESULT:      -7.2      1.898      9.555
REMARK  Name = 11913093
REMARK  10 active torsions:
REMARK  status: ('A' for Active; 'I' for Inactive)
REMARK    1  A    between atoms: O_3  and  C_13
REMARK    2  A    between atoms: O_3  and  C_17
REMARK    3  A    between atoms: O_5  and  C_28
REMARK    4  A    between atoms: O_5  and  C_31
REMARK    5  A    between atoms: N_6  and  C_12
REMARK    6  A    between atoms: N_9  and  C_25
REMARK    7  A    between atoms: C_18  and  C_19
REMARK    8  A    between atoms: C_18  and  C_22
REMARK    9  A    between atoms: C_18  and  C_23
REMARK   10  A    between atoms: C_18  and  C_24
REMARK                            x       y       z     vdW  Elec       q    Type
REMARK                         _______ _______ _______ _____ _____    ______ ____
ROOT
ATOM      1  O   UNL     1     -10.864  -6.768  16.731  0.00  0.00    -0.368 OA
ATOM      2  O   UNL     1     -11.206  -8.899  14.551  0.00  0.00    -0.368 OA
ATOM     10  C   UNL     1     -12.085  -7.851  15.011  0.00  0.00    +0.173 C 
ATOM     11  C   UNL     1     -11.893  -7.745  16.510  0.00  0.00    +0.192 C 
ATOM     12  C   UNL     1     -11.615  -6.514  14.487  0.00  0.00    +0.130 C 
ATOM     13  C   UNL     1     -11.433  -9.135  16.880  0.00  0.00    +0.235 C 
ATOM     14  C   UNL     1     -10.532  -6.138  15.483  0.00  0.00    +0.185 C 
ATOM     15  C   UNL     1     -10.588  -9.518  15.687  0.00  0.00    +0.207 C 
ENDROOT
BRANCH  12   6
ATOM      6  N   UNL     1     -12.694  -5.550  14.531  0.00  0.00    -0.306 N 
ATOM      7  N   UNL     1     -12.458  -5.018  12.258  0.00  0.00    -0.219 NA
ATOM      8  N   UNL     1     -14.137  -3.944  13.614  0.00  0.00    -0.223 NA
ATOM     16  C   UNL     1     -13.108  -4.815  13.435  0.00  0.00    +0.216 A 
ATOM     19  C   UNL     1     -12.889  -4.284  11.210  0.00  0.00    +0.052 A 
ATOM     20  C   UNL     1     -13.923  -3.375  11.285  0.00  0.00    +0.043 A 
ATOM     21  C   UNL     1     -14.516  -3.244  12.525  0.00  0.00    +0.116 A 
ATOM     32  H   UNL     1     -13.219  -5.430  15.390  0.00  0.00    +0.149 HD
BRANCH  19  18
ATOM     18  C   UNL     1     -12.186  -4.494   9.911  0.00  0.00    +0.005 C 
ATOM     22  C   UNL     1     -11.373  -5.826   9.918  0.00  0.00    +0.017 C 
ATOM     23  C   UNL     1     -11.160  -3.382   9.516  0.00  0.00    +0.017 C 
ATOM     24  C   UNL     1     -13.198  -4.567   8.726  0.00  0.00    +0.017 C 
ENDBRANCH  19  18
ENDBRANCH  12   6
BRANCH  13   3
ATOM      3  O   UNL     1     -10.704  -9.184  18.086  0.00  0.00    -0.442 OA
BRANCH   3  17
ATOM      4  O   UNL     1      -9.886 -11.312  18.266  0.00  0.00    -0.226 OA
ATOM      9  N   UNL     1      -8.466  -9.459  18.101  0.00  0.00    -0.251 N 
ATOM     17  C   UNL     1      -9.684 -10.108  18.162  0.00  0.00    +0.405 C 
ATOM     33  H   UNL     1      -8.502  -8.446  18.013  0.00  0.00    +0.158 HD
BRANCH   9  25
ATOM     25  C   UNL     1      -7.173 -10.028  18.145  0.00  0.00    +0.040 A 
ATOM     26  C   UNL     1      -6.364  -9.965  17.021  0.00  0.00    +0.069 A 
ATOM     27  C   UNL     1      -6.738 -10.636  19.311  0.00  0.00    +0.023 A 
ATOM     28  C   UNL     1      -5.088 -10.526  17.065  0.00  0.00    +0.122 A 
ATOM     29  C   UNL     1      -5.461 -11.196  19.355  0.00  0.00    +0.005 A 
ATOM     30  C   UNL     1      -4.637 -11.142  18.232  0.00  0.00    +0.046 A 
BRANCH  28   5
ATOM      5  O   UNL     1      -4.282 -10.472  15.968  0.00  0.00    -0.495 OA
ATOM     31  C   UNL     1      -2.902 -10.774  16.162  0.00  0.00    +0.277 C 
ENDBRANCH  28   5
ENDBRANCH   9  25
ENDBRANCH   3  17
ENDBRANCH  13   3
TORSDOF 6
ENDMDL
MODEL 4
REMARK VINA RESULT:      -7.1      4.725      6.935
REMARK  Name = 11913093
REMARK  10 active torsions:
REMARK  status: ('A' for Active; 'I' for Inactive)
REMARK    1  A    between atoms: O_3  and  C_13
REMARK    2  A    between atoms: O_3  and  C_17
REMARK    3  A    between atoms: O_5  and  C_28
REMARK    4  A    between atoms: O_5  and  C_31
REMARK    5  A    between atoms: N_6  and  C_12
REMARK    6  A    between atoms: N_9  and  C_25
REMARK    7  A    between atoms: C_18  and  C_19
REMARK    8  A    between atoms: C_18  and  C_22
REMARK    9  A    between atoms: C_18  and  C_23
REMARK   10  A    between atoms: C_18  and  C_24
REMARK                            x       y       z     vdW  Elec       q    Type
REMARK                         _______ _______ _______ _____ _____    ______ ____
ROOT
ATOM      1  O   UNL     1      -6.160 -12.229  19.073  0.00  0.00    -0.368 OA
ATOM      2  O   UNL     1      -7.513 -11.239  16.504  0.00  0.00    -0.368 OA
ATOM     10  C   UNL     1      -6.255 -10.890  17.119  0.00  0.00    +0.173 C 
ATOM     11  C   UNL     1      -6.481 -10.905  18.618  0.00  0.00    +0.192 C 
ATOM     12  C   UNL     1      -5.245 -11.989  16.890  0.00  0.00    +0.130 C 
ATOM     13  C   UNL     1      -7.959 -10.618  18.729  0.00  0.00    +0.235 C 
ATOM     14  C   UNL     1      -5.587 -12.979  17.990  0.00  0.00    +0.185 C 
ATOM     15  C   UNL     1      -8.516 -11.343  17.524  0.00  0.00    +0.207 C 
ENDROOT
BRANCH  12   6
ATOM      6  N   UNL     1      -3.901 -11.481  17.072  0.00  0.00    -0.306 N 
ATOM      7  N   UNL     1      -3.614 -11.105  14.774  0.00  0.00    -0.219 NA
ATOM      8  N   UNL     1      -1.857 -10.591  16.341  0.00  0.00    -0.223 NA
ATOM     16  C   UNL     1      -3.100 -11.046  16.031  0.00  0.00    +0.216 A 
ATOM     19  C   UNL     1      -2.806 -10.672  13.784  0.00  0.00    +0.052 A 
ATOM     20  C   UNL     1      -1.530 -10.192  13.991  0.00  0.00    +0.043 A 
ATOM     21  C   UNL     1      -1.104 -10.174  15.303  0.00  0.00    +0.116 A 
ATOM     32  H   UNL     1      -3.529 -11.385  18.010  0.00  0.00    +0.149 HD
BRANCH  19  18
ATOM     18  C   UNL     1      -3.355 -10.730  12.397  0.00  0.00    +0.005 C 
ATOM     22  C   UNL     1      -2.463  -9.923  11.403  0.00  0.00    +0.017 C 
ATOM     23  C   UNL     1      -4.799 -10.155  12.223  0.00  0.00    +0.017 C 
ATOM     24  C   UNL     1      -3.426 -12.199  11.879  0.00  0.00    +0.017 C 
ENDBRANCH  19  18
ENDBRANCH  12   6
BRANCH  13   3
ATOM      3  O   UNL     1      -8.531 -11.073  19.934  0.00  0.00    -0.442 OA
BRANCH   3  17
ATOM      4  O   UNL     1     -10.401 -12.369  20.172  0.00  0.00    -0.226 OA
ATOM      9  N   UNL     1     -10.542 -10.090  19.656  0.00  0.00    -0.251 N 
ATOM     17  C   UNL     1      -9.895 -11.277  19.941  0.00  0.00    +0.405 C 
ATOM     33  H   UNL     1      -9.945  -9.282  19.493  0.00  0.00    +0.158 HD
BRANCH   9  25
ATOM     25  C   UNL     1     -11.933  -9.857  19.564  0.00  0.00    +0.040 A 
ATOM     26  C   UNL     1     -12.518  -9.725  18.315  0.00  0.00    +0.069 A 
ATOM     27  C   UNL     1     -12.685  -9.764  20.724  0.00  0.00    +0.023 A 
ATOM     28  C   UNL     1     -13.891  -9.495  18.224  0.00  0.00    +0.122 A 
ATOM     29  C   UNL     1     -14.057  -9.535  20.633  0.00  0.00    +0.005 A 
ATOM     30  C   UNL     1     -14.660  -9.400  19.383  0.00  0.00    +0.046 A 
BRANCH  28   5
ATOM      5  O   UNL     1     -14.480  -9.365  17.003  0.00  0.00    -0.495 OA
ATOM     31  C   UNL     1     -13.656  -9.582  15.859  0.00  0.00    +0.277 C 
ENDBRANCH  28   5
ENDBRANCH   9  25
ENDBRANCH   3  17
ENDBRANCH  13   3
TORSDOF 6
ENDMDL
MODEL 5
REMARK VINA RESULT:      -7.1     29.873     32.830
REMARK  Name = 11913093
REMARK  10 active torsions:
REMARK  status: ('A' for Active; 'I' for Inactive)
REMARK    1  A    between atoms: O_3  and  C_13
REMARK    2  A    between atoms: O_3  and  C_17
REMARK    3  A    between atoms: O_5  and  C_28
REMARK    4  A    between atoms: O_5  and  C_31
REMARK    5  A    between atoms: N_6  and  C_12
REMARK    6  A    between atoms: N_9  and  C_25
REMARK    7  A    between atoms: C_18  and  C_19
REMARK    8  A    between atoms: C_18  and  C_22
REMARK    9  A    between atoms: C_18  and  C_23
REMARK   10  A    between atoms: C_18  and  C_24
REMARK                            x       y       z     vdW  Elec       q    Type
REMARK                         _______ _______ _______ _____ _____    ______ ____
ROOT
ATOM      1  O   UNL     1      21.326   6.713  20.234  0.00  0.00    -0.368 OA
ATOM      2  O   UNL     1      20.772   5.949  23.153  0.00  0.00    -0.368 OA
ATOM     10  C   UNL     1      21.228   5.167  22.029  0.00  0.00    +0.173 C 
ATOM     11  C   UNL     1      20.498   5.689  20.808  0.00  0.00    +0.192 C 
ATOM     12  C   UNL     1      22.680   5.470  21.744  0.00  0.00    +0.130 C 
ATOM     13  C   UNL     1      19.233   6.259  21.401  0.00  0.00    +0.235 C 
ATOM     14  C   UNL     1      22.591   6.738  20.914  0.00  0.00    +0.185 C 
ATOM     15  C   UNL     1      19.724   6.825  22.715  0.00  0.00    +0.207 C 
ENDROOT
BRANCH  12   6
ATOM      6  N   UNL     1      23.272   4.402  20.966  0.00  0.00    -0.306 N 
ATOM      7  N   UNL     1      23.475   3.002  22.839  0.00  0.00    -0.219 NA
ATOM      8  N   UNL     1      24.204   2.270  20.661  0.00  0.00    -0.223 NA
ATOM     16  C   UNL     1      23.662   3.188  21.505  0.00  0.00    +0.216 A 
ATOM     19  C   UNL     1      23.867   1.807  23.330  0.00  0.00    +0.052 A 
ATOM     20  C   UNL     1      24.426   0.809  22.561  0.00  0.00    +0.043 A 
ATOM     21  C   UNL     1      24.572   1.098  21.219  0.00  0.00    +0.116 A 
ATOM     32  H   UNL     1      23.367   4.511  19.963  0.00  0.00    +0.149 HD
BRANCH  19  18
ATOM     18  C   UNL     1      23.669   1.587  24.792  0.00  0.00    +0.005 C 
ATOM     22  C   UNL     1      23.133   2.875  25.491  0.00  0.00    +0.017 C 
ATOM     23  C   UNL     1      24.953   1.184  25.590  0.00  0.00    +0.017 C 
ATOM     24  C   UNL     1      22.640   0.445  25.057  0.00  0.00    +0.017 C 
ENDBRANCH  19  18
ENDBRANCH  12   6
BRANCH  13   3
ATOM      3  O   UNL     1      18.626   7.242  20.593  0.00  0.00    -0.442 OA
BRANCH   3  17
ATOM      4  O   UNL     1      17.351   6.002  19.155  0.00  0.00    -0.226 OA
ATOM      9  N   UNL     1      16.425   7.716  20.454  0.00  0.00    -0.251 N 
ATOM     17  C   UNL     1      17.437   6.902  19.983  0.00  0.00    +0.405 C 
ATOM     33  H   UNL     1      16.694   8.411  21.146  0.00  0.00    +0.158 HD
BRANCH   9  25
ATOM     25  C   UNL     1      15.059   7.704  20.092  0.00  0.00    +0.040 A 
ATOM     26  C   UNL     1      14.151   7.025  20.889  0.00  0.00    +0.069 A 
ATOM     27  C   UNL     1      14.653   8.373  18.949  0.00  0.00    +0.023 A 
ATOM     28  C   UNL     1      12.803   7.014  20.532  0.00  0.00    +0.122 A 
ATOM     29  C   UNL     1      13.304   8.362  18.593  0.00  0.00    +0.005 A 
ATOM     30  C   UNL     1      12.380   7.682  19.384  0.00  0.00    +0.046 A 
BRANCH  28   5
ATOM      5  O   UNL     1      11.899   6.350  21.306  0.00  0.00    -0.495 OA
ATOM     31  C   UNL     1      10.731   7.068  21.699  0.00  0.00    +0.277 C 
ENDBRANCH  28   5
ENDBRANCH   9  25
ENDBRANCH   3  17
ENDBRANCH  13   3
TORSDOF 6
ENDMDL
MODEL 6
REMARK VINA RESULT:      -7.1     15.917     18.907
REMARK  Name = 11913093
REMARK  10 active torsions:
REMARK  status: ('A' for Active; 'I' for Inactive)
REMARK    1  A    between atoms: O_3  and  C_13
REMARK    2  A    between atoms: O_3  and  C_17
REMARK    3  A    between atoms: O_5  and  C_28
REMARK    4  A    between atoms: O_5  and  C_31
REMARK    5  A    between atoms: N_6  and  C_12
REMARK    6  A    between atoms: N_9  and  C_25
REMARK    7  A    between atoms: C_18  and  C_19
REMARK    8  A    between atoms: C_18  and  C_22
REMARK    9  A    between atoms: C_18  and  C_23
REMARK   10  A    between atoms: C_18  and  C_24
REMARK                            x       y       z     vdW  Elec       q    Type
REMARK                         _______ _______ _______ _____ _____    ______ ____
ROOT
ATOM      1  O   UNL     1     -15.569   5.710  24.201  0.00  0.00    -0.368 OA
ATOM      2  O   UNL     1     -16.093   2.849  23.227  0.00  0.00    -0.368 OA
ATOM     10  C   UNL     1     -16.651   4.116  22.820  0.00  0.00    +0.173 C 
ATOM     11  C   UNL     1     -16.786   4.958  24.073  0.00  0.00    +0.192 C 
ATOM     12  C   UNL     1     -15.653   4.873  21.976  0.00  0.00    +0.130 C 
ATOM     13  C   UNL     1     -16.915   3.915  25.156  0.00  0.00    +0.235 C 
ATOM     14  C   UNL     1     -14.767   5.522  23.024  0.00  0.00    +0.185 C 
ATOM     15  C   UNL     1     -15.997   2.822  24.658  0.00  0.00    +0.207 C 
ENDROOT
BRANCH  12   6
ATOM      6  N   UNL     1     -16.327   5.886  21.191  0.00  0.00    -0.306 N 
ATOM      7  N   UNL     1     -14.303   6.849  20.495  0.00  0.00    -0.219 NA
ATOM      8  N   UNL     1     -16.417   7.749  19.767  0.00  0.00    -0.223 NA
ATOM     16  C   UNL     1     -15.662   6.857  20.463  0.00  0.00    +0.216 A 
ATOM     19  C   UNL     1     -13.688   7.809  19.773  0.00  0.00    +0.052 A 
ATOM     20  C   UNL     1     -14.360   8.760  19.034  0.00  0.00    +0.043 A 
ATOM     21  C   UNL     1     -15.737   8.681  19.068  0.00  0.00    +0.116 A 
ATOM     32  H   UNL     1     -17.338   5.869  21.118  0.00  0.00    +0.149 HD
BRANCH  19  18
ATOM     18  C   UNL     1     -12.197   7.814  19.798  0.00  0.00    +0.005 C 
ATOM     22  C   UNL     1     -11.642   9.231  20.145  0.00  0.00    +0.017 C 
ATOM     23  C   UNL     1     -11.502   7.413  18.456  0.00  0.00    +0.017 C 
ATOM     24  C   UNL     1     -11.646   6.819  20.866  0.00  0.00    +0.017 C 
ENDBRANCH  19  18
ENDBRANCH  12   6
BRANCH  13   3
ATOM      3  O   UNL     1     -16.543   4.381  26.433  0.00  0.00    -0.442 OA
BRANCH   3  17
ATOM      4  O   UNL     1     -17.792   3.063  27.824  0.00  0.00    -0.226 OA
ATOM      9  N   UNL     1     -15.469   3.240  28.056  0.00  0.00    -0.251 N 
ATOM     17  C   UNL     1     -16.700   3.506  27.488  0.00  0.00    +0.405 C 
ATOM     33  H   UNL     1     -14.670   3.706  27.632  0.00  0.00    +0.158 HD
BRANCH   9  25
ATOM     25  C   UNL     1     -15.181   2.399  29.154  0.00  0.00    +0.040 A 
ATOM     26  C   UNL     1     -14.521   2.922  30.256  0.00  0.00    +0.069 A 
ATOM     27  C   UNL     1     -15.563   1.068  29.110  0.00  0.00    +0.023 A 
ATOM     28  C   UNL     1     -14.237   2.092  31.340  0.00  0.00    +0.122 A 
ATOM     29  C   UNL     1     -15.279   0.239  30.195  0.00  0.00    +0.005 A 
ATOM     30  C   UNL     1     -14.616   0.751  31.309  0.00  0.00    +0.046 A 
BRANCH  28   5
ATOM      5  O   UNL     1     -13.590   2.592  32.429  0.00  0.00    -0.495 OA
ATOM     31  C   UNL     1     -13.700   3.996  32.660  0.00  0.00    +0.277 C 
ENDBRANCH  28   5
ENDBRANCH   9  25
ENDBRANCH   3  17
ENDBRANCH  13   3
TORSDOF 6
ENDMDL
MODEL 7
REMARK VINA RESULT:      -7.0      5.921     10.859
REMARK  Name = 11913093
REMARK  10 active torsions:
REMARK  status: ('A' for Active; 'I' for Inactive)
REMARK    1  A    between atoms: O_3  and  C_13
REMARK    2  A    between atoms: O_3  and  C_17
REMARK    3  A    between atoms: O_5  and  C_28
REMARK    4  A    between atoms: O_5  and  C_31
REMARK    5  A    between atoms: N_6  and  C_12
REMARK    6  A    between atoms: N_9  and  C_25
REMARK    7  A    between atoms: C_18  and  C_19
REMARK    8  A    between atoms: C_18  and  C_22
REMARK    9  A    between atoms: C_18  and  C_23
REMARK   10  A    between atoms: C_18  and  C_24
REMARK                            x       y       z     vdW  Elec       q    Type
REMARK                         _______ _______ _______ _____ _____    ______ ____
ROOT
ATOM      1  O   UNL     1      -2.339 -10.167  12.724  0.00  0.00    -0.368 OA
ATOM      2  O   UNL     1      -3.162 -12.783  11.349  0.00  0.00    -0.368 OA
ATOM     10  C   UNL     1      -3.879 -11.550  11.568  0.00  0.00    +0.173 C 
ATOM     11  C   UNL     1      -3.462 -11.037  12.932  0.00  0.00    +0.192 C 
ATOM     12  C   UNL     1      -3.386 -10.489  10.612  0.00  0.00    +0.130 C 
ATOM     13  C   UNL     1      -3.065 -12.304  13.650  0.00  0.00    +0.235 C 
ATOM     14  C   UNL     1      -2.143  -9.971  11.315  0.00  0.00    +0.185 C 
ATOM     15  C   UNL     1      -2.435 -13.115  12.540  0.00  0.00    +0.207 C 
ENDROOT
BRANCH  12   6
ATOM      6  N   UNL     1      -4.367  -9.432  10.486  0.00  0.00    -0.306 N 
ATOM      7  N   UNL     1      -5.204 -10.299   8.473  0.00  0.00    -0.219 NA
ATOM      8  N   UNL     1      -6.133  -8.296   9.439  0.00  0.00    -0.223 NA
ATOM     16  C   UNL     1      -5.261  -9.339   9.434  0.00  0.00    +0.216 A 
ATOM     19  C   UNL     1      -6.091 -10.178   7.463  0.00  0.00    +0.052 A 
ATOM     20  C   UNL     1      -7.016  -9.159   7.373  0.00  0.00    +0.043 A 
ATOM     21  C   UNL     1      -6.991  -8.237   8.400  0.00  0.00    +0.116 A 
ATOM     32  H   UNL     1      -4.453  -8.742  11.224  0.00  0.00    +0.149 HD
BRANCH  19  18
ATOM     18  C   UNL     1      -6.041 -11.222   6.399  0.00  0.00    +0.005 C 
ATOM     22  C   UNL     1      -6.481 -10.644   5.018  0.00  0.00    +0.017 C 
ATOM     23  C   UNL     1      -6.955 -12.469   6.638  0.00  0.00    +0.017 C 
ATOM     24  C   UNL     1      -4.598 -11.791   6.232  0.00  0.00    +0.017 C 
ENDBRANCH  19  18
ENDBRANCH  12   6
BRANCH  13   3
ATOM      3  O   UNL     1      -2.174 -12.087  14.721  0.00  0.00    -0.442 OA
BRANCH   3  17
ATOM      4  O   UNL     1      -2.130 -10.377  16.238  0.00  0.00    -0.226 OA
ATOM      9  N   UNL     1      -3.793 -12.023  16.290  0.00  0.00    -0.251 N 
ATOM     17  C   UNL     1      -2.662 -11.394  15.809  0.00  0.00    +0.405 C 
ATOM     33  H   UNL     1      -4.084 -12.863  15.794  0.00  0.00    +0.158 HD
BRANCH   9  25
ATOM     25  C   UNL     1      -4.600 -11.645  17.387  0.00  0.00    +0.040 A 
ATOM     26  C   UNL     1      -5.831 -11.052  17.153  0.00  0.00    +0.069 A 
ATOM     27  C   UNL     1      -4.145 -11.874  18.675  0.00  0.00    +0.023 A 
ATOM     28  C   UNL     1      -6.626 -10.679  18.236  0.00  0.00    +0.122 A 
ATOM     29  C   UNL     1      -4.942 -11.502  19.758  0.00  0.00    +0.005 A 
ATOM     30  C   UNL     1      -6.182 -10.904  19.538  0.00  0.00    +0.046 A 
BRANCH  28   5
ATOM      5  O   UNL     1      -7.838 -10.096  18.021  0.00  0.00    -0.495 OA
ATOM     31  C   UNL     1      -7.922  -9.146  16.961  0.00  0.00    +0.277 C 
ENDBRANCH  28   5
ENDBRANCH   9  25
ENDBRANCH   3  17
ENDBRANCH  13   3
TORSDOF 6
ENDMDL
MODEL 8
REMARK VINA RESULT:      -7.0      2.244      9.532
REMARK  Name = 11913093
REMARK  10 active torsions:
REMARK  status: ('A' for Active; 'I' for Inactive)
REMARK    1  A    between atoms: O_3  and  C_13
REMARK    2  A    between atoms: O_3  and  C_17
REMARK    3  A    between atoms: O_5  and  C_28
REMARK    4  A    between atoms: O_5  and  C_31
REMARK    5  A    between atoms: N_6  and  C_12
REMARK    6  A    between atoms: N_9  and  C_25
REMARK    7  A    between atoms: C_18  and  C_19
REMARK    8  A    between atoms: C_18  and  C_22
REMARK    9  A    between atoms: C_18  and  C_23
REMARK   10  A    between atoms: C_18  and  C_24
REMARK                            x       y       z     vdW  Elec       q    Type
REMARK                         _______ _______ _______ _____ _____    ______ ____
ROOT
ATOM      1  O   UNL     1     -12.126  -9.083  15.819  0.00  0.00    -0.368 OA
ATOM      2  O   UNL     1     -11.251  -6.146  15.711  0.00  0.00    -0.368 OA
ATOM     10  C   UNL     1     -11.182  -7.201  14.730  0.00  0.00    +0.173 C 
ATOM     11  C   UNL     1     -10.868  -8.479  15.482  0.00  0.00    +0.192 C 
ATOM     12  C   UNL     1     -12.552  -7.450  14.143  0.00  0.00    +0.130 C 
ATOM     13  C   UNL     1     -10.146  -7.969  16.706  0.00  0.00    +0.235 C 
ATOM     14  C   UNL     1     -13.188  -8.360  15.178  0.00  0.00    +0.185 C 
ATOM     15  C   UNL     1     -10.875  -6.676  16.990  0.00  0.00    +0.207 C 
ENDROOT
BRANCH  12   6
ATOM      6  N   UNL     1     -12.436  -8.138  12.874  0.00  0.00    -0.306 N 
ATOM      7  N   UNL     1     -12.391  -6.129  11.663  0.00  0.00    -0.219 NA
ATOM      8  N   UNL     1     -12.249  -8.255  10.538  0.00  0.00    -0.223 NA
ATOM     16  C   UNL     1     -12.357  -7.488  11.655  0.00  0.00    +0.216 A 
ATOM     19  C   UNL     1     -12.311  -5.528  10.457  0.00  0.00    +0.052 A 
ATOM     20  C   UNL     1     -12.199  -6.213   9.266  0.00  0.00    +0.043 A 
ATOM     21  C   UNL     1     -12.173  -7.589   9.368  0.00  0.00    +0.116 A 
ATOM     32  H   UNL     1     -12.356  -9.149  12.861  0.00  0.00    +0.149 HD
BRANCH  19  18
ATOM     18  C   UNL     1     -12.348  -4.037  10.448  0.00  0.00    +0.005 C 
ATOM     22  C   UNL     1     -13.701  -3.508   9.877  0.00  0.00    +0.017 C 
ATOM     23  C   UNL     1     -11.236  -3.343   9.594  0.00  0.00    +0.017 C 
ATOM     24  C   UNL     1     -12.188  -3.458  11.888  0.00  0.00    +0.017 C 
ENDBRANCH  19  18
ENDBRANCH  12   6
BRANCH  13   3
ATOM      3  O   UNL     1     -10.194  -8.858  17.799  0.00  0.00    -0.442 OA
BRANCH   3  17
ATOM      4  O   UNL     1      -9.583 -11.060  17.717  0.00  0.00    -0.226 OA
ATOM      9  N   UNL     1      -7.998  -9.352  17.949  0.00  0.00    -0.251 N 
ATOM     17  C   UNL     1      -9.268  -9.880  17.814  0.00  0.00    +0.405 C 
ATOM     33  H   UNL     1      -7.939  -8.339  18.014  0.00  0.00    +0.158 HD
BRANCH   9  25
ATOM     25  C   UNL     1      -6.769 -10.047  18.008  0.00  0.00    +0.040 A 
ATOM     26  C   UNL     1      -5.905  -9.992  16.926  0.00  0.00    +0.069 A 
ATOM     27  C   UNL     1      -6.451 -10.768  19.148  0.00  0.00    +0.023 A 
ATOM     28  C   UNL     1      -4.691 -10.678  16.986  0.00  0.00    +0.122 A 
ATOM     29  C   UNL     1      -5.237 -11.452  19.207  0.00  0.00    +0.005 A 
ATOM     30  C   UNL     1      -4.358 -11.407  18.126  0.00  0.00    +0.046 A 
BRANCH  28   5
ATOM      5  O   UNL     1      -3.832 -10.633  15.930  0.00  0.00    -0.495 OA
ATOM     31  C   UNL     1      -2.447 -10.817  16.213  0.00  0.00    +0.277 C 
ENDBRANCH  28   5
ENDBRANCH   9  25
ENDBRANCH   3  17
ENDBRANCH  13   3
TORSDOF 6
ENDMDL
MODEL 9
REMARK VINA RESULT:      -7.0      3.993      8.727
REMARK  Name = 11913093
REMARK  10 active torsions:
REMARK  status: ('A' for Active; 'I' for Inactive)
REMARK    1  A    between atoms: O_3  and  C_13
REMARK    2  A    between atoms: O_3  and  C_17
REMARK    3  A    between atoms: O_5  and  C_28
REMARK    4  A    between atoms: O_5  and  C_31
REMARK    5  A    between atoms: N_6  and  C_12
REMARK    6  A    between atoms: N_9  and  C_25
REMARK    7  A    between atoms: C_18  and  C_19
REMARK    8  A    between atoms: C_18  and  C_22
REMARK    9  A    between atoms: C_18  and  C_23
REMARK   10  A    between atoms: C_18  and  C_24
REMARK                            x       y       z     vdW  Elec       q    Type
REMARK                         _______ _______ _______ _____ _____    ______ ____
ROOT
ATOM      1  O   UNL     1      -6.716 -10.688  15.679  0.00  0.00    -0.368 OA
ATOM      2  O   UNL     1      -7.179 -10.873  18.706  0.00  0.00    -0.368 OA
ATOM     10  C   UNL     1      -7.197  -9.748  17.802  0.00  0.00    +0.173 C 
ATOM     11  C   UNL     1      -6.107  -9.991  16.778  0.00  0.00    +0.192 C 
ATOM     12  C   UNL     1      -8.471  -9.759  16.989  0.00  0.00    +0.130 C 
ATOM     13  C   UNL     1      -5.140 -10.872  17.532  0.00  0.00    +0.235 C 
ATOM     14  C   UNL     1      -8.137 -10.737  15.876  0.00  0.00    +0.185 C 
ATOM     15  C   UNL     1      -6.069 -11.718  18.372  0.00  0.00    +0.207 C 
ENDROOT
BRANCH  12   6
ATOM      6  N   UNL     1      -8.728  -8.444  16.442  0.00  0.00    -0.306 N 
ATOM      7  N   UNL     1     -11.052  -8.688  16.658  0.00  0.00    -0.219 NA
ATOM      8  N   UNL     1     -10.097  -6.668  15.754  0.00  0.00    -0.223 NA
ATOM     16  C   UNL     1      -9.997  -7.918  16.279  0.00  0.00    +0.216 A 
ATOM     19  C   UNL     1     -12.274  -8.142  16.486  0.00  0.00    +0.052 A 
ATOM     20  C   UNL     1     -12.485  -6.884  15.962  0.00  0.00    +0.043 A 
ATOM     21  C   UNL     1     -11.349  -6.185  15.610  0.00  0.00    +0.116 A 
ATOM     32  H   UNL     1      -7.947  -7.842  16.206  0.00  0.00    +0.149 HD
BRANCH  19  18
ATOM     18  C   UNL     1     -13.443  -8.974  16.896  0.00  0.00    +0.005 C 
ATOM     22  C   UNL     1     -14.776  -8.172  16.781  0.00  0.00    +0.017 C 
ATOM     23  C   UNL     1     -13.404  -9.509  18.365  0.00  0.00    +0.017 C 
ATOM     24  C   UNL     1     -13.578 -10.241  15.996  0.00  0.00    +0.017 C 
ENDBRANCH  19  18
ENDBRANCH  12   6
BRANCH  13   3
ATOM      3  O   UNL     1      -4.320 -11.654  16.693  0.00  0.00    -0.442 OA
BRANCH   3  17
ATOM      4  O   UNL     1      -2.576 -10.309  16.079  0.00  0.00    -0.226 OA
ATOM      9  N   UNL     1      -4.058 -11.198  14.500  0.00  0.00    -0.251 N 
ATOM     17  C   UNL     1      -3.552 -10.982  15.767  0.00  0.00    +0.405 C 
ATOM     33  H   UNL     1      -4.882 -11.792  14.442  0.00  0.00    +0.158 HD
BRANCH   9  25
ATOM     25  C   UNL     1      -3.574 -10.695  13.271  0.00  0.00    +0.040 A 
ATOM     26  C   UNL     1      -4.470 -10.181  12.347  0.00  0.00    +0.069 A 
ATOM     27  C   UNL     1      -2.213 -10.726  13.014  0.00  0.00    +0.023 A 
ATOM     28  C   UNL     1      -3.991  -9.685  11.135  0.00  0.00    +0.122 A 
ATOM     29  C   UNL     1      -1.735 -10.229  11.802  0.00  0.00    +0.005 A 
ATOM     30  C   UNL     1      -2.624  -9.709  10.862  0.00  0.00    +0.046 A 
BRANCH  28   5
ATOM      5  O   UNL     1      -4.860  -9.176  10.217  0.00  0.00    -0.495 OA
ATOM     31  C   UNL     1      -4.525  -9.349   8.842  0.00  0.00    +0.277 C 
ENDBRANCH  28   5
ENDBRANCH   9  25
ENDBRANCH   3  17
ENDBRANCH  13   3
TORSDOF 6
ENDMDL
MODEL 10
REMARK VINA RESULT:      -7.0     15.254     16.864
REMARK  Name = 11913093
REMARK  10 active torsions:
REMARK  status: ('A' for Active; 'I' for Inactive)
REMARK    1  A    between atoms: O_3  and  C_13
REMARK    2  A    between atoms: O_3  and  C_17
REMARK    3  A    between atoms: O_5  and  C_28
REMARK    4  A    between atoms: O_5  and  C_31
REMARK    5  A    between atoms: N_6  and  C_12
REMARK    6  A    between atoms: N_9  and  C_25
REMARK    7  A    between atoms: C_18  and  C_19
REMARK    8  A    between atoms: C_18  and  C_22
REMARK    9  A    between atoms: C_18  and  C_23
REMARK   10  A    between atoms: C_18  and  C_24
REMARK                            x       y       z     vdW  Elec       q    Type
REMARK                         _______ _______ _______ _____ _____    ______ ____
ROOT
ATOM      1  O   UNL     1     -13.643   4.804  22.496  0.00  0.00    -0.368 OA
ATOM      2  O   UNL     1     -15.634   6.984  23.329  0.00  0.00    -0.368 OA
ATOM     10  C   UNL     1     -15.834   5.653  22.808  0.00  0.00    +0.173 C 
ATOM     11  C   UNL     1     -14.737   5.411  21.791  0.00  0.00    +0.192 C 
ATOM     12  C   UNL     1     -15.566   4.630  23.886  0.00  0.00    +0.130 C 
ATOM     13  C   UNL     1     -14.401   6.810  21.333  0.00  0.00    +0.235 C 
ATOM     14  C   UNL     1     -14.054   4.496  23.838  0.00  0.00    +0.185 C 
ATOM     15  C   UNL     1     -14.565   7.609  22.606  0.00  0.00    +0.207 C 
ENDROOT
BRANCH  12   6
ATOM      6  N   UNL     1     -16.192   3.369  23.549  0.00  0.00    -0.306 N 
ATOM      7  N   UNL     1     -16.465   2.776  25.803  0.00  0.00    -0.219 NA
ATOM      8  N   UNL     1     -17.207   1.311  24.039  0.00  0.00    -0.223 NA
ATOM     16  C   UNL     1     -16.634   2.458  24.492  0.00  0.00    +0.216 A 
ATOM     19  C   UNL     1     -16.909   1.865  26.695  0.00  0.00    +0.052 A 
ATOM     20  C   UNL     1     -17.504   0.672  26.340  0.00  0.00    +0.043 A 
ATOM     21  C   UNL     1     -17.628   0.446  24.984  0.00  0.00    +0.116 A 
ATOM     32  H   UNL     1     -16.369   3.146  22.576  0.00  0.00    +0.149 HD
BRANCH  19  18
ATOM     18  C   UNL     1     -16.731   2.198  28.138  0.00  0.00    +0.005 C 
ATOM     22  C   UNL     1     -16.195   0.971  28.939  0.00  0.00    +0.017 C 
ATOM     23  C   UNL     1     -18.027   2.651  28.887  0.00  0.00    +0.017 C 
ATOM     24  C   UNL     1     -15.712   3.364  28.327  0.00  0.00    +0.017 C 
ENDBRANCH  19  18
ENDBRANCH  12   6
BRANCH  13   3
ATOM      3  O   UNL     1     -13.104   6.929  20.794  0.00  0.00    -0.442 OA
BRANCH   3  17
ATOM      4  O   UNL     1     -13.890   7.858  18.859  0.00  0.00    -0.226 OA
ATOM      9  N   UNL     1     -11.683   8.181  19.569  0.00  0.00    -0.251 N 
ATOM     17  C   UNL     1     -12.970   7.685  19.649  0.00  0.00    +0.405 C 
ATOM     33  H   UNL     1     -11.056   7.926  20.330  0.00  0.00    +0.158 HD
BRANCH   9  25
ATOM     25  C   UNL     1     -11.126   8.999  18.561  0.00  0.00    +0.040 A 
ATOM     26  C   UNL     1     -11.070   8.529  17.258  0.00  0.00    +0.069 A 
ATOM     27  C   UNL     1     -10.648  10.256  18.892  0.00  0.00    +0.023 A 
ATOM     28  C   UNL     1     -10.521   9.337  16.262  0.00  0.00    +0.122 A 
ATOM     29  C   UNL     1     -10.099  11.064  17.897  0.00  0.00    +0.005 A 
ATOM     30  C   UNL     1     -10.035  10.604  16.582  0.00  0.00    +0.046 A 
BRANCH  28   5
ATOM      5  O   UNL     1     -10.460   8.888  14.978  0.00  0.00    -0.495 OA
ATOM     31  C   UNL     1     -11.543   8.081  14.521  0.00  0.00    +0.277 C 
ENDBRANCH  28   5
ENDBRANCH   9  25
ENDBRANCH   3  17
ENDBRANCH  13   3
TORSDOF 6
ENDMDL
