MODEL 1
REMARK VINA RESULT:      -6.1      0.000      0.000
REMARK  Name = 75368563
REMARK  3 active torsions:
REMARK  status: ('A' for Active; 'I' for Inactive)
REMARK    1  A    between atoms: N_3  and  C_12
REMARK    2  A    between atoms: C_12  and  C_13
REMARK    3  A    between atoms: C_14  and  C_16
REMARK                            x       y       z     vdW  Elec       q    Type
REMARK                         _______ _______ _______ _____ _____    ______ ____
ROOT
ATOM      1  O   UNL     1      10.929   5.605  21.210  0.00  0.00    -0.253 OA
ATOM      2  N   UNL     1      11.843   7.653  21.925  0.00  0.00    -0.279 N 
ATOM      3  N   UNL     1      12.040  10.412  22.427  0.00  0.00    -0.293 NA
ATOM      4  N   UNL     1      13.138   6.246  20.747  0.00  0.00    -0.297 N 
ATOM      6  C   UNL     1      13.150   8.275  21.926  0.00  0.00    +0.109 C 
ATOM      7  C   UNL     1      13.036   9.753  21.558  0.00  0.00    +0.109 C 
ATOM      8  C   UNL     1      10.751   8.295  22.626  0.00  0.00    +0.125 C 
ATOM      9  C   UNL     1      13.951   7.427  20.940  0.00  0.00    +0.129 C 
ATOM     10  C   UNL     1      10.710   9.785  22.277  0.00  0.00    +0.104 C 
ATOM     11  C   UNL     1      11.850   6.405  21.292  0.00  0.00    +0.303 C 
ATOM     19  H   UNL     1      13.428   5.434  20.212  0.00  0.00    +0.150 HD
ENDROOT
BRANCH   3  12
ATOM     12  C   UNL     1      11.967  11.841  22.124  0.00  0.00    +0.140 C 
BRANCH  12  13
ATOM      5  N   UNL     1      11.876  12.247  24.509  0.00  0.00    -0.258 NA
ATOM     13  C   UNL     1      11.441  12.636  23.289  0.00  0.00    +0.058 A 
ATOM     14  C   UNL     1      10.567  13.689  23.077  0.00  0.00    -0.028 A 
ATOM     15  C   UNL     1      10.110  14.390  24.188  0.00  0.00    +0.006 A 
ATOM     16  C   UNL     1      10.115  14.082  21.713  0.00  0.00    +0.045 C 
ATOM     17  C   UNL     1      11.411  12.951  25.564  0.00  0.00    +0.111 A 
ATOM     18  C   UNL     1      10.535  14.020  25.459  0.00  0.00    +0.020 A 
ENDBRANCH  12  13
ENDBRANCH   3  12
TORSDOF 2
ENDMDL
MODEL 2
REMARK VINA RESULT:      -5.3     26.191     28.337
REMARK  Name = 75368563
REMARK  3 active torsions:
REMARK  status: ('A' for Active; 'I' for Inactive)
REMARK    1  A    between atoms: N_3  and  C_12
REMARK    2  A    between atoms: C_12  and  C_13
REMARK    3  A    between atoms: C_14  and  C_16
REMARK                            x       y       z     vdW  Elec       q    Type
REMARK                         _______ _______ _______ _____ _____    ______ ____
ROOT
ATOM      1  O   UNL     1      -8.998 -11.190  20.054  0.00  0.00    -0.253 OA
ATOM      2  N   UNL     1      -7.519 -11.064  18.227  0.00  0.00    -0.279 N 
ATOM      3  N   UNL     1      -5.099 -11.089  16.796  0.00  0.00    -0.293 NA
ATOM      4  N   UNL     1      -9.135  -9.516  18.416  0.00  0.00    -0.297 N 
ATOM      6  C   UNL     1      -7.411 -10.275  17.018  0.00  0.00    +0.109 C 
ATOM      7  C   UNL     1      -5.955  -9.886  16.767  0.00  0.00    +0.109 C 
ATOM      8  C   UNL     1      -6.624 -12.184  18.427  0.00  0.00    +0.125 C 
ATOM      9  C   UNL     1      -8.356  -9.104  17.269  0.00  0.00    +0.129 C 
ATOM     10  C   UNL     1      -5.186 -11.768  18.106  0.00  0.00    +0.104 C 
ATOM     11  C   UNL     1      -8.597 -10.664  19.025  0.00  0.00    +0.303 C 
ATOM     19  H   UNL     1      -9.923  -8.996  18.789  0.00  0.00    +0.150 HD
ENDROOT
BRANCH   3  12
ATOM     12  C   UNL     1      -3.712 -10.735  16.497  0.00  0.00    +0.140 C 
BRANCH  12  13
ATOM      5  N   UNL     1      -4.458 -11.170  14.235  0.00  0.00    -0.258 NA
ATOM     13  C   UNL     1      -3.425 -10.788  15.021  0.00  0.00    +0.058 A 
ATOM     14  C   UNL     1      -2.167 -10.462  14.543  0.00  0.00    -0.028 A 
ATOM     15  C   UNL     1      -1.953 -10.530  13.170  0.00  0.00    +0.006 A 
ATOM     16  C   UNL     1      -1.059 -10.047  15.447  0.00  0.00    +0.045 C 
ATOM     17  C   UNL     1      -4.213 -11.224  12.907  0.00  0.00    +0.111 A 
ATOM     18  C   UNL     1      -2.992 -10.916  12.330  0.00  0.00    +0.020 A 
ENDBRANCH  12  13
ENDBRANCH   3  12
TORSDOF 2
ENDMDL
MODEL 3
REMARK VINA RESULT:      -5.3      3.273      5.183
REMARK  Name = 75368563
REMARK  3 active torsions:
REMARK  status: ('A' for Active; 'I' for Inactive)
REMARK    1  A    between atoms: N_3  and  C_12
REMARK    2  A    between atoms: C_12  and  C_13
REMARK    3  A    between atoms: C_14  and  C_16
REMARK                            x       y       z     vdW  Elec       q    Type
REMARK                         _______ _______ _______ _____ _____    ______ ____
ROOT
ATOM      1  O   UNL     1      19.109   6.567  21.794  0.00  0.00    -0.253 OA
ATOM      2  N   UNL     1      17.105   7.129  20.696  0.00  0.00    -0.279 N 
ATOM      3  N   UNL     1      14.370   7.666  20.326  0.00  0.00    -0.293 NA
ATOM      4  N   UNL     1      18.489   5.650  19.725  0.00  0.00    -0.297 N 
ATOM      6  C   UNL     1      16.506   6.863  19.405  0.00  0.00    +0.109 C 
ATOM      7  C   UNL     1      15.013   6.578  19.562  0.00  0.00    +0.109 C 
ATOM      8  C   UNL     1      16.471   8.075  21.591  0.00  0.00    +0.125 C 
ATOM      9  C   UNL     1      17.329   5.698  18.862  0.00  0.00    +0.129 C 
ATOM     10  C   UNL     1      14.969   7.792  21.671  0.00  0.00    +0.104 C 
ATOM     11  C   UNL     1      18.328   6.470  20.858  0.00  0.00    +0.303 C 
ATOM     19  H   UNL     1      19.285   5.038  19.580  0.00  0.00    +0.150 HD
ENDROOT
BRANCH   3  12
ATOM     12  C   UNL     1      12.929   7.433  20.430  0.00  0.00    +0.140 C 
BRANCH  12  13
ATOM      5  N   UNL     1      11.591   8.193  22.299  0.00  0.00    -0.258 NA
ATOM     13  C   UNL     1      12.232   8.548  21.162  0.00  0.00    +0.058 A 
ATOM     14  C   UNL     1      12.270   9.840  20.665  0.00  0.00    -0.028 A 
ATOM     15  C   UNL     1      11.608  10.833  21.379  0.00  0.00    +0.006 A 
ATOM     16  C   UNL     1      12.990  10.184  19.407  0.00  0.00    +0.045 C 
ATOM     17  C   UNL     1      10.959   9.183  22.966  0.00  0.00    +0.111 A 
ATOM     18  C   UNL     1      10.938  10.506  22.553  0.00  0.00    +0.020 A 
ENDBRANCH  12  13
ENDBRANCH   3  12
TORSDOF 2
ENDMDL
MODEL 4
REMARK VINA RESULT:      -5.2      3.868      6.048
REMARK  Name = 75368563
REMARK  3 active torsions:
REMARK  status: ('A' for Active; 'I' for Inactive)
REMARK    1  A    between atoms: N_3  and  C_12
REMARK    2  A    between atoms: C_12  and  C_13
REMARK    3  A    between atoms: C_14  and  C_16
REMARK                            x       y       z     vdW  Elec       q    Type
REMARK                         _______ _______ _______ _____ _____    ______ ____
ROOT
ATOM      1  O   UNL     1      10.919   5.611  21.747  0.00  0.00    -0.253 OA
ATOM      2  N   UNL     1      11.698   7.382  20.408  0.00  0.00    -0.279 N 
ATOM      3  N   UNL     1      13.473   8.953  18.897  0.00  0.00    -0.293 NA
ATOM      4  N   UNL     1      10.418   7.859  22.192  0.00  0.00    -0.297 N 
ATOM      6  C   UNL     1      11.476   8.811  20.326  0.00  0.00    +0.109 C 
ATOM      7  C   UNL     1      12.794   9.539  20.070  0.00  0.00    +0.109 C 
ATOM      8  C   UNL     1      12.481   6.726  19.383  0.00  0.00    +0.125 C 
ATOM      9  C   UNL     1      10.803   9.146  21.655  0.00  0.00    +0.129 C 
ATOM     10  C   UNL     1      13.761   7.520  19.115  0.00  0.00    +0.104 C 
ATOM     11  C   UNL     1      11.003   6.799  21.474  0.00  0.00    +0.303 C 
ATOM     19  H   UNL     1       9.864   7.733  23.033  0.00  0.00    +0.150 HD
ENDROOT
BRANCH   3  12
ATOM     12  C   UNL     1      14.708   9.682  18.606  0.00  0.00    +0.140 C 
BRANCH  12  13
ATOM      5  N   UNL     1      14.522  12.019  17.999  0.00  0.00    -0.258 NA
ATOM     13  C   UNL     1      14.501  10.741  17.557  0.00  0.00    +0.058 A 
ATOM     14  C   UNL     1      14.303  10.382  16.234  0.00  0.00    -0.028 A 
ATOM     15  C   UNL     1      14.115  11.398  15.304  0.00  0.00    +0.006 A 
ATOM     16  C   UNL     1      14.287   8.959  15.793  0.00  0.00    +0.045 C 
ATOM     17  C   UNL     1      14.336  12.979  17.068  0.00  0.00    +0.111 A 
ATOM     18  C   UNL     1      14.131  12.725  15.721  0.00  0.00    +0.020 A 
ENDBRANCH  12  13
ENDBRANCH   3  12
TORSDOF 2
ENDMDL
MODEL 5
REMARK VINA RESULT:      -5.2     27.368     28.165
REMARK  Name = 75368563
REMARK  3 active torsions:
REMARK  status: ('A' for Active; 'I' for Inactive)
REMARK    1  A    between atoms: N_3  and  C_12
REMARK    2  A    between atoms: C_12  and  C_13
REMARK    3  A    between atoms: C_14  and  C_16
REMARK                            x       y       z     vdW  Elec       q    Type
REMARK                         _______ _______ _______ _____ _____    ______ ____
ROOT
ATOM      1  O   UNL     1      -7.049 -10.368  19.081  0.00  0.00    -0.253 OA
ATOM      2  N   UNL     1      -5.749 -10.354  17.119  0.00  0.00    -0.279 N 
ATOM      3  N   UNL     1      -5.076 -10.671  14.408  0.00  0.00    -0.293 NA
ATOM      4  N   UNL     1      -4.861 -11.210  18.996  0.00  0.00    -0.297 N 
ATOM      6  C   UNL     1      -4.379 -10.659  16.767  0.00  0.00    +0.109 C 
ATOM      7  C   UNL     1      -4.326 -11.415  15.440  0.00  0.00    +0.109 C 
ATOM      8  C   UNL     1      -6.620  -9.757  16.129  0.00  0.00    +0.125 C 
ATOM      9  C   UNL     1      -3.865 -11.440  17.973  0.00  0.00    +0.129 C 
ATOM     10  C   UNL     1      -6.492 -10.506  14.800  0.00  0.00    +0.104 C 
ATOM     11  C   UNL     1      -6.018 -10.607  18.469  0.00  0.00    +0.303 C 
ATOM     19  H   UNL     1      -4.776 -11.521  19.958  0.00  0.00    +0.150 HD
ENDROOT
BRANCH   3  12
ATOM     12  C   UNL     1      -4.982 -11.356  13.119  0.00  0.00    +0.140 C 
BRANCH  12  13
ATOM      5  N   UNL     1      -5.318  -9.628  11.456  0.00  0.00    -0.258 NA
ATOM     13  C   UNL     1      -4.427 -10.459  12.045  0.00  0.00    +0.058 A 
ATOM     14  C   UNL     1      -3.084 -10.515  11.714  0.00  0.00    -0.028 A 
ATOM     15  C   UNL     1      -2.623  -9.665  10.714  0.00  0.00    +0.006 A 
ATOM     16  C   UNL     1      -2.140 -11.447  12.391  0.00  0.00    +0.045 C 
ATOM     17  C   UNL     1      -4.834  -8.817  10.490  0.00  0.00    +0.111 A 
ATOM     18  C   UNL     1      -3.509  -8.797  10.086  0.00  0.00    +0.020 A 
ENDBRANCH  12  13
ENDBRANCH   3  12
TORSDOF 2
ENDMDL
MODEL 6
REMARK VINA RESULT:      -5.2     27.508     29.280
REMARK  Name = 75368563
REMARK  3 active torsions:
REMARK  status: ('A' for Active; 'I' for Inactive)
REMARK    1  A    between atoms: N_3  and  C_12
REMARK    2  A    between atoms: C_12  and  C_13
REMARK    3  A    between atoms: C_14  and  C_16
REMARK                            x       y       z     vdW  Elec       q    Type
REMARK                         _______ _______ _______ _____ _____    ______ ____
ROOT
ATOM      1  O   UNL     1     -12.744  -7.763  13.522  0.00  0.00    -0.253 OA
ATOM      2  N   UNL     1     -10.842  -7.872  14.904  0.00  0.00    -0.279 N 
ATOM      3  N   UNL     1      -8.867  -8.968  16.579  0.00  0.00    -0.293 NA
ATOM      4  N   UNL     1     -12.299  -6.189  15.204  0.00  0.00    -0.297 N 
ATOM      6  C   UNL     1     -10.223  -7.028  15.905  0.00  0.00    +0.109 C 
ATOM      7  C   UNL     1      -9.724  -7.872  17.076  0.00  0.00    +0.109 C 
ATOM      8  C   UNL     1     -10.150  -9.060  14.451  0.00  0.00    +0.125 C 
ATOM      9  C   UNL     1     -11.319  -6.025  16.255  0.00  0.00    +0.129 C 
ATOM     10  C   UNL     1      -9.615  -9.843  15.652  0.00  0.00    +0.104 C 
ATOM     11  C   UNL     1     -12.042  -7.333  14.426  0.00  0.00    +0.303 C 
ATOM     19  H   UNL     1     -13.119  -5.603  15.091  0.00  0.00    +0.150 HD
ENDROOT
BRANCH   3  12
ATOM     12  C   UNL     1      -8.336  -9.746  17.698  0.00  0.00    +0.140 C 
BRANCH  12  13
ATOM      5  N   UNL     1      -6.299  -9.560  16.402  0.00  0.00    -0.258 NA
ATOM     13  C   UNL     1      -6.879 -10.076  17.510  0.00  0.00    +0.058 A 
ATOM     14  C   UNL     1      -6.217 -10.864  18.437  0.00  0.00    -0.028 A 
ATOM     15  C   UNL     1      -4.873 -11.140  18.215  0.00  0.00    +0.006 A 
ATOM     16  C   UNL     1      -6.899 -11.410  19.643  0.00  0.00    +0.045 C 
ATOM     17  C   UNL     1      -4.992  -9.850  16.220  0.00  0.00    +0.111 A 
ATOM     18  C   UNL     1      -4.241 -10.627  17.088  0.00  0.00    +0.020 A 
ENDBRANCH  12  13
ENDBRANCH   3  12
TORSDOF 2
ENDMDL
MODEL 7
REMARK VINA RESULT:      -5.0     27.390     28.427
REMARK  Name = 75368563
REMARK  3 active torsions:
REMARK  status: ('A' for Active; 'I' for Inactive)
REMARK    1  A    between atoms: N_3  and  C_12
REMARK    2  A    between atoms: C_12  and  C_13
REMARK    3  A    between atoms: C_14  and  C_16
REMARK                            x       y       z     vdW  Elec       q    Type
REMARK                         _______ _______ _______ _____ _____    ______ ____
ROOT
ATOM      1  O   UNL     1      -3.405 -12.969  10.739  0.00  0.00    -0.253 OA
ATOM      2  N   UNL     1      -3.778 -12.727  13.050  0.00  0.00    -0.279 N 
ATOM      3  N   UNL     1      -4.320 -11.479  15.510  0.00  0.00    -0.293 NA
ATOM      4  N   UNL     1      -2.064 -14.005  12.361  0.00  0.00    -0.297 N 
ATOM      6  C   UNL     1      -3.246 -13.309  14.264  0.00  0.00    +0.109 C 
ATOM      7  C   UNL     1      -3.062 -12.232  15.332  0.00  0.00    +0.109 C 
ATOM      8  C   UNL     1      -4.926 -11.849  13.127  0.00  0.00    +0.125 C 
ATOM      9  C   UNL     1      -1.958 -13.985  13.803  0.00  0.00    +0.129 C 
ATOM     10  C   UNL     1      -4.727 -10.826  14.248  0.00  0.00    +0.104 C 
ATOM     11  C   UNL     1      -3.127 -13.202  11.906  0.00  0.00    +0.303 C 
ATOM     19  H   UNL     1      -1.405 -14.471  11.745  0.00  0.00    +0.150 HD
ENDROOT
BRANCH   3  12
ATOM     12  C   UNL     1      -4.172 -10.485  16.573  0.00  0.00    +0.140 C 
BRANCH  12  13
ATOM      5  N   UNL     1      -6.431 -10.026  17.314  0.00  0.00    -0.258 NA
ATOM     13  C   UNL     1      -5.250 -10.614  17.615  0.00  0.00    +0.058 A 
ATOM     14  C   UNL     1      -5.004 -11.298  18.794  0.00  0.00    -0.028 A 
ATOM     15  C   UNL     1      -6.033 -11.386  19.724  0.00  0.00    +0.006 A 
ATOM     16  C   UNL     1      -3.686 -11.930  19.082  0.00  0.00    +0.045 C 
ATOM     17  C   UNL     1      -7.408 -10.132  18.242  0.00  0.00    +0.111 A 
ATOM     18  C   UNL     1      -7.262 -10.795  19.450  0.00  0.00    +0.020 A 
ENDBRANCH  12  13
ENDBRANCH   3  12
TORSDOF 2
ENDMDL
MODEL 8
REMARK VINA RESULT:      -5.0      5.242      7.055
REMARK  Name = 75368563
REMARK  3 active torsions:
REMARK  status: ('A' for Active; 'I' for Inactive)
REMARK    1  A    between atoms: N_3  and  C_12
REMARK    2  A    between atoms: C_12  and  C_13
REMARK    3  A    between atoms: C_14  and  C_16
REMARK                            x       y       z     vdW  Elec       q    Type
REMARK                         _______ _______ _______ _____ _____    ______ ____
ROOT
ATOM      1  O   UNL     1      19.539   9.987  22.916  0.00  0.00    -0.253 OA
ATOM      2  N   UNL     1      18.177   8.575  21.617  0.00  0.00    -0.279 N 
ATOM      3  N   UNL     1      15.845   7.378  20.598  0.00  0.00    -0.293 NA
ATOM      4  N   UNL     1      20.002   7.709  22.598  0.00  0.00    -0.297 N 
ATOM      6  C   UNL     1      18.243   7.214  21.127  0.00  0.00    +0.109 C 
ATOM      7  C   UNL     1      16.876   6.541  21.244  0.00  0.00    +0.109 C 
ATOM      8  C   UNL     1      17.112   9.443  21.160  0.00  0.00    +0.125 C 
ATOM      9  C   UNL     1      19.346   6.582  21.972  0.00  0.00    +0.129 C 
ATOM     10  C   UNL     1      15.771   8.709  21.236  0.00  0.00    +0.104 C 
ATOM     11  C   UNL     1      19.268   8.898  22.431  0.00  0.00    +0.303 C 
ATOM     19  H   UNL     1      20.844   7.640  23.161  0.00  0.00    +0.150 HD
ENDROOT
BRANCH   3  12
ATOM     12  C   UNL     1      14.543   6.714  20.652  0.00  0.00    +0.140 C 
BRANCH  12  13
ATOM      5  N   UNL     1      13.858   7.533  18.479  0.00  0.00    -0.258 NA
ATOM     13  C   UNL     1      13.525   7.403  19.784  0.00  0.00    +0.058 A 
ATOM     14  C   UNL     1      12.338   7.861  20.331  0.00  0.00    -0.028 A 
ATOM     15  C   UNL     1      11.433   8.493  19.486  0.00  0.00    +0.006 A 
ATOM     16  C   UNL     1      12.016   7.695  21.775  0.00  0.00    +0.045 C 
ATOM     17  C   UNL     1      12.953   8.152  17.689  0.00  0.00    +0.111 A 
ATOM     18  C   UNL     1      11.738   8.644  18.137  0.00  0.00    +0.020 A 
ENDBRANCH  12  13
ENDBRANCH   3  12
TORSDOF 2
ENDMDL
MODEL 9
REMARK VINA RESULT:      -5.0     26.293     28.425
REMARK  Name = 75368563
REMARK  3 active torsions:
REMARK  status: ('A' for Active; 'I' for Inactive)
REMARK    1  A    between atoms: N_3  and  C_12
REMARK    2  A    between atoms: C_12  and  C_13
REMARK    3  A    between atoms: C_14  and  C_16
REMARK                            x       y       z     vdW  Elec       q    Type
REMARK                         _______ _______ _______ _____ _____    ______ ____
ROOT
ATOM      1  O   UNL     1      -5.262 -10.296   6.976  0.00  0.00    -0.253 OA
ATOM      2  N   UNL     1      -4.898  -9.820   9.251  0.00  0.00    -0.279 N 
ATOM      3  N   UNL     1      -4.588 -10.253  12.012  0.00  0.00    -0.293 NA
ATOM      4  N   UNL     1      -6.305  -8.513   8.086  0.00  0.00    -0.297 N 
ATOM      6  C   UNL     1      -5.262  -8.764  10.173  0.00  0.00    +0.109 C 
ATOM      7  C   UNL     1      -5.653  -9.352  11.527  0.00  0.00    +0.109 C 
ATOM      8  C   UNL     1      -3.970 -10.845   9.678  0.00  0.00    +0.125 C 
ATOM      9  C   UNL     1      -6.380  -8.023   9.445  0.00  0.00    +0.129 C 
ATOM     10  C   UNL     1      -4.363 -11.363  11.063  0.00  0.00    +0.104 C 
ATOM     11  C   UNL     1      -5.455  -9.630   7.982  0.00  0.00    +0.303 C 
ATOM     19  H   UNL     1      -6.859  -8.152   7.317  0.00  0.00    +0.150 HD
ENDROOT
BRANCH   3  12
ATOM     12  C   UNL     1      -4.926 -10.774  13.336  0.00  0.00    +0.140 C 
BRANCH  12  13
ATOM      5  N   UNL     1      -2.565 -10.413  13.734  0.00  0.00    -0.258 NA
ATOM     13  C   UNL     1      -3.771 -10.665  14.294  0.00  0.00    +0.058 A 
ATOM     14  C   UNL     1      -3.976 -10.821  15.655  0.00  0.00    -0.028 A 
ATOM     15  C   UNL     1      -2.874 -10.712  16.497  0.00  0.00    +0.006 A 
ATOM     16  C   UNL     1      -5.323 -11.098  16.226  0.00  0.00    +0.045 C 
ATOM     17  C   UNL     1      -1.519 -10.313  14.583  0.00  0.00    +0.111 A 
ATOM     18  C   UNL     1      -1.618 -10.453  15.958  0.00  0.00    +0.020 A 
ENDBRANCH  12  13
ENDBRANCH   3  12
TORSDOF 2
ENDMDL
MODEL 10
REMARK VINA RESULT:      -4.9     17.835     20.468
REMARK  Name = 75368563
REMARK  3 active torsions:
REMARK  status: ('A' for Active; 'I' for Inactive)
REMARK    1  A    between atoms: N_3  and  C_12
REMARK    2  A    between atoms: C_12  and  C_13
REMARK    3  A    between atoms: C_14  and  C_16
REMARK                            x       y       z     vdW  Elec       q    Type
REMARK                         _______ _______ _______ _____ _____    ______ ____
ROOT
ATOM      1  O   UNL     1       9.967   8.621   7.634  0.00  0.00    -0.253 OA
ATOM      2  N   UNL     1      10.470   6.907   6.101  0.00  0.00    -0.279 N 
ATOM      3  N   UNL     1      10.595   5.512   3.663  0.00  0.00    -0.293 NA
ATOM      4  N   UNL     1       9.635   6.348   8.110  0.00  0.00    -0.297 N 
ATOM      6  C   UNL     1      10.510   5.460   6.122  0.00  0.00    +0.109 C 
ATOM      7  C   UNL     1       9.928   4.894   4.828  0.00  0.00    +0.109 C 
ATOM      8  C   UNL     1      10.965   7.614   4.939  0.00  0.00    +0.125 C 
ATOM      9  C   UNL     1       9.737   5.099   7.387  0.00  0.00    +0.129 C 
ATOM     10  C   UNL     1      10.406   6.978   3.664  0.00  0.00    +0.104 C 
ATOM     11  C   UNL     1      10.024   7.442   7.315  0.00  0.00    +0.303 C 
ATOM     19  H   UNL     1       9.250   6.438   9.045  0.00  0.00    +0.150 HD
ENDROOT
BRANCH   3  12
ATOM     12  C   UNL     1      10.087   4.933   2.420  0.00  0.00    +0.140 C 
BRANCH  12  13
ATOM      5  N   UNL     1      12.141   3.666   2.221  0.00  0.00    -0.258 NA
ATOM     13  C   UNL     1      11.195   4.378   1.566  0.00  0.00    +0.058 A 
ATOM     14  C   UNL     1      11.205   4.608   0.200  0.00  0.00    -0.028 A 
ATOM     15  C   UNL     1      12.252   4.074  -0.543  0.00  0.00    +0.006 A 
ATOM     16  C   UNL     1      10.141   5.399  -0.477  0.00  0.00    +0.045 C 
ATOM     17  C   UNL     1      13.142   3.163   1.466  0.00  0.00    +0.111 A 
ATOM     18  C   UNL     1      13.243   3.336   0.095  0.00  0.00    +0.020 A 
ENDBRANCH  12  13
ENDBRANCH   3  12
TORSDOF 2
ENDMDL
