REMARK  Name = 11865838
REMARK  10 active torsions:
REMARK  status: ('A' for Active; 'I' for Inactive)
REMARK    1  A    between atoms: N_8  and  C_12
REMARK    2  A    between atoms: N_9  and  C_18
REMARK    3  A    between atoms: N_10  and  C_25
REMARK    4  A    between atoms: C_13  and  C_16
REMARK    5  A    between atoms: C_17  and  C_20
REMARK    6  A    between atoms: C_18  and  C_21
REMARK    7  A    between atoms: C_18  and  C_22
REMARK    8  A    between atoms: C_21  and  C_24
REMARK    9  A    between atoms: C_23  and  C_26
REMARK   10  A    between atoms: C_23  and  C_27
REMARK                            x       y       z     vdW  Elec       q    Type
REMARK                         _______ _______ _______ _____ _____    ______ ____
ROOT
ATOM      4  O   UNL     1      -1.860   4.559   1.554  0.00  0.00    -0.271 OA
ATOM      7  N   UNL     1      -1.190   2.352   1.373  0.00  0.00    -0.285 N 
ATOM     12  C   UNL     1       0.062   0.345   1.603  0.00  0.00    +0.105 C 
ATOM     13  C   UNL     1      -0.803   1.151   0.629  0.00  0.00    +0.182 C 
ATOM     14  C   UNL     1      -0.467   0.763   2.976  0.00  0.00    +0.043 C 
ATOM     15  C   UNL     1      -0.844   2.225   2.784  0.00  0.00    +0.111 C 
ATOM     17  C   UNL     1      -1.682   3.547   0.877  0.00  0.00    +0.240 C 
ENDROOT
BRANCH  12   8
ATOM      5  O   UNL     1       1.994  -1.007  -0.024  0.00  0.00    -0.252 OA
ATOM      8  N   UNL     1       1.459   0.682   1.462  0.00  0.00    -0.294 N 
ATOM     10  N   UNL     1       3.621   0.520   0.707  0.00  0.00    -0.267 N 
ATOM     19  C   UNL     1       2.339  -0.034   0.643  0.00  0.00    +0.304 C 
ATOM     38  H   UNL     1       1.807   1.514   1.928  0.00  0.00    +0.151 HD
ATOM     40  H   UNL     1       3.741   1.329   1.311  0.00  0.00    +0.156 HD
BRANCH  10  25
ATOM      1  F   UNL     1       6.060   1.827   1.033  0.00  0.00    -0.203 F 
ATOM      2  F   UNL     1       8.184  -1.166  -1.950  0.00  0.00    -0.205 F 
ATOM     25  C   UNL     1       4.787   0.091   0.030  0.00  0.00    +0.070 A 
ATOM     30  C   UNL     1       5.992   0.768   0.214  0.00  0.00    +0.147 A 
ATOM     31  C   UNL     1       4.729  -1.011  -0.823  0.00  0.00    +0.029 A 
ATOM     35  C   UNL     1       7.140   0.343  -0.455  0.00  0.00    +0.078 A 
ATOM     36  C   UNL     1       5.877  -1.436  -1.492  0.00  0.00    +0.040 A 
ATOM     37  C   UNL     1       7.082  -0.759  -1.308  0.00  0.00    +0.126 A 
ENDBRANCH  10  25
ENDBRANCH  12   8
BRANCH  13  16
ATOM      3  O   UNL     1      -3.055   0.461   1.023  0.00  0.00    -0.274 OA
ATOM      9  N   UNL     1      -1.940  -0.349  -0.854  0.00  0.00    -0.302 N 
ATOM     16  C   UNL     1      -2.061   0.401   0.303  0.00  0.00    +0.236 C 
ATOM     39  H   UNL     1      -1.075  -0.305  -1.385  0.00  0.00    +0.150 HD
BRANCH   9  18
ATOM     18  C   UNL     1      -3.003  -1.179  -1.372  0.00  0.00    +0.163 C 
BRANCH  18  22
ATOM      6  O   UNL     1      -2.598  -0.100  -3.511  0.00  0.00    -0.274 OA
ATOM     11  N   UNL     1      -4.736  -0.775  -3.009  0.00  0.00    -0.328 N 
ATOM     22  C   UNL     1      -3.396  -0.611  -2.728  0.00  0.00    +0.231 C 
ATOM     41  H   UNL     1      -5.127  -0.451  -3.887  0.00  0.00    +0.145 HD
ATOM     42  H   UNL     1      -5.379  -1.220  -2.362  0.00  0.00    +0.145 HD
ENDBRANCH  18  22
BRANCH  18  21
ATOM     21  C   UNL     1      -2.579  -2.645  -1.511  0.00  0.00    +0.067 C 
BRANCH  21  24
ATOM     24  C   UNL     1      -2.615  -3.390  -0.199  0.00  0.00    -0.045 A 
ATOM     28  C   UNL     1      -1.483  -3.421   0.617  0.00  0.00    +0.004 A 
ATOM     29  C   UNL     1      -3.779  -4.048   0.199  0.00  0.00    +0.004 A 
ATOM     32  C   UNL     1      -1.517  -4.110   1.830  0.00  0.00    +0.000 A 
ATOM     33  C   UNL     1      -3.812  -4.736   1.411  0.00  0.00    +0.000 A 
ATOM     34  C   UNL     1      -2.681  -4.767   2.227  0.00  0.00    +0.000 A 
ENDBRANCH  21  24
ENDBRANCH  18  21
ENDBRANCH   9  18
ENDBRANCH  13  16
BRANCH  17  20
ATOM     20  C   UNL     1      -2.011   3.595  -0.561  0.00  0.00    +0.066 C 
ATOM     23  C   UNL     1      -3.230   3.861  -1.060  0.00  0.00    -0.071 C 
ATOM     26  C   UNL     1      -4.378   4.136  -0.122  0.00  0.00    +0.039 C 
ATOM     27  C   UNL     1      -3.604   3.919  -2.515  0.00  0.00    +0.039 C 
ENDBRANCH  17  20
TORSDOF 8
