MODEL 1
REMARK VINA RESULT:      -7.8      0.000      0.000
REMARK  Name = 11879572
REMARK  9 active torsions:
REMARK  status: ('A' for Active; 'I' for Inactive)
REMARK    1  A    between atoms: O_3  and  C_19
REMARK    2  A    between atoms: O_3  and  C_21
REMARK    3  A    between atoms: N_5  and  C_15
REMARK    4  A    between atoms: N_6  and  C_16
REMARK    5  A    between atoms: N_10  and  C_22
REMARK    6  A    between atoms: N_11  and  C_27
REMARK    7  A    between atoms: N_11  and  C_33
REMARK    8  A    between atoms: N_11  and  C_34
REMARK    9  A    between atoms: C_30  and  C_35
REMARK                            x       y       z     vdW  Elec       q    Type
REMARK                         _______ _______ _______ _____ _____    ______ ____
ROOT
ATOM      1  O   UNL     1      -4.943 -10.612  18.059  0.00  0.00    -0.370 OA
ATOM      2  O   UNL     1      -6.541 -11.610  15.540  0.00  0.00    -0.370 OA
ATOM     13  C   UNL     1      -5.407 -10.743  15.723  0.00  0.00    +0.176 C 
ATOM     14  C   UNL     1      -5.648  -9.952  16.995  0.00  0.00    +0.172 C 
ATOM     15  C   UNL     1      -4.168 -11.570  16.013  0.00  0.00    +0.171 C 
ATOM     16  C   UNL     1      -7.141 -10.048  17.217  0.00  0.00    +0.131 C 
ATOM     17  C   UNL     1      -4.205 -11.722  17.530  0.00  0.00    +0.190 C 
ATOM     18  C   UNL     1      -7.472 -11.400  16.611  0.00  0.00    +0.185 C 
ENDROOT
BRANCH  16   6
ATOM      4  O   UNL     1      -9.969  -9.588  17.206  0.00  0.00    -0.252 OA
ATOM      6  N   UNL     1      -7.839  -8.984  16.536  0.00  0.00    -0.292 N 
ATOM     10  N   UNL     1      -9.620  -7.716  15.831  0.00  0.00    -0.269 N 
ATOM     20  C   UNL     1      -9.230  -8.829  16.582  0.00  0.00    +0.304 C 
ATOM     36  H   UNL     1      -7.305  -8.357  15.941  0.00  0.00    +0.151 HD
ATOM     37  H   UNL     1      -8.877  -7.192  15.375  0.00  0.00    +0.156 HD
BRANCH  10  22
ATOM     22  C   UNL     1     -10.930  -7.223  15.627  0.00  0.00    +0.036 A 
ATOM     25  C   UNL     1     -11.128  -6.163  14.756  0.00  0.00    +0.042 A 
ATOM     26  C   UNL     1     -11.988  -7.809  16.304  0.00  0.00    +0.023 A 
ATOM     30  C   UNL     1     -12.420  -5.676  14.558  0.00  0.00    +0.054 A 
ATOM     31  C   UNL     1     -13.279  -7.321  16.104  0.00  0.00    +0.003 A 
ATOM     32  C   UNL     1     -13.495  -6.255  15.231  0.00  0.00    +0.019 A 
BRANCH  30  35
ATOM     12  N   UNL     1     -12.824  -3.697  12.935  0.00  0.00    -0.191 NA
ATOM     35  C   UNL     1     -12.642  -4.585  13.663  0.00  0.00    +0.099 C 
ENDBRANCH  30  35
ENDBRANCH  10  22
ENDBRANCH  16   6
BRANCH  15   5
ATOM      5  N   UNL     1      -2.948 -10.959  15.480  0.00  0.00    -0.187 N 
ATOM      7  N   UNL     1      -2.058 -10.382  16.292  0.00  0.00    -0.041 NA
ATOM      8  N   UNL     1      -1.383 -10.244  14.172  0.00  0.00    -0.071 NA
ATOM      9  N   UNL     1      -1.099  -9.945  15.485  0.00  0.00    -0.020 NA
ATOM     19  C   UNL     1      -2.536 -10.874  14.194  0.00  0.00    +0.342 A 
BRANCH  19   3
ATOM      3  O   UNL     1      -3.194 -11.348  13.153  0.00  0.00    -0.423 OA
BRANCH   3  21
ATOM     21  C   UNL     1      -3.656 -10.535  12.127  0.00  0.00    +0.134 A 
ATOM     23  C   UNL     1      -5.005 -10.248  12.053  0.00  0.00    +0.069 A 
ATOM     24  C   UNL     1      -2.751 -10.036  11.208  0.00  0.00    +0.046 A 
ATOM     27  C   UNL     1      -5.468  -9.432  11.021  0.00  0.00    +0.033 A 
ATOM     28  C   UNL     1      -3.215  -9.221  10.177  0.00  0.00    +0.005 A 
ATOM     29  C   UNL     1      -4.573  -8.918  10.082  0.00  0.00    +0.023 A 
BRANCH  27  11
ATOM     11  N   UNL     1      -6.843  -9.128  10.926  0.00  0.00    -0.336 N 
ATOM     33  C   UNL     1      -7.735  -9.415  12.031  0.00  0.00    +0.129 C 
ATOM     34  C   UNL     1      -7.382  -8.540   9.717  0.00  0.00    +0.129 C 
ENDBRANCH  27  11
ENDBRANCH   3  21
ENDBRANCH  19   3
ENDBRANCH  15   5
TORSDOF 7
ENDMDL
MODEL 2
REMARK VINA RESULT:      -7.5     27.371     30.464
REMARK  Name = 11879572
REMARK  9 active torsions:
REMARK  status: ('A' for Active; 'I' for Inactive)
REMARK    1  A    between atoms: O_3  and  C_19
REMARK    2  A    between atoms: O_3  and  C_21
REMARK    3  A    between atoms: N_5  and  C_15
REMARK    4  A    between atoms: N_6  and  C_16
REMARK    5  A    between atoms: N_10  and  C_22
REMARK    6  A    between atoms: N_11  and  C_27
REMARK    7  A    between atoms: N_11  and  C_33
REMARK    8  A    between atoms: N_11  and  C_34
REMARK    9  A    between atoms: C_30  and  C_35
REMARK                            x       y       z     vdW  Elec       q    Type
REMARK                         _______ _______ _______ _____ _____    ______ ____
ROOT
ATOM      1  O   UNL     1      12.707   6.625  19.759  0.00  0.00    -0.370 OA
ATOM      2  O   UNL     1      14.590   9.128  20.041  0.00  0.00    -0.370 OA
ATOM     13  C   UNL     1      14.025   8.426  18.919  0.00  0.00    +0.176 C 
ATOM     14  C   UNL     1      14.018   6.950  19.271  0.00  0.00    +0.172 C 
ATOM     15  C   UNL     1      12.560   8.791  18.766  0.00  0.00    +0.171 C 
ATOM     16  C   UNL     1      15.036   6.827  20.383  0.00  0.00    +0.131 C 
ATOM     17  C   UNL     1      11.858   7.777  19.661  0.00  0.00    +0.190 C 
ATOM     18  C   UNL     1      14.941   8.182  21.060  0.00  0.00    +0.185 C 
ENDROOT
BRANCH  16   6
ATOM      4  O   UNL     1      17.393   6.202  21.886  0.00  0.00    -0.252 OA
ATOM      6  N   UNL     1      16.360   6.597  19.856  0.00  0.00    -0.292 N 
ATOM     10  N   UNL     1      18.608   6.126  19.878  0.00  0.00    -0.269 N 
ATOM     20  C   UNL     1      17.463   6.295  20.663  0.00  0.00    +0.304 C 
ATOM     36  H   UNL     1      16.514   6.726  18.860  0.00  0.00    +0.151 HD
ATOM     37  H   UNL     1      18.491   6.238  18.874  0.00  0.00    +0.156 HD
BRANCH  10  22
ATOM     22  C   UNL     1      19.918   5.814  20.310  0.00  0.00    +0.036 A 
ATOM     25  C   UNL     1      20.809   6.842  20.573  0.00  0.00    +0.042 A 
ATOM     26  C   UNL     1      20.284   4.486  20.459  0.00  0.00    +0.023 A 
ATOM     30  C   UNL     1      22.101   6.533  20.997  0.00  0.00    +0.054 A 
ATOM     31  C   UNL     1      21.576   4.178  20.882  0.00  0.00    +0.003 A 
ATOM     32  C   UNL     1      22.485   5.201  21.152  0.00  0.00    +0.019 A 
BRANCH  30  35
ATOM     12  N   UNL     1      23.789   8.433  21.500  0.00  0.00    -0.191 NA
ATOM     35  C   UNL     1      23.032   7.581  21.274  0.00  0.00    +0.099 C 
ENDBRANCH  30  35
ENDBRANCH  10  22
ENDBRANCH  16   6
BRANCH  15   5
ATOM      5  N   UNL     1      12.124   8.791  17.367  0.00  0.00    -0.187 N 
ATOM      7  N   UNL     1      10.875   8.451  17.038  0.00  0.00    -0.041 NA
ATOM      8  N   UNL     1      12.049   8.967  15.214  0.00  0.00    -0.071 NA
ATOM      9  N   UNL     1      10.833   8.560  15.716  0.00  0.00    -0.020 NA
ATOM     19  C   UNL     1      12.835   9.104  16.258  0.00  0.00    +0.342 A 
BRANCH  19   3
ATOM      3  O   UNL     1      14.100   9.478  16.248  0.00  0.00    -0.423 OA
BRANCH   3  21
ATOM     21  C   UNL     1      14.492  10.785  15.991  0.00  0.00    +0.134 A 
ATOM     23  C   UNL     1      15.077  11.082  14.776  0.00  0.00    +0.069 A 
ATOM     24  C   UNL     1      14.285  11.749  16.959  0.00  0.00    +0.046 A 
ATOM     27  C   UNL     1      15.472  12.395  14.519  0.00  0.00    +0.033 A 
ATOM     28  C   UNL     1      14.679  13.061  16.701  0.00  0.00    +0.005 A 
ATOM     29  C   UNL     1      15.273  13.385  15.481  0.00  0.00    +0.023 A 
BRANCH  27  11
ATOM     11  N   UNL     1      16.073  12.721  13.285  0.00  0.00    -0.336 N 
ATOM     33  C   UNL     1      17.231  13.592  13.240  0.00  0.00    +0.129 C 
ATOM     34  C   UNL     1      15.532  12.202  12.045  0.00  0.00    +0.129 C 
ENDBRANCH  27  11
ENDBRANCH   3  21
ENDBRANCH  19   3
ENDBRANCH  15   5
TORSDOF 7
ENDMDL
MODEL 3
REMARK VINA RESULT:      -7.5     27.737     31.006
REMARK  Name = 11879572
REMARK  9 active torsions:
REMARK  status: ('A' for Active; 'I' for Inactive)
REMARK    1  A    between atoms: O_3  and  C_19
REMARK    2  A    between atoms: O_3  and  C_21
REMARK    3  A    between atoms: N_5  and  C_15
REMARK    4  A    between atoms: N_6  and  C_16
REMARK    5  A    between atoms: N_10  and  C_22
REMARK    6  A    between atoms: N_11  and  C_27
REMARK    7  A    between atoms: N_11  and  C_33
REMARK    8  A    between atoms: N_11  and  C_34
REMARK    9  A    between atoms: C_30  and  C_35
REMARK                            x       y       z     vdW  Elec       q    Type
REMARK                         _______ _______ _______ _____ _____    ______ ____
ROOT
ATOM      1  O   UNL     1      14.434   6.775  21.370  0.00  0.00    -0.370 OA
ATOM      2  O   UNL     1      16.349   9.103  20.471  0.00  0.00    -0.370 OA
ATOM     13  C   UNL     1      15.519   8.164  19.764  0.00  0.00    +0.176 C 
ATOM     14  C   UNL     1      15.587   6.849  20.516  0.00  0.00    +0.172 C 
ATOM     15  C   UNL     1      14.065   8.587  19.860  0.00  0.00    +0.171 C 
ATOM     16  C   UNL     1      16.848   6.958  21.346  0.00  0.00    +0.131 C 
ATOM     17  C   UNL     1      13.598   7.918  21.147  0.00  0.00    +0.190 C 
ATOM     18  C   UNL     1      16.933   8.451  21.608  0.00  0.00    +0.185 C 
ENDROOT
BRANCH  16   6
ATOM      4  O   UNL     1      19.488   6.550  22.380  0.00  0.00    -0.252 OA
ATOM      6  N   UNL     1      17.998   6.488  20.612  0.00  0.00    -0.292 N 
ATOM     10  N   UNL     1      20.174   5.852  20.246  0.00  0.00    -0.269 N 
ATOM     20  C   UNL     1      19.259   6.315  21.195  0.00  0.00    +0.304 C 
ATOM     36  H   UNL     1      17.907   6.340  19.612  0.00  0.00    +0.151 HD
ATOM     37  H   UNL     1      19.819   5.708  19.304  0.00  0.00    +0.156 HD
BRANCH  10  22
ATOM     22  C   UNL     1      21.544   5.554  20.434  0.00  0.00    +0.036 A 
ATOM     25  C   UNL     1      21.936   4.235  20.596  0.00  0.00    +0.042 A 
ATOM     26  C   UNL     1      22.466   6.588  20.454  0.00  0.00    +0.023 A 
ATOM     30  C   UNL     1      23.287   3.943  20.784  0.00  0.00    +0.054 A 
ATOM     31  C   UNL     1      23.816   6.295  20.641  0.00  0.00    +0.003 A 
ATOM     32  C   UNL     1      24.227   4.972  20.806  0.00  0.00    +0.019 A 
BRANCH  30  35
ATOM     12  N   UNL     1      24.050   1.485  21.089  0.00  0.00    -0.191 NA
ATOM     35  C   UNL     1      23.708   2.588  20.952  0.00  0.00    +0.099 C 
ENDBRANCH  30  35
ENDBRANCH  10  22
ENDBRANCH  16   6
BRANCH  15   5
ATOM      5  N   UNL     1      13.298   8.235  18.662  0.00  0.00    -0.187 N 
ATOM      7  N   UNL     1      12.178   7.511  18.754  0.00  0.00    -0.041 NA
ATOM      8  N   UNL     1      12.604   8.024  16.626  0.00  0.00    -0.071 NA
ATOM      9  N   UNL     1      11.756   7.384  17.502  0.00  0.00    -0.020 NA
ATOM     19  C   UNL     1      13.554   8.544  17.370  0.00  0.00    +0.342 A 
BRANCH  19   3
ATOM      3  O   UNL     1      14.587   9.248  16.949  0.00  0.00    -0.423 OA
BRANCH   3  21
ATOM     21  C   UNL     1      14.482  10.580  16.574  0.00  0.00    +0.134 A 
ATOM     23  C   UNL     1      14.570  10.909  15.236  0.00  0.00    +0.069 A 
ATOM     24  C   UNL     1      14.294  11.539  17.551  0.00  0.00    +0.046 A 
ATOM     27  C   UNL     1      14.466  12.248  14.859  0.00  0.00    +0.033 A 
ATOM     28  C   UNL     1      14.189  12.877  17.175  0.00  0.00    +0.005 A 
ATOM     29  C   UNL     1      14.276  13.233  15.829  0.00  0.00    +0.023 A 
BRANCH  27  11
ATOM     11  N   UNL     1      14.554  12.607  13.497  0.00  0.00    -0.336 N 
ATOM     33  C   UNL     1      15.550  11.995  12.641  0.00  0.00    +0.129 C 
ATOM     34  C   UNL     1      13.660  13.602  12.941  0.00  0.00    +0.129 C 
ENDBRANCH  27  11
ENDBRANCH   3  21
ENDBRANCH  19   3
ENDBRANCH  15   5
TORSDOF 7
ENDMDL
MODEL 4
REMARK VINA RESULT:      -7.4     27.798     30.995
REMARK  Name = 11879572
REMARK  9 active torsions:
REMARK  status: ('A' for Active; 'I' for Inactive)
REMARK    1  A    between atoms: O_3  and  C_19
REMARK    2  A    between atoms: O_3  and  C_21
REMARK    3  A    between atoms: N_5  and  C_15
REMARK    4  A    between atoms: N_6  and  C_16
REMARK    5  A    between atoms: N_10  and  C_22
REMARK    6  A    between atoms: N_11  and  C_27
REMARK    7  A    between atoms: N_11  and  C_33
REMARK    8  A    between atoms: N_11  and  C_34
REMARK    9  A    between atoms: C_30  and  C_35
REMARK                            x       y       z     vdW  Elec       q    Type
REMARK                         _______ _______ _______ _____ _____    ______ ____
ROOT
ATOM      1  O   UNL     1      14.941   8.928  19.844  0.00  0.00    -0.370 OA
ATOM      2  O   UNL     1      15.636   5.860  19.875  0.00  0.00    -0.370 OA
ATOM     13  C   UNL     1      14.796   6.702  20.686  0.00  0.00    +0.176 C 
ATOM     14  C   UNL     1      15.499   8.038  20.824  0.00  0.00    +0.172 C 
ATOM     15  C   UNL     1      13.512   7.018  19.943  0.00  0.00    +0.171 C 
ATOM     16  C   UNL     1      16.945   7.735  20.494  0.00  0.00    +0.131 C 
ATOM     17  C   UNL     1      13.873   8.268  19.150  0.00  0.00    +0.190 C 
ATOM     18  C   UNL     1      16.817   6.587  19.510  0.00  0.00    +0.185 C 
ENDROOT
BRANCH  16   6
ATOM      4  O   UNL     1      19.775   7.349  20.701  0.00  0.00    -0.252 OA
ATOM      6  N   UNL     1      17.676   7.337  21.672  0.00  0.00    -0.292 N 
ATOM     10  N   UNL     1      19.494   6.781  22.962  0.00  0.00    -0.269 N 
ATOM     20  C   UNL     1      19.066   7.170  21.689  0.00  0.00    +0.304 C 
ATOM     36  H   UNL     1      17.154   7.101  22.510  0.00  0.00    +0.151 HD
ATOM     37  H   UNL     1      18.773   6.678  23.672  0.00  0.00    +0.156 HD
BRANCH  10  22
ATOM     22  C   UNL     1      20.815   6.513  23.390  0.00  0.00    +0.036 A 
ATOM     25  C   UNL     1      21.523   5.479  22.799  0.00  0.00    +0.042 A 
ATOM     26  C   UNL     1      21.373   7.289  24.393  0.00  0.00    +0.023 A 
ATOM     30  C   UNL     1      22.825   5.214  23.224  0.00  0.00    +0.054 A 
ATOM     31  C   UNL     1      22.674   7.023  24.817  0.00  0.00    +0.003 A 
ATOM     32  C   UNL     1      23.401   5.986  24.232  0.00  0.00    +0.019 A 
BRANCH  30  35
ATOM     12  N   UNL     1      24.176   3.289  22.136  0.00  0.00    -0.191 NA
ATOM     35  C   UNL     1      23.570   4.152  22.624  0.00  0.00    +0.099 C 
ENDBRANCH  30  35
ENDBRANCH  10  22
ENDBRANCH  16   6
BRANCH  15   5
ATOM      5  N   UNL     1      12.364   7.163  20.842  0.00  0.00    -0.187 N 
ATOM      7  N   UNL     1      11.389   6.249  20.863  0.00  0.00    -0.041 NA
ATOM      8  N   UNL     1      10.962   7.880  22.323  0.00  0.00    -0.071 NA
ATOM      9  N   UNL     1      10.531   6.693  21.774  0.00  0.00    -0.020 NA
ATOM     19  C   UNL     1      12.101   8.152  21.729  0.00  0.00    +0.342 A 
BRANCH  19   3
ATOM      3  O   UNL     1      12.870   9.202  21.944  0.00  0.00    -0.423 OA
BRANCH   3  21
ATOM     21  C   UNL     1      12.395  10.504  21.874  0.00  0.00    +0.134 A 
ATOM     23  C   UNL     1      11.791  11.058  22.986  0.00  0.00    +0.069 A 
ATOM     24  C   UNL     1      12.540  11.209  20.694  0.00  0.00    +0.046 A 
ATOM     27  C   UNL     1      11.312  12.366  22.915  0.00  0.00    +0.033 A 
ATOM     28  C   UNL     1      12.061  12.516  20.624  0.00  0.00    +0.005 A 
ATOM     29  C   UNL     1      11.447  13.096  21.734  0.00  0.00    +0.023 A 
BRANCH  27  11
ATOM     11  N   UNL     1      10.690  12.950  24.038  0.00  0.00    -0.336 N 
ATOM     33  C   UNL     1      10.877  12.383  25.358  0.00  0.00    +0.129 C 
ATOM     34  C   UNL     1       9.842  14.116  23.885  0.00  0.00    +0.129 C 
ENDBRANCH  27  11
ENDBRANCH   3  21
ENDBRANCH  19   3
ENDBRANCH  15   5
TORSDOF 7
ENDMDL
MODEL 5
REMARK VINA RESULT:      -7.4     27.489     30.640
REMARK  Name = 11879572
REMARK  9 active torsions:
REMARK  status: ('A' for Active; 'I' for Inactive)
REMARK    1  A    between atoms: O_3  and  C_19
REMARK    2  A    between atoms: O_3  and  C_21
REMARK    3  A    between atoms: N_5  and  C_15
REMARK    4  A    between atoms: N_6  and  C_16
REMARK    5  A    between atoms: N_10  and  C_22
REMARK    6  A    between atoms: N_11  and  C_27
REMARK    7  A    between atoms: N_11  and  C_33
REMARK    8  A    between atoms: N_11  and  C_34
REMARK    9  A    between atoms: C_30  and  C_35
REMARK                            x       y       z     vdW  Elec       q    Type
REMARK                         _______ _______ _______ _____ _____    ______ ____
ROOT
ATOM      1  O   UNL     1      13.043   6.609  19.918  0.00  0.00    -0.370 OA
ATOM      2  O   UNL     1      15.037   9.033  20.110  0.00  0.00    -0.370 OA
ATOM     13  C   UNL     1      14.420   8.334  19.015  0.00  0.00    +0.176 C 
ATOM     14  C   UNL     1      14.356   6.867  19.398  0.00  0.00    +0.172 C 
ATOM     15  C   UNL     1      12.969   8.759  18.883  0.00  0.00    +0.171 C 
ATOM     16  C   UNL     1      15.391   6.723  20.493  0.00  0.00    +0.131 C 
ATOM     17  C   UNL     1      12.243   7.794  19.813  0.00  0.00    +0.190 C 
ATOM     18  C   UNL     1      15.368   8.094  21.143  0.00  0.00    +0.185 C 
ENDROOT
BRANCH  16   6
ATOM      4  O   UNL     1      17.871   6.633  21.923  0.00  0.00    -0.252 OA
ATOM      6  N   UNL     1      16.693   6.425  19.944  0.00  0.00    -0.292 N 
ATOM     10  N   UNL     1      18.964   6.086  19.918  0.00  0.00    -0.269 N 
ATOM     20  C   UNL     1      17.860   6.401  20.716  0.00  0.00    +0.304 C 
ATOM     36  H   UNL     1      16.777   6.292  18.941  0.00  0.00    +0.151 HD
ATOM     37  H   UNL     1      18.780   5.921  18.931  0.00  0.00    +0.156 HD
BRANCH  10  22
ATOM     22  C   UNL     1      20.316   5.963  20.315  0.00  0.00    +0.036 A 
ATOM     25  C   UNL     1      20.866   4.701  20.472  0.00  0.00    +0.042 A 
ATOM     26  C   UNL     1      21.062   7.108  20.542  0.00  0.00    +0.023 A 
ATOM     30  C   UNL     1      22.198   4.581  20.866  0.00  0.00    +0.054 A 
ATOM     31  C   UNL     1      22.394   6.987  20.936  0.00  0.00    +0.003 A 
ATOM     32  C   UNL     1      22.962   5.723  21.098  0.00  0.00    +0.019 A 
BRANCH  30  35
ATOM     12  N   UNL     1      23.254   2.234  21.165  0.00  0.00    -0.191 NA
ATOM     35  C   UNL     1      22.780   3.287  21.031  0.00  0.00    +0.099 C 
ENDBRANCH  30  35
ENDBRANCH  10  22
ENDBRANCH  16   6
BRANCH  15   5
ATOM      5  N   UNL     1      12.505   8.750  17.493  0.00  0.00    -0.187 N 
ATOM      7  N   UNL     1      11.274   8.334  17.184  0.00  0.00    -0.041 NA
ATOM      8  N   UNL     1      12.375   8.949  15.345  0.00  0.00    -0.071 NA
ATOM      9  N   UNL     1      11.198   8.458  15.865  0.00  0.00    -0.020 NA
ATOM     19  C   UNL     1      13.171   9.122  16.375  0.00  0.00    +0.342 A 
BRANCH  19   3
ATOM      3  O   UNL     1      14.409   9.578  16.346  0.00  0.00    -0.423 OA
BRANCH   3  21
ATOM     21  C   UNL     1      14.724  10.863  15.926  0.00  0.00    +0.134 A 
ATOM     23  C   UNL     1      14.429  11.929  16.752  0.00  0.00    +0.069 A 
ATOM     24  C   UNL     1      15.321  11.037  14.692  0.00  0.00    +0.046 A 
ATOM     27  C   UNL     1      14.745  13.221  16.328  0.00  0.00    +0.033 A 
ATOM     28  C   UNL     1      15.637  12.328  14.269  0.00  0.00    +0.005 A 
ATOM     29  C   UNL     1      15.348  13.420  15.087  0.00  0.00    +0.023 A 
BRANCH  27  11
ATOM     11  N   UNL     1      14.451  14.325  17.156  0.00  0.00    -0.336 N 
ATOM     33  C   UNL     1      13.167  14.989  17.066  0.00  0.00    +0.129 C 
ATOM     34  C   UNL     1      15.437  14.819  18.097  0.00  0.00    +0.129 C 
ENDBRANCH  27  11
ENDBRANCH   3  21
ENDBRANCH  19   3
ENDBRANCH  15   5
TORSDOF 7
ENDMDL
MODEL 6
REMARK VINA RESULT:      -7.3     28.257     31.356
REMARK  Name = 11879572
REMARK  9 active torsions:
REMARK  status: ('A' for Active; 'I' for Inactive)
REMARK    1  A    between atoms: O_3  and  C_19
REMARK    2  A    between atoms: O_3  and  C_21
REMARK    3  A    between atoms: N_5  and  C_15
REMARK    4  A    between atoms: N_6  and  C_16
REMARK    5  A    between atoms: N_10  and  C_22
REMARK    6  A    between atoms: N_11  and  C_27
REMARK    7  A    between atoms: N_11  and  C_33
REMARK    8  A    between atoms: N_11  and  C_34
REMARK    9  A    between atoms: C_30  and  C_35
REMARK                            x       y       z     vdW  Elec       q    Type
REMARK                         _______ _______ _______ _____ _____    ______ ____
ROOT
ATOM      1  O   UNL     1      15.034   9.006  19.988  0.00  0.00    -0.370 OA
ATOM      2  O   UNL     1      15.575   5.914  19.788  0.00  0.00    -0.370 OA
ATOM     13  C   UNL     1      14.780   6.733  20.664  0.00  0.00    +0.176 C 
ATOM     14  C   UNL     1      15.550   8.019  20.896  0.00  0.00    +0.172 C 
ATOM     15  C   UNL     1      13.511   7.168  19.955  0.00  0.00    +0.171 C 
ATOM     16  C   UNL     1      16.977   7.670  20.536  0.00  0.00    +0.131 C 
ATOM     17  C   UNL     1      13.933   8.454  19.254  0.00  0.00    +0.190 C 
ATOM     18  C   UNL     1      16.790   6.606  19.470  0.00  0.00    +0.185 C 
ENDROOT
BRANCH  16   6
ATOM      4  O   UNL     1      19.725   8.137  21.195  0.00  0.00    -0.252 OA
ATOM      6  N   UNL     1      17.691   7.149  21.676  0.00  0.00    -0.292 N 
ATOM     10  N   UNL     1      19.459   6.788  23.098  0.00  0.00    -0.269 N 
ATOM     20  C   UNL     1      19.040   7.427  21.927  0.00  0.00    +0.304 C 
ATOM     36  H   UNL     1      17.213   6.496  22.290  0.00  0.00    +0.151 HD
ATOM     37  H   UNL     1      18.761   6.234  23.588  0.00  0.00    +0.156 HD
BRANCH  10  22
ATOM     22  C   UNL     1      20.742   6.817  23.691  0.00  0.00    +0.036 A 
ATOM     25  C   UNL     1      20.965   7.633  24.789  0.00  0.00    +0.042 A 
ATOM     26  C   UNL     1      21.752   6.031  23.160  0.00  0.00    +0.023 A 
ATOM     30  C   UNL     1      22.231   7.663  25.372  0.00  0.00    +0.054 A 
ATOM     31  C   UNL     1      23.018   6.061  23.744  0.00  0.00    +0.003 A 
ATOM     32  C   UNL     1      23.258   6.877  24.850  0.00  0.00    +0.019 A 
BRANCH  30  35
ATOM     12  N   UNL     1      22.677   9.176  27.427  0.00  0.00    -0.191 NA
ATOM     35  C   UNL     1      22.477   8.497  26.505  0.00  0.00    +0.099 C 
ENDBRANCH  30  35
ENDBRANCH  10  22
ENDBRANCH  16   6
BRANCH  15   5
ATOM      5  N   UNL     1      12.374   7.302  20.869  0.00  0.00    -0.187 N 
ATOM      7  N   UNL     1      11.370   6.421  20.849  0.00  0.00    -0.041 NA
ATOM      8  N   UNL     1      11.006   7.985  22.396  0.00  0.00    -0.071 NA
ATOM      9  N   UNL     1      10.533   6.844  21.788  0.00  0.00    -0.020 NA
ATOM     19  C   UNL     1      12.151   8.250  21.809  0.00  0.00    +0.342 A 
BRANCH  19   3
ATOM      3  O   UNL     1      12.956   9.261  22.073  0.00  0.00    -0.423 OA
BRANCH   3  21
ATOM     21  C   UNL     1      12.496  10.560  22.241  0.00  0.00    +0.134 A 
ATOM     23  C   UNL     1      12.430  11.089  23.515  0.00  0.00    +0.069 A 
ATOM     24  C   UNL     1      12.116  11.285  21.128  0.00  0.00    +0.046 A 
ATOM     27  C   UNL     1      11.966  12.394  23.683  0.00  0.00    +0.033 A 
ATOM     28  C   UNL     1      11.653  12.590  21.296  0.00  0.00    +0.005 A 
ATOM     29  C   UNL     1      11.577  13.145  22.573  0.00  0.00    +0.023 A 
BRANCH  27  11
ATOM     11  N   UNL     1      11.889  12.954  24.976  0.00  0.00    -0.336 N 
ATOM     33  C   UNL     1      10.606  13.315  25.544  0.00  0.00    +0.129 C 
ATOM     34  C   UNL     1      13.093  13.189  25.746  0.00  0.00    +0.129 C 
ENDBRANCH  27  11
ENDBRANCH   3  21
ENDBRANCH  19   3
ENDBRANCH  15   5
TORSDOF 7
ENDMDL
MODEL 7
REMARK VINA RESULT:      -7.3     29.149     32.003
REMARK  Name = 11879572
REMARK  9 active torsions:
REMARK  status: ('A' for Active; 'I' for Inactive)
REMARK    1  A    between atoms: O_3  and  C_19
REMARK    2  A    between atoms: O_3  and  C_21
REMARK    3  A    between atoms: N_5  and  C_15
REMARK    4  A    between atoms: N_6  and  C_16
REMARK    5  A    between atoms: N_10  and  C_22
REMARK    6  A    between atoms: N_11  and  C_27
REMARK    7  A    between atoms: N_11  and  C_33
REMARK    8  A    between atoms: N_11  and  C_34
REMARK    9  A    between atoms: C_30  and  C_35
REMARK                            x       y       z     vdW  Elec       q    Type
REMARK                         _______ _______ _______ _____ _____    ______ ____
ROOT
ATOM      1  O   UNL     1      22.103   8.140  21.522  0.00  0.00    -0.370 OA
ATOM      2  O   UNL     1      20.805   5.550  22.746  0.00  0.00    -0.370 OA
ATOM     13  C   UNL     1      21.590   5.812  21.568  0.00  0.00    +0.176 C 
ATOM     14  C   UNL     1      21.163   7.167  21.038  0.00  0.00    +0.172 C 
ATOM     15  C   UNL     1      23.048   5.990  21.949  0.00  0.00    +0.171 C 
ATOM     16  C   UNL     1      19.803   7.400  21.657  0.00  0.00    +0.131 C 
ATOM     17  C   UNL     1      23.143   7.480  22.255  0.00  0.00    +0.190 C 
ATOM     18  C   UNL     1      19.915   6.652  22.973  0.00  0.00    +0.185 C 
ENDROOT
BRANCH  16   6
ATOM      4  O   UNL     1      17.177   8.483  21.284  0.00  0.00    -0.252 OA
ATOM      6  N   UNL     1      18.753   6.852  20.831  0.00  0.00    -0.292 N 
ATOM     10  N   UNL     1      16.687   6.696  19.842  0.00  0.00    -0.269 N 
ATOM     20  C   UNL     1      17.493   7.447  20.703  0.00  0.00    +0.304 C 
ATOM     36  H   UNL     1      18.912   5.959  20.375  0.00  0.00    +0.151 HD
ATOM     37  H   UNL     1      17.104   5.860  19.441  0.00  0.00    +0.156 HD
BRANCH  10  22
ATOM     22  C   UNL     1      15.352   6.959  19.453  0.00  0.00    +0.036 A 
ATOM     25  C   UNL     1      15.102   7.475  18.192  0.00  0.00    +0.042 A 
ATOM     26  C   UNL     1      14.323   6.695  20.342  0.00  0.00    +0.023 A 
ATOM     30  C   UNL     1      13.786   7.736  17.810  0.00  0.00    +0.054 A 
ATOM     31  C   UNL     1      13.008   6.956  19.959  0.00  0.00    +0.003 A 
ATOM     32  C   UNL     1      12.739   7.476  18.693  0.00  0.00    +0.019 A 
BRANCH  30  35
ATOM     12  N   UNL     1      13.287   8.700  15.457  0.00  0.00    -0.191 NA
ATOM     35  C   UNL     1      13.510   8.268  16.513  0.00  0.00    +0.099 C 
ENDBRANCH  30  35
ENDBRANCH  10  22
ENDBRANCH  16   6
BRANCH  15   5
ATOM      5  N   UNL     1      23.962   5.509  20.910  0.00  0.00    -0.187 N 
ATOM      7  N   UNL     1      24.823   6.341  20.316  0.00  0.00    -0.041 NA
ATOM      8  N   UNL     1      25.034   4.280  19.493  0.00  0.00    -0.071 NA
ATOM      9  N   UNL     1      25.479   5.582  19.446  0.00  0.00    -0.020 NA
ATOM     19  C   UNL     1      24.093   4.259  20.409  0.00  0.00    +0.342 A 
BRANCH  19   3
ATOM      3  O   UNL     1      23.385   3.212  20.787  0.00  0.00    -0.423 OA
BRANCH   3  21
ATOM     21  C   UNL     1      23.836   2.309  21.740  0.00  0.00    +0.134 A 
ATOM     23  C   UNL     1      23.416   2.449  23.048  0.00  0.00    +0.069 A 
ATOM     24  C   UNL     1      24.692   1.296  21.351  0.00  0.00    +0.046 A 
ATOM     27  C   UNL     1      23.870   1.542  24.005  0.00  0.00    +0.033 A 
ATOM     28  C   UNL     1      25.145   0.389  22.308  0.00  0.00    +0.005 A 
ATOM     29  C   UNL     1      24.735   0.512  23.636  0.00  0.00    +0.023 A 
BRANCH  27  11
ATOM     11  N   UNL     1      23.455   1.668  25.348  0.00  0.00    -0.336 N 
ATOM     33  C   UNL     1      22.788   2.872  25.800  0.00  0.00    +0.129 C 
ATOM     34  C   UNL     1      23.704   0.601  26.296  0.00  0.00    +0.129 C 
ENDBRANCH  27  11
ENDBRANCH   3  21
ENDBRANCH  19   3
ENDBRANCH  15   5
TORSDOF 7
ENDMDL
MODEL 8
REMARK VINA RESULT:      -7.1     23.788     27.423
REMARK  Name = 11879572
REMARK  9 active torsions:
REMARK  status: ('A' for Active; 'I' for Inactive)
REMARK    1  A    between atoms: O_3  and  C_19
REMARK    2  A    between atoms: O_3  and  C_21
REMARK    3  A    between atoms: N_5  and  C_15
REMARK    4  A    between atoms: N_6  and  C_16
REMARK    5  A    between atoms: N_10  and  C_22
REMARK    6  A    between atoms: N_11  and  C_27
REMARK    7  A    between atoms: N_11  and  C_33
REMARK    8  A    between atoms: N_11  and  C_34
REMARK    9  A    between atoms: C_30  and  C_35
REMARK                            x       y       z     vdW  Elec       q    Type
REMARK                         _______ _______ _______ _____ _____    ______ ____
ROOT
ATOM      1  O   UNL     1       8.664   7.512   6.503  0.00  0.00    -0.370 OA
ATOM      2  O   UNL     1      10.910   5.877   7.978  0.00  0.00    -0.370 OA
ATOM     13  C   UNL     1      10.922   6.976   7.049  0.00  0.00    +0.176 C 
ATOM     14  C   UNL     1       9.794   6.742   6.063  0.00  0.00    +0.172 C 
ATOM     15  C   UNL     1      10.548   8.260   7.764  0.00  0.00    +0.171 C 
ATOM     16  C   UNL     1       9.497   5.263   6.178  0.00  0.00    +0.131 C 
ATOM     17  C   UNL     1       9.028   8.282   7.657  0.00  0.00    +0.190 C 
ATOM     18  C   UNL     1       9.852   4.974   7.625  0.00  0.00    +0.185 C 
ENDROOT
BRANCH  16   6
ATOM      4  O   UNL     1       9.910   5.770   3.389  0.00  0.00    -0.252 OA
ATOM      6  N   UNL     1      10.318   4.494   5.274  0.00  0.00    -0.292 N 
ATOM     10  N   UNL     1      11.318   3.894   3.295  0.00  0.00    -0.269 N 
ATOM     20  C   UNL     1      10.467   4.812   3.919  0.00  0.00    +0.304 C 
ATOM     36  H   UNL     1      10.756   3.645   5.620  0.00  0.00    +0.151 HD
ATOM     37  H   UNL     1      11.698   3.155   3.882  0.00  0.00    +0.156 HD
BRANCH  10  22
ATOM     22  C   UNL     1      11.721   3.866   1.940  0.00  0.00    +0.036 A 
ATOM     25  C   UNL     1      10.804   4.189   0.952  0.00  0.00    +0.042 A 
ATOM     26  C   UNL     1      13.024   3.513   1.627  0.00  0.00    +0.023 A 
ATOM     30  C   UNL     1      11.202   4.159  -0.384  0.00  0.00    +0.054 A 
ATOM     31  C   UNL     1      13.421   3.483   0.291  0.00  0.00    +0.003 A 
ATOM     32  C   UNL     1      12.510   3.806  -0.715  0.00  0.00    +0.019 A 
BRANCH  30  35
ATOM     12  N   UNL     1       9.512   4.761  -2.254  0.00  0.00    -0.191 NA
ATOM     35  C   UNL     1      10.270   4.490  -1.415  0.00  0.00    +0.099 C 
ENDBRANCH  30  35
ENDBRANCH  10  22
ENDBRANCH  16   6
BRANCH  15   5
ATOM      5  N   UNL     1      11.227   9.433   7.206  0.00  0.00    -0.187 N 
ATOM      7  N   UNL     1      10.558  10.566   6.972  0.00  0.00    -0.041 NA
ATOM      8  N   UNL     1      12.702  10.791   6.399  0.00  0.00    -0.071 NA
ATOM      9  N   UNL     1      11.467  11.397   6.477  0.00  0.00    -0.020 NA
ATOM     19  C   UNL     1      12.527   9.572   6.857  0.00  0.00    +0.342 A 
BRANCH  19   3
ATOM      3  O   UNL     1      13.447   8.633   6.965  0.00  0.00    -0.423 OA
BRANCH   3  21
ATOM     21  C   UNL     1      14.346   8.346   5.947  0.00  0.00    +0.134 A 
ATOM     23  C   UNL     1      13.864   7.904   4.731  0.00  0.00    +0.069 A 
ATOM     24  C   UNL     1      15.698   8.510   6.181  0.00  0.00    +0.046 A 
ATOM     27  C   UNL     1      14.768   7.615   3.709  0.00  0.00    +0.033 A 
ATOM     28  C   UNL     1      16.602   8.222   5.159  0.00  0.00    +0.005 A 
ATOM     29  C   UNL     1      16.138   7.773   3.923  0.00  0.00    +0.023 A 
BRANCH  27  11
ATOM     11  N   UNL     1      14.297   7.161   2.459  0.00  0.00    -0.336 N 
ATOM     33  C   UNL     1      12.895   7.283   2.114  0.00  0.00    +0.129 C 
ATOM     34  C   UNL     1      15.206   6.551   1.509  0.00  0.00    +0.129 C 
ENDBRANCH  27  11
ENDBRANCH   3  21
ENDBRANCH  19   3
ENDBRANCH  15   5
TORSDOF 7
ENDMDL
MODEL 9
REMARK VINA RESULT:      -7.1     28.865     31.244
REMARK  Name = 11879572
REMARK  9 active torsions:
REMARK  status: ('A' for Active; 'I' for Inactive)
REMARK    1  A    between atoms: O_3  and  C_19
REMARK    2  A    between atoms: O_3  and  C_21
REMARK    3  A    between atoms: N_5  and  C_15
REMARK    4  A    between atoms: N_6  and  C_16
REMARK    5  A    between atoms: N_10  and  C_22
REMARK    6  A    between atoms: N_11  and  C_27
REMARK    7  A    between atoms: N_11  and  C_33
REMARK    8  A    between atoms: N_11  and  C_34
REMARK    9  A    between atoms: C_30  and  C_35
REMARK                            x       y       z     vdW  Elec       q    Type
REMARK                         _______ _______ _______ _____ _____    ______ ____
ROOT
ATOM      1  O   UNL     1      11.329  11.571  23.020  0.00  0.00    -0.370 OA
ATOM      2  O   UNL     1      14.308  11.915  22.069  0.00  0.00    -0.370 OA
ATOM     13  C   UNL     1      13.418  10.789  22.175  0.00  0.00    +0.176 C 
ATOM     14  C   UNL     1      12.582  10.994  23.423  0.00  0.00    +0.172 C 
ATOM     15  C   UNL     1      12.418  10.813  21.034  0.00  0.00    +0.171 C 
ATOM     16  C   UNL     1      13.375  11.986  24.245  0.00  0.00    +0.131 C 
ATOM     17  C   UNL     1      11.285  11.668  21.590  0.00  0.00    +0.190 C 
ATOM     18  C   UNL     1      14.082  12.799  23.176  0.00  0.00    +0.185 C 
ENDROOT
BRANCH  16   6
ATOM      4  O   UNL     1      14.316  12.892  26.794  0.00  0.00    -0.252 OA
ATOM      6  N   UNL     1      14.321  11.315  25.104  0.00  0.00    -0.292 N 
ATOM     10  N   UNL     1      15.647  10.965  26.946  0.00  0.00    -0.269 N 
ATOM     20  C   UNL     1      14.729  11.828  26.340  0.00  0.00    +0.304 C 
ATOM     36  H   UNL     1      14.761  10.464  24.767  0.00  0.00    +0.151 HD
ATOM     37  H   UNL     1      15.883  10.119  26.432  0.00  0.00    +0.156 HD
BRANCH  10  22
ATOM     22  C   UNL     1      16.293  11.121  28.194  0.00  0.00    +0.036 A 
ATOM     25  C   UNL     1      15.671  10.660  29.343  0.00  0.00    +0.042 A 
ATOM     26  C   UNL     1      17.535  11.734  28.243  0.00  0.00    +0.023 A 
ATOM     30  C   UNL     1      16.307  10.817  30.574  0.00  0.00    +0.054 A 
ATOM     31  C   UNL     1      18.170  11.890  29.474  0.00  0.00    +0.003 A 
ATOM     32  C   UNL     1      17.557  11.431  30.640  0.00  0.00    +0.019 A 
BRANCH  30  35
ATOM     12  N   UNL     1      15.168   9.962  32.739  0.00  0.00    -0.191 NA
ATOM     35  C   UNL     1      15.679  10.346  31.768  0.00  0.00    +0.099 C 
ENDBRANCH  30  35
ENDBRANCH  10  22
ENDBRANCH  16   6
BRANCH  15   5
ATOM      5  N   UNL     1      12.027   9.469  20.601  0.00  0.00    -0.187 N 
ATOM      7  N   UNL     1      10.891   8.913  21.032  0.00  0.00    -0.041 NA
ATOM      8  N   UNL     1      11.968   7.525  19.658  0.00  0.00    -0.071 NA
ATOM      9  N   UNL     1      10.859   7.720  20.451  0.00  0.00    -0.020 NA
ATOM     19  C   UNL     1      12.678   8.625  19.768  0.00  0.00    +0.342 A 
BRANCH  19   3
ATOM      3  O   UNL     1      13.830   8.880  19.177  0.00  0.00    -0.423 OA
BRANCH   3  21
ATOM     21  C   UNL     1      15.005   8.223  19.514  0.00  0.00    +0.134 A 
ATOM     23  C   UNL     1      15.907   8.850  20.352  0.00  0.00    +0.069 A 
ATOM     24  C   UNL     1      15.239   6.961  19.002  0.00  0.00    +0.046 A 
ATOM     27  C   UNL     1      17.089   8.190  20.689  0.00  0.00    +0.033 A 
ATOM     28  C   UNL     1      16.420   6.302  19.340  0.00  0.00    +0.005 A 
ATOM     29  C   UNL     1      17.346   6.916  20.184  0.00  0.00    +0.023 A 
BRANCH  27  11
ATOM     11  N   UNL     1      18.025   8.813  21.542  0.00  0.00    -0.336 N 
ATOM     33  C   UNL     1      17.902  10.220  21.863  0.00  0.00    +0.129 C 
ATOM     34  C   UNL     1      19.130   8.056  22.096  0.00  0.00    +0.129 C 
ENDBRANCH  27  11
ENDBRANCH   3  21
ENDBRANCH  19   3
ENDBRANCH  15   5
TORSDOF 7
ENDMDL
MODEL 10
REMARK VINA RESULT:      -7.0     24.095     27.988
REMARK  Name = 11879572
REMARK  9 active torsions:
REMARK  status: ('A' for Active; 'I' for Inactive)
REMARK    1  A    between atoms: O_3  and  C_19
REMARK    2  A    between atoms: O_3  and  C_21
REMARK    3  A    between atoms: N_5  and  C_15
REMARK    4  A    between atoms: N_6  and  C_16
REMARK    5  A    between atoms: N_10  and  C_22
REMARK    6  A    between atoms: N_11  and  C_27
REMARK    7  A    between atoms: N_11  and  C_33
REMARK    8  A    between atoms: N_11  and  C_34
REMARK    9  A    between atoms: C_30  and  C_35
REMARK                            x       y       z     vdW  Elec       q    Type
REMARK                         _______ _______ _______ _____ _____    ______ ____
ROOT
ATOM      1  O   UNL     1       8.656   7.398   6.592  0.00  0.00    -0.370 OA
ATOM      2  O   UNL     1      10.935   5.723   7.968  0.00  0.00    -0.370 OA
ATOM     13  C   UNL     1      10.926   6.845   7.066  0.00  0.00    +0.176 C 
ATOM     14  C   UNL     1       9.773   6.638   6.104  0.00  0.00    +0.172 C 
ATOM     15  C   UNL     1      10.573   8.112   7.823  0.00  0.00    +0.171 C 
ATOM     16  C   UNL     1       9.476   5.157   6.189  0.00  0.00    +0.131 C 
ATOM     17  C   UNL     1       9.050   8.139   7.755  0.00  0.00    +0.190 C 
ATOM     18  C   UNL     1       9.867   4.831   7.619  0.00  0.00    +0.185 C 
ENDROOT
BRANCH  16   6
ATOM      4  O   UNL     1      10.074   5.899   3.488  0.00  0.00    -0.252 OA
ATOM      6  N   UNL     1      10.273   4.410   5.246  0.00  0.00    -0.292 N 
ATOM     10  N   UNL     1      11.317   3.920   3.260  0.00  0.00    -0.269 N 
ATOM     20  C   UNL     1      10.518   4.845   3.938  0.00  0.00    +0.304 C 
ATOM     36  H   UNL     1      10.616   3.494   5.520  0.00  0.00    +0.151 HD
ATOM     37  H   UNL     1      11.601   3.095   3.782  0.00  0.00    +0.156 HD
BRANCH  10  22
ATOM     22  C   UNL     1      11.785   3.990   1.927  0.00  0.00    +0.036 A 
ATOM     25  C   UNL     1      13.149   3.987   1.685  0.00  0.00    +0.042 A 
ATOM     26  C   UNL     1      10.869   4.064   0.890  0.00  0.00    +0.023 A 
ATOM     30  C   UNL     1      13.610   4.058   0.371  0.00  0.00    +0.054 A 
ATOM     31  C   UNL     1      11.330   4.135  -0.424  0.00  0.00    +0.003 A 
ATOM     32  C   UNL     1      12.701   4.132  -0.684  0.00  0.00    +0.019 A 
BRANCH  30  35
ATOM     12  N   UNL     1      16.155   4.051  -0.112  0.00  0.00    -0.191 NA
ATOM     35  C   UNL     1      15.013   4.054   0.104  0.00  0.00    +0.099 C 
ENDBRANCH  30  35
ENDBRANCH  10  22
ENDBRANCH  16   6
BRANCH  15   5
ATOM      5  N   UNL     1      11.240   9.297   7.278  0.00  0.00    -0.187 N 
ATOM      7  N   UNL     1      10.558  10.423   7.048  0.00  0.00    -0.041 NA
ATOM      8  N   UNL     1      12.701  10.680   6.490  0.00  0.00    -0.071 NA
ATOM      9  N   UNL     1      11.459  11.269   6.564  0.00  0.00    -0.020 NA
ATOM     19  C   UNL     1      12.540   9.456   6.938  0.00  0.00    +0.342 A 
BRANCH  19   3
ATOM      3  O   UNL     1      13.471   8.528   7.044  0.00  0.00    -0.423 OA
BRANCH   3  21
ATOM     21  C   UNL     1      14.350   8.228   6.013  0.00  0.00    +0.134 A 
ATOM     23  C   UNL     1      15.656   8.670   6.095  0.00  0.00    +0.069 A 
ATOM     24  C   UNL     1      13.893   7.497   4.933  0.00  0.00    +0.046 A 
ATOM     27  C   UNL     1      16.539   8.369   5.057  0.00  0.00    +0.033 A 
ATOM     28  C   UNL     1      14.775   7.197   3.896  0.00  0.00    +0.005 A 
ATOM     29  C   UNL     1      16.099   7.633   3.958  0.00  0.00    +0.023 A 
BRANCH  27  11
ATOM     11  N   UNL     1      17.877   8.812   5.120  0.00  0.00    -0.336 N 
ATOM     33  C   UNL     1      18.528   9.350   3.943  0.00  0.00    +0.129 C 
ATOM     34  C   UNL     1      18.623   8.720   6.360  0.00  0.00    +0.129 C 
ENDBRANCH  27  11
ENDBRANCH   3  21
ENDBRANCH  19   3
ENDBRANCH  15   5
TORSDOF 7
ENDMDL
