MODEL 1
REMARK VINA RESULT:      -6.2      0.000      0.000
REMARK  Name = 45783500
REMARK  9 active torsions:
REMARK  status: ('A' for Active; 'I' for Inactive)
REMARK    1  A    between atoms: O_2  and  C_24
REMARK    2  A    between atoms: O_2  and  C_25
REMARK    3  A    between atoms: N_3  and  C_11
REMARK    4  A    between atoms: N_7  and  C_22
REMARK    5  A    between atoms: N_7  and  C_23
REMARK    6  A    between atoms: C_8  and  C_11
REMARK    7  A    between atoms: C_12  and  C_16
REMARK    8  A    between atoms: C_17  and  C_18
REMARK    9  A    between atoms: C_23  and  C_24
REMARK                            x       y       z     vdW  Elec       q    Type
REMARK                         _______ _______ _______ _____ _____    ______ ____
ROOT
ATOM      1  O   UNL     1      16.296   5.914  18.332  0.00  0.00    -0.336 OA
ATOM      4  N   UNL     1      16.585   6.996  20.273  0.00  0.00    -0.190 NA
ATOM      5  N   UNL     1      17.577   5.570  18.785  0.00  0.00    -0.056 NA
ATOM     16  C   UNL     1      15.782   6.756  19.266  0.00  0.00    +0.245 A 
ATOM     17  C   UNL     1      17.673   6.246  19.932  0.00  0.00    +0.204 A 
ENDROOT
BRANCH  17  18
ATOM      6  N   UNL     1      20.020   6.983  22.721  0.00  0.00    -0.240 NA
ATOM     18  C   UNL     1      18.843   6.197  20.762  0.00  0.00    +0.041 A 
ATOM     19  C   UNL     1      19.908   5.359  20.448  0.00  0.00    +0.016 A 
ATOM     20  C   UNL     1      18.948   6.982  21.898  0.00  0.00    +0.124 A 
ATOM     21  C   UNL     1      21.029   5.332  21.271  0.00  0.00    +0.044 A 
ATOM     22  C   UNL     1      21.035   6.156  22.385  0.00  0.00    +0.119 A 
BRANCH  22   7
ATOM      7  N   UNL     1      22.184   6.117  23.214  0.00  0.00    -0.327 N 
ATOM     26  H   UNL     1      22.238   6.816  23.945  0.00  0.00    +0.148 HD
BRANCH   7  23
ATOM     23  C   UNL     1      23.225   5.156  23.042  0.00  0.00    +0.131 C 
BRANCH  23  24
ATOM     24  C   UNL     1      23.168   4.125  24.156  0.00  0.00    +0.178 C 
BRANCH  24   2
ATOM      2  O   UNL     1      22.302   3.063  23.775  0.00  0.00    -0.381 OA
ATOM     25  C   UNL     1      22.527   1.900  24.561  0.00  0.00    +0.194 C 
ENDBRANCH  24   2
ENDBRANCH  23  24
ENDBRANCH   7  23
ENDBRANCH  22   7
ENDBRANCH  17  18
BRANCH  16  12
ATOM      3  N   UNL     1      13.874   8.110  20.116  0.00  0.00    -0.291 NA
ATOM     12  C   UNL     1      14.385   7.279  19.008  0.00  0.00    +0.146 C 
ATOM     13  C   UNL     1      12.947   9.072  19.520  0.00  0.00    +0.085 C 
ATOM     14  C   UNL     1      14.310   8.191  17.769  0.00  0.00    +0.030 C 
ATOM     15  C   UNL     1      13.691   9.489  18.268  0.00  0.00    +0.017 C 
BRANCH   3  11
ATOM     11  C   UNL     1      13.249   7.331  21.178  0.00  0.00    +0.088 C 
BRANCH  11   8
ATOM      8  C   UNL     1      11.847   6.957  20.823  0.00  0.00    +0.003 C 
ATOM      9  C   UNL     1      10.750   7.191  21.819  0.00  0.00    +0.005 C 
ATOM     10  C   UNL     1      11.201   5.792  21.515  0.00  0.00    +0.005 C 
ENDBRANCH  11   8
ENDBRANCH   3  11
ENDBRANCH  16  12
TORSDOF 8
ENDMDL
MODEL 2
REMARK VINA RESULT:      -6.1     30.517     33.622
REMARK  Name = 45783500
REMARK  9 active torsions:
REMARK  status: ('A' for Active; 'I' for Inactive)
REMARK    1  A    between atoms: O_2  and  C_24
REMARK    2  A    between atoms: O_2  and  C_25
REMARK    3  A    between atoms: N_3  and  C_11
REMARK    4  A    between atoms: N_7  and  C_22
REMARK    5  A    between atoms: N_7  and  C_23
REMARK    6  A    between atoms: C_8  and  C_11
REMARK    7  A    between atoms: C_12  and  C_16
REMARK    8  A    between atoms: C_17  and  C_18
REMARK    9  A    between atoms: C_23  and  C_24
REMARK                            x       y       z     vdW  Elec       q    Type
REMARK                         _______ _______ _______ _____ _____    ______ ____
ROOT
ATOM      1  O   UNL     1     -16.689   3.440  22.158  0.00  0.00    -0.336 OA
ATOM      4  N   UNL     1     -16.390   4.488  24.115  0.00  0.00    -0.190 NA
ATOM      5  N   UNL     1     -16.730   2.445  23.144  0.00  0.00    -0.056 NA
ATOM     16  C   UNL     1     -16.485   4.612  22.815  0.00  0.00    +0.245 A 
ATOM     17  C   UNL     1     -16.547   3.142  24.269  0.00  0.00    +0.204 A 
ENDROOT
BRANCH  17  18
ATOM      6  N   UNL     1     -16.759   0.527  26.904  0.00  0.00    -0.240 NA
ATOM     18  C   UNL     1     -16.513   2.522  25.563  0.00  0.00    +0.041 A 
ATOM     19  C   UNL     1     -16.218   3.262  26.704  0.00  0.00    +0.016 A 
ATOM     20  C   UNL     1     -16.774   1.170  25.716  0.00  0.00    +0.124 A 
ATOM     21  C   UNL     1     -16.192   2.634  27.944  0.00  0.00    +0.044 A 
ATOM     22  C   UNL     1     -16.468   1.277  27.990  0.00  0.00    +0.119 A 
BRANCH  22   7
ATOM      7  N   UNL     1     -16.438   0.652  29.261  0.00  0.00    -0.327 N 
ATOM     26  H   UNL     1     -17.152  -0.044  29.440  0.00  0.00    +0.148 HD
BRANCH   7  23
ATOM     23  C   UNL     1     -15.464   0.972  30.254  0.00  0.00    +0.131 C 
BRANCH  23  24
ATOM     24  C   UNL     1     -14.099   0.460  29.826  0.00  0.00    +0.178 C 
BRANCH  24   2
ATOM      2  O   UNL     1     -14.218  -0.880  29.366  0.00  0.00    -0.381 OA
ATOM     25  C   UNL     1     -12.946  -1.497  29.222  0.00  0.00    +0.194 C 
ENDBRANCH  24   2
ENDBRANCH  23  24
ENDBRANCH   7  23
ENDBRANCH  22   7
ENDBRANCH  17  18
BRANCH  16  12
ATOM      3  N   UNL     1     -15.257   5.833  21.027  0.00  0.00    -0.291 NA
ATOM     12  C   UNL     1     -16.401   5.859  21.961  0.00  0.00    +0.146 C 
ATOM     13  C   UNL     1     -15.653   6.629  19.865  0.00  0.00    +0.085 C 
ATOM     14  C   UNL     1     -17.636   6.047  21.060  0.00  0.00    +0.030 C 
ATOM     15  C   UNL     1     -17.083   6.177  19.648  0.00  0.00    +0.017 C 
BRANCH   3  11
ATOM     11  C   UNL     1     -14.018   6.314  21.624  0.00  0.00    +0.088 C 
BRANCH  11   8
ATOM      8  C   UNL     1     -13.217   7.110  20.646  0.00  0.00    +0.003 C 
ATOM      9  C   UNL     1     -11.718   7.066  20.715  0.00  0.00    +0.005 C 
ATOM     10  C   UNL     1     -12.452   8.308  21.128  0.00  0.00    +0.005 C 
ENDBRANCH  11   8
ENDBRANCH   3  11
ENDBRANCH  16  12
TORSDOF 8
ENDMDL
MODEL 3
REMARK VINA RESULT:      -6.1      1.745      2.024
REMARK  Name = 45783500
REMARK  9 active torsions:
REMARK  status: ('A' for Active; 'I' for Inactive)
REMARK    1  A    between atoms: O_2  and  C_24
REMARK    2  A    between atoms: O_2  and  C_25
REMARK    3  A    between atoms: N_3  and  C_11
REMARK    4  A    between atoms: N_7  and  C_22
REMARK    5  A    between atoms: N_7  and  C_23
REMARK    6  A    between atoms: C_8  and  C_11
REMARK    7  A    between atoms: C_12  and  C_16
REMARK    8  A    between atoms: C_17  and  C_18
REMARK    9  A    between atoms: C_23  and  C_24
REMARK                            x       y       z     vdW  Elec       q    Type
REMARK                         _______ _______ _______ _____ _____    ______ ____
ROOT
ATOM      1  O   UNL     1      16.157   8.629  20.355  0.00  0.00    -0.336 OA
ATOM      4  N   UNL     1      16.580   6.450  20.052  0.00  0.00    -0.190 NA
ATOM      5  N   UNL     1      17.447   8.409  20.855  0.00  0.00    -0.056 NA
ATOM     16  C   UNL     1      15.718   7.425  19.903  0.00  0.00    +0.245 A 
ATOM     17  C   UNL     1      17.624   7.102  20.640  0.00  0.00    +0.204 A 
ENDROOT
BRANCH  17  18
ATOM      6  N   UNL     1      20.609   6.074  22.605  0.00  0.00    -0.240 NA
ATOM     18  C   UNL     1      18.831   6.417  21.003  0.00  0.00    +0.041 A 
ATOM     19  C   UNL     1      19.397   5.467  20.160  0.00  0.00    +0.016 A 
ATOM     20  C   UNL     1      19.471   6.683  22.203  0.00  0.00    +0.124 A 
ATOM     21  C   UNL     1      20.568   4.819  20.539  0.00  0.00    +0.044 A 
ATOM     22  C   UNL     1      21.129   5.156  21.760  0.00  0.00    +0.119 A 
BRANCH  22   7
ATOM      7  N   UNL     1      22.322   4.487  22.132  0.00  0.00    -0.327 N 
ATOM     26  H   UNL     1      23.119   5.073  22.353  0.00  0.00    +0.148 HD
BRANCH   7  23
ATOM     23  C   UNL     1      22.420   3.065  22.194  0.00  0.00    +0.131 C 
BRANCH  23  24
ATOM     24  C   UNL     1      23.457   2.573  21.200  0.00  0.00    +0.178 C 
BRANCH  24   2
ATOM      2  O   UNL     1      24.108   3.687  20.603  0.00  0.00    -0.381 OA
ATOM     25  C   UNL     1      24.936   3.288  19.519  0.00  0.00    +0.194 C 
ENDBRANCH  24   2
ENDBRANCH  23  24
ENDBRANCH   7  23
ENDBRANCH  22   7
ENDBRANCH  17  18
BRANCH  16  12
ATOM      3  N   UNL     1      13.457   8.462  19.835  0.00  0.00    -0.291 NA
ATOM     12  C   UNL     1      14.328   7.395  19.304  0.00  0.00    +0.146 C 
ATOM     13  C   UNL     1      12.502   8.784  18.774  0.00  0.00    +0.085 C 
ATOM     14  C   UNL     1      14.332   7.616  17.780  0.00  0.00    +0.030 C 
ATOM     15  C   UNL     1      13.389   8.788  17.546  0.00  0.00    +0.017 C 
BRANCH   3  11
ATOM     11  C   UNL     1      12.791   8.093  21.078  0.00  0.00    +0.088 C 
BRANCH  11   8
ATOM      8  C   UNL     1      11.527   7.341  20.815  0.00  0.00    +0.003 C 
ATOM      9  C   UNL     1      10.496   7.236  21.900  0.00  0.00    +0.005 C 
ATOM     10  C   UNL     1      11.297   6.029  21.508  0.00  0.00    +0.005 C 
ENDBRANCH  11   8
ENDBRANCH   3  11
ENDBRANCH  16  12
TORSDOF 8
ENDMDL
MODEL 4
REMARK VINA RESULT:      -5.9      2.071      3.636
REMARK  Name = 45783500
REMARK  9 active torsions:
REMARK  status: ('A' for Active; 'I' for Inactive)
REMARK    1  A    between atoms: O_2  and  C_24
REMARK    2  A    between atoms: O_2  and  C_25
REMARK    3  A    between atoms: N_3  and  C_11
REMARK    4  A    between atoms: N_7  and  C_22
REMARK    5  A    between atoms: N_7  and  C_23
REMARK    6  A    between atoms: C_8  and  C_11
REMARK    7  A    between atoms: C_12  and  C_16
REMARK    8  A    between atoms: C_17  and  C_18
REMARK    9  A    between atoms: C_23  and  C_24
REMARK                            x       y       z     vdW  Elec       q    Type
REMARK                         _______ _______ _______ _____ _____    ______ ____
ROOT
ATOM      1  O   UNL     1      15.138   9.829  21.695  0.00  0.00    -0.336 OA
ATOM      4  N   UNL     1      15.094   7.894  20.569  0.00  0.00    -0.190 NA
ATOM      5  N   UNL     1      16.449   9.334  21.719  0.00  0.00    -0.056 NA
ATOM     16  C   UNL     1      14.406   8.921  20.999  0.00  0.00    +0.245 A 
ATOM     17  C   UNL     1      16.342   8.192  21.035  0.00  0.00    +0.204 A 
ENDROOT
BRANCH  17  18
ATOM      6  N   UNL     1      18.417   5.472  19.579  0.00  0.00    -0.240 NA
ATOM     18  C   UNL     1      17.461   7.325  20.801  0.00  0.00    +0.041 A 
ATOM     19  C   UNL     1      18.639   7.466  21.527  0.00  0.00    +0.016 A 
ATOM     20  C   UNL     1      17.401   6.322  19.848  0.00  0.00    +0.124 A 
ATOM     21  C   UNL     1      19.708   6.611  21.278  0.00  0.00    +0.044 A 
ATOM     22  C   UNL     1      19.547   5.639  20.303  0.00  0.00    +0.119 A 
BRANCH  22   7
ATOM      7  N   UNL     1      20.644   4.776  20.061  0.00  0.00    -0.327 N 
ATOM     26  H   UNL     1      20.439   3.908  19.581  0.00  0.00    +0.148 HD
BRANCH   7  23
ATOM     23  C   UNL     1      21.975   5.090  20.467  0.00  0.00    +0.131 C 
BRANCH  23  24
ATOM     24  C   UNL     1      22.635   3.865  21.078  0.00  0.00    +0.178 C 
BRANCH  24   2
ATOM      2  O   UNL     1      21.793   3.329  22.091  0.00  0.00    -0.381 OA
ATOM     25  C   UNL     1      22.537   2.953  23.242  0.00  0.00    +0.194 C 
ENDBRANCH  24   2
ENDBRANCH  23  24
ENDBRANCH   7  23
ENDBRANCH  22   7
ENDBRANCH  17  18
BRANCH  16  12
ATOM      3  N   UNL     1      12.387   8.706  19.560  0.00  0.00    -0.291 NA
ATOM     12  C   UNL     1      12.933   9.229  20.828  0.00  0.00    +0.146 C 
ATOM     13  C   UNL     1      10.973   8.421  19.805  0.00  0.00    +0.085 C 
ATOM     14  C   UNL     1      12.061   8.589  21.924  0.00  0.00    +0.030 C 
ATOM     15  C   UNL     1      11.017   7.773  21.174  0.00  0.00    +0.017 C 
BRANCH   3  11
ATOM     11  C   UNL     1      12.576   9.614  18.435  0.00  0.00    +0.088 C 
BRANCH  11   8
ATOM      8  C   UNL     1      12.704   8.864  17.149  0.00  0.00    +0.003 C 
ATOM      9  C   UNL     1      13.369   9.526  15.977  0.00  0.00    +0.005 C 
ATOM     10  C   UNL     1      11.886   9.294  15.966  0.00  0.00    +0.005 C 
ENDBRANCH  11   8
ENDBRANCH   3  11
ENDBRANCH  16  12
TORSDOF 8
ENDMDL
MODEL 5
REMARK VINA RESULT:      -5.9     16.545     20.234
REMARK  Name = 45783500
REMARK  9 active torsions:
REMARK  status: ('A' for Active; 'I' for Inactive)
REMARK    1  A    between atoms: O_2  and  C_24
REMARK    2  A    between atoms: O_2  and  C_25
REMARK    3  A    between atoms: N_3  and  C_11
REMARK    4  A    between atoms: N_7  and  C_22
REMARK    5  A    between atoms: N_7  and  C_23
REMARK    6  A    between atoms: C_8  and  C_11
REMARK    7  A    between atoms: C_12  and  C_16
REMARK    8  A    between atoms: C_17  and  C_18
REMARK    9  A    between atoms: C_23  and  C_24
REMARK                            x       y       z     vdW  Elec       q    Type
REMARK                         _______ _______ _______ _____ _____    ______ ____
ROOT
ATOM      1  O   UNL     1      11.482   6.579   4.869  0.00  0.00    -0.336 OA
ATOM      4  N   UNL     1      10.089   5.249   3.727  0.00  0.00    -0.190 NA
ATOM      5  N   UNL     1      12.197   6.134   3.749  0.00  0.00    -0.056 NA
ATOM     16  C   UNL     1      10.252   6.011   4.779  0.00  0.00    +0.245 A 
ATOM     17  C   UNL     1      11.309   5.356   3.126  0.00  0.00    +0.204 A 
ENDROOT
BRANCH  17  18
ATOM      6  N   UNL     1      10.899   3.965  -0.298  0.00  0.00    -0.240 NA
ATOM     18  C   UNL     1      11.609   4.669   1.902  0.00  0.00    +0.041 A 
ATOM     19  C   UNL     1      12.842   4.056   1.709  0.00  0.00    +0.016 A 
ATOM     20  C   UNL     1      10.680   4.595   0.877  0.00  0.00    +0.124 A 
ATOM     21  C   UNL     1      13.105   3.398   0.512  0.00  0.00    +0.044 A 
ATOM     22  C   UNL     1      12.108   3.381  -0.450  0.00  0.00    +0.119 A 
BRANCH  22   7
ATOM      7  N   UNL     1      12.391   2.707  -1.664  0.00  0.00    -0.327 N 
ATOM     26  H   UNL     1      12.260   1.702  -1.665  0.00  0.00    +0.148 HD
BRANCH   7  23
ATOM     23  C   UNL     1      12.841   3.386  -2.835  0.00  0.00    +0.131 C 
BRANCH  23  24
ATOM     24  C   UNL     1      11.842   3.194  -3.964  0.00  0.00    +0.178 C 
BRANCH  24   2
ATOM      2  O   UNL     1      10.724   2.457  -3.486  0.00  0.00    -0.381 OA
ATOM     25  C   UNL     1       9.498   3.087  -3.831  0.00  0.00    +0.194 C 
ENDBRANCH  24   2
ENDBRANCH  23  24
ENDBRANCH   7  23
ENDBRANCH  22   7
ENDBRANCH  17  18
BRANCH  16  12
ATOM      3  N   UNL     1       9.917   7.012   7.033  0.00  0.00    -0.291 NA
ATOM     12  C   UNL     1       9.273   6.340   5.887  0.00  0.00    +0.146 C 
ATOM     13  C   UNL     1       8.895   7.866   7.640  0.00  0.00    +0.085 C 
ATOM     14  C   UNL     1       8.167   7.311   5.434  0.00  0.00    +0.030 C 
ATOM     15  C   UNL     1       8.227   8.468   6.421  0.00  0.00    +0.017 C 
BRANCH   3  11
ATOM     11  C   UNL     1      10.496   6.082   7.994  0.00  0.00    +0.088 C 
BRANCH  11   8
ATOM      8  C   UNL     1       9.437   5.416   8.811  0.00  0.00    +0.003 C 
ATOM      9  C   UNL     1       9.813   4.760  10.107  0.00  0.00    +0.005 C 
ATOM     10  C   UNL     1       9.431   3.920   8.924  0.00  0.00    +0.005 C 
ENDBRANCH  11   8
ENDBRANCH   3  11
ENDBRANCH  16  12
TORSDOF 8
ENDMDL
MODEL 6
REMARK VINA RESULT:      -5.8     26.752     30.366
REMARK  Name = 45783500
REMARK  9 active torsions:
REMARK  status: ('A' for Active; 'I' for Inactive)
REMARK    1  A    between atoms: O_2  and  C_24
REMARK    2  A    between atoms: O_2  and  C_25
REMARK    3  A    between atoms: N_3  and  C_11
REMARK    4  A    between atoms: N_7  and  C_22
REMARK    5  A    between atoms: N_7  and  C_23
REMARK    6  A    between atoms: C_8  and  C_11
REMARK    7  A    between atoms: C_12  and  C_16
REMARK    8  A    between atoms: C_17  and  C_18
REMARK    9  A    between atoms: C_23  and  C_24
REMARK                            x       y       z     vdW  Elec       q    Type
REMARK                         _______ _______ _______ _____ _____    ______ ____
ROOT
ATOM      1  O   UNL     1      -9.485 -10.682  19.750  0.00  0.00    -0.336 OA
ATOM      4  N   UNL     1      -8.592  -9.871  17.863  0.00  0.00    -0.190 NA
ATOM      5  N   UNL     1      -8.150 -11.109  19.735  0.00  0.00    -0.056 NA
ATOM     16  C   UNL     1      -9.662  -9.960  18.613  0.00  0.00    +0.245 A 
ATOM     17  C   UNL     1      -7.691 -10.591  18.592  0.00  0.00    +0.204 A 
ENDROOT
BRANCH  17  18
ATOM      6  N   UNL     1      -4.620 -10.312  16.516  0.00  0.00    -0.240 NA
ATOM     18  C   UNL     1      -6.339 -10.776  18.149  0.00  0.00    +0.041 A 
ATOM     19  C   UNL     1      -5.450 -11.564  18.873  0.00  0.00    +0.016 A 
ATOM     20  C   UNL     1      -5.879 -10.178  16.988  0.00  0.00    +0.124 A 
ATOM     21  C   UNL     1      -4.145 -11.725  18.419  0.00  0.00    +0.044 A 
ATOM     22  C   UNL     1      -3.784 -11.084  17.245  0.00  0.00    +0.119 A 
BRANCH  22   7
ATOM      7  N   UNL     1      -2.451 -11.258  16.796  0.00  0.00    -0.327 N 
ATOM     26  H   UNL     1      -1.895 -11.947  17.287  0.00  0.00    +0.148 HD
BRANCH   7  23
ATOM     23  C   UNL     1      -1.899 -10.509  15.714  0.00  0.00    +0.131 C 
BRANCH  23  24
ATOM     24  C   UNL     1      -1.986 -11.314  14.428  0.00  0.00    +0.178 C 
BRANCH  24   2
ATOM      2  O   UNL     1      -2.632 -10.539  13.426  0.00  0.00    -0.381 OA
ATOM     25  C   UNL     1      -1.871 -10.501  12.226  0.00  0.00    +0.194 C 
ENDBRANCH  24   2
ENDBRANCH  23  24
ENDBRANCH   7  23
ENDBRANCH  22   7
ENDBRANCH  17  18
BRANCH  16  12
ATOM      3  N   UNL     1     -11.569  -9.665  17.041  0.00  0.00    -0.291 NA
ATOM     12  C   UNL     1     -11.041  -9.377  18.390  0.00  0.00    +0.146 C 
ATOM     13  C   UNL     1     -13.025  -9.715  17.168  0.00  0.00    +0.085 C 
ATOM     14  C   UNL     1     -12.094  -9.957  19.354  0.00  0.00    +0.030 C 
ATOM     15  C   UNL     1     -13.200 -10.493  18.457  0.00  0.00    +0.017 C 
BRANCH   3  11
ATOM     11  C   UNL     1     -11.139  -8.700  16.038  0.00  0.00    +0.088 C 
BRANCH  11   8
ATOM      8  C   UNL     1     -11.216  -7.302  16.561  0.00  0.00    +0.003 C 
ATOM      9  C   UNL     1     -12.197  -6.343  15.953  0.00  0.00    +0.005 C 
ATOM     10  C   UNL     1     -10.727  -6.171  15.705  0.00  0.00    +0.005 C 
ENDBRANCH  11   8
ENDBRANCH   3  11
ENDBRANCH  16  12
TORSDOF 8
ENDMDL
MODEL 7
REMARK VINA RESULT:      -5.7      2.369      9.460
REMARK  Name = 45783500
REMARK  9 active torsions:
REMARK  status: ('A' for Active; 'I' for Inactive)
REMARK    1  A    between atoms: O_2  and  C_24
REMARK    2  A    between atoms: O_2  and  C_25
REMARK    3  A    between atoms: N_3  and  C_11
REMARK    4  A    between atoms: N_7  and  C_22
REMARK    5  A    between atoms: N_7  and  C_23
REMARK    6  A    between atoms: C_8  and  C_11
REMARK    7  A    between atoms: C_12  and  C_16
REMARK    8  A    between atoms: C_17  and  C_18
REMARK    9  A    between atoms: C_23  and  C_24
REMARK                            x       y       z     vdW  Elec       q    Type
REMARK                         _______ _______ _______ _____ _____    ______ ____
ROOT
ATOM      1  O   UNL     1      20.963   5.901  22.988  0.00  0.00    -0.336 OA
ATOM      4  N   UNL     1      20.672   5.756  20.771  0.00  0.00    -0.190 NA
ATOM      5  N   UNL     1      19.626   6.246  22.746  0.00  0.00    -0.056 NA
ATOM     16  C   UNL     1      21.506   5.628  21.773  0.00  0.00    +0.245 A 
ATOM     17  C   UNL     1      19.532   6.137  21.418  0.00  0.00    +0.204 A 
ENDROOT
BRANCH  17  18
ATOM      6  N   UNL     1      16.827   5.852  18.883  0.00  0.00    -0.240 NA
ATOM     18  C   UNL     1      18.316   6.403  20.706  0.00  0.00    +0.041 A 
ATOM     19  C   UNL     1      17.459   7.423  21.107  0.00  0.00    +0.016 A 
ATOM     20  C   UNL     1      17.957   5.654  19.597  0.00  0.00    +0.124 A 
ATOM     21  C   UNL     1      16.286   7.657  20.398  0.00  0.00    +0.044 A 
ATOM     22  C   UNL     1      16.019   6.851  19.302  0.00  0.00    +0.119 A 
BRANCH  22   7
ATOM      7  N   UNL     1      14.820   7.102  18.590  0.00  0.00    -0.327 N 
ATOM     26  H   UNL     1      14.874   7.044  17.580  0.00  0.00    +0.148 HD
BRANCH   7  23
ATOM     23  C   UNL     1      13.592   7.426  19.239  0.00  0.00    +0.131 C 
BRANCH  23  24
ATOM     24  C   UNL     1      13.064   8.753  18.721  0.00  0.00    +0.178 C 
BRANCH  24   2
ATOM      2  O   UNL     1      12.225   9.346  19.704  0.00  0.00    -0.381 OA
ATOM     25  C   UNL     1      11.106   8.521  20.000  0.00  0.00    +0.194 C 
ENDBRANCH  24   2
ENDBRANCH  23  24
ENDBRANCH   7  23
ENDBRANCH  22   7
ENDBRANCH  17  18
BRANCH  16  12
ATOM      3  N   UNL     1      23.269   4.222  20.718  0.00  0.00    -0.291 NA
ATOM     12  C   UNL     1      22.965   5.222  21.762  0.00  0.00    +0.146 C 
ATOM     13  C   UNL     1      24.663   4.436  20.333  0.00  0.00    +0.085 C 
ATOM     14  C   UNL     1      23.907   6.402  21.459  0.00  0.00    +0.030 C 
ATOM     15  C   UNL     1      24.742   5.948  20.269  0.00  0.00    +0.017 C 
BRANCH   3  11
ATOM     11  C   UNL     1      23.023   2.851  21.148  0.00  0.00    +0.088 C 
BRANCH  11   8
ATOM      8  C   UNL     1      24.208   2.284  21.858  0.00  0.00    +0.003 C 
ATOM      9  C   UNL     1      24.589   0.851  21.624  0.00  0.00    +0.005 C 
ATOM     10  C   UNL     1      23.997   1.265  22.939  0.00  0.00    +0.005 C 
ENDBRANCH  11   8
ENDBRANCH   3  11
ENDBRANCH  16  12
TORSDOF 8
ENDMDL
MODEL 8
REMARK VINA RESULT:      -5.6     26.944     29.671
REMARK  Name = 45783500
REMARK  9 active torsions:
REMARK  status: ('A' for Active; 'I' for Inactive)
REMARK    1  A    between atoms: O_2  and  C_24
REMARK    2  A    between atoms: O_2  and  C_25
REMARK    3  A    between atoms: N_3  and  C_11
REMARK    4  A    between atoms: N_7  and  C_22
REMARK    5  A    between atoms: N_7  and  C_23
REMARK    6  A    between atoms: C_8  and  C_11
REMARK    7  A    between atoms: C_12  and  C_16
REMARK    8  A    between atoms: C_17  and  C_18
REMARK    9  A    between atoms: C_23  and  C_24
REMARK                            x       y       z     vdW  Elec       q    Type
REMARK                         _______ _______ _______ _____ _____    ______ ____
ROOT
ATOM      1  O   UNL     1      -2.121 -10.682  14.599  0.00  0.00    -0.336 OA
ATOM      4  N   UNL     1      -4.343 -10.655  14.315  0.00  0.00    -0.190 NA
ATOM      5  N   UNL     1      -2.679 -10.632  15.884  0.00  0.00    -0.056 NA
ATOM     16  C   UNL     1      -3.169 -10.692  13.735  0.00  0.00    +0.245 A 
ATOM     17  C   UNL     1      -3.991 -10.619  15.633  0.00  0.00    +0.204 A 
ENDROOT
BRANCH  17  18
ATOM      6  N   UNL     1      -7.211  -9.973  17.376  0.00  0.00    -0.240 NA
ATOM     18  C   UNL     1      -4.975 -10.568  16.675  0.00  0.00    +0.041 A 
ATOM     19  C   UNL     1      -4.690 -11.035  17.954  0.00  0.00    +0.016 A 
ATOM     20  C   UNL     1      -6.239 -10.050  16.440  0.00  0.00    +0.124 A 
ATOM     21  C   UNL     1      -5.665 -10.973  18.943  0.00  0.00    +0.044 A 
ATOM     22  C   UNL     1      -6.898 -10.437  18.606  0.00  0.00    +0.119 A 
BRANCH  22   7
ATOM      7  N   UNL     1      -7.881 -10.380  19.626  0.00  0.00    -0.327 N 
ATOM     26  H   UNL     1      -7.717  -9.719  20.375  0.00  0.00    +0.148 HD
BRANCH   7  23
ATOM     23  C   UNL     1      -9.044 -11.206  19.620  0.00  0.00    +0.131 C 
BRANCH  23  24
ATOM     24  C   UNL     1     -10.285 -10.356  19.838  0.00  0.00    +0.178 C 
BRANCH  24   2
ATOM      2  O   UNL     1     -10.664  -9.747  18.610  0.00  0.00    -0.381 OA
ATOM     25  C   UNL     1     -12.068  -9.536  18.545  0.00  0.00    +0.194 C 
ENDBRANCH  24   2
ENDBRANCH  23  24
ENDBRANCH   7  23
ENDBRANCH  22   7
ENDBRANCH  17  18
BRANCH  16  12
ATOM      3  N   UNL     1      -3.792 -10.001  11.427  0.00  0.00    -0.291 NA
ATOM     12  C   UNL     1      -2.828 -10.746  12.261  0.00  0.00    +0.146 C 
ATOM     13  C   UNL     1      -3.051  -9.530  10.257  0.00  0.00    +0.085 C 
ATOM     14  C   UNL     1      -1.462 -10.110  11.943  0.00  0.00    +0.030 C 
ATOM     15  C   UNL     1      -1.751  -9.061  10.879  0.00  0.00    +0.017 C 
BRANCH   3  11
ATOM     11  C   UNL     1      -4.960 -10.789  11.055  0.00  0.00    +0.088 C 
BRANCH  11   8
ATOM      8  C   UNL     1      -6.183  -9.936  10.959  0.00  0.00    +0.003 C 
ATOM      9  C   UNL     1      -6.485  -8.960  12.058  0.00  0.00    +0.005 C 
ATOM     10  C   UNL     1      -7.329 -10.190  11.894  0.00  0.00    +0.005 C 
ENDBRANCH  11   8
ENDBRANCH   3  11
ENDBRANCH  16  12
TORSDOF 8
ENDMDL
MODEL 9
REMARK VINA RESULT:      -5.5     28.974     31.294
REMARK  Name = 45783500
REMARK  9 active torsions:
REMARK  status: ('A' for Active; 'I' for Inactive)
REMARK    1  A    between atoms: O_2  and  C_24
REMARK    2  A    between atoms: O_2  and  C_25
REMARK    3  A    between atoms: N_3  and  C_11
REMARK    4  A    between atoms: N_7  and  C_22
REMARK    5  A    between atoms: N_7  and  C_23
REMARK    6  A    between atoms: C_8  and  C_11
REMARK    7  A    between atoms: C_12  and  C_16
REMARK    8  A    between atoms: C_17  and  C_18
REMARK    9  A    between atoms: C_23  and  C_24
REMARK                            x       y       z     vdW  Elec       q    Type
REMARK                         _______ _______ _______ _____ _____    ______ ____
ROOT
ATOM      1  O   UNL     1     -13.112   9.536  18.998  0.00  0.00    -0.336 OA
ATOM      4  N   UNL     1     -12.051   7.652  19.582  0.00  0.00    -0.190 NA
ATOM      5  N   UNL     1     -14.032   8.783  19.739  0.00  0.00    -0.056 NA
ATOM     16  C   UNL     1     -11.972   8.798  18.953  0.00  0.00    +0.245 A 
ATOM     17  C   UNL     1     -13.333   7.688  20.047  0.00  0.00    +0.204 A 
ENDROOT
BRANCH  17  18
ATOM      6  N   UNL     1     -15.775   5.190  21.320  0.00  0.00    -0.240 NA
ATOM     18  C   UNL     1     -13.886   6.611  20.817  0.00  0.00    +0.041 A 
ATOM     19  C   UNL     1     -13.125   5.952  21.777  0.00  0.00    +0.016 A 
ATOM     20  C   UNL     1     -15.194   6.196  20.630  0.00  0.00    +0.124 A 
ATOM     21  C   UNL     1     -13.688   4.911  22.507  0.00  0.00    +0.044 A 
ATOM     22  C   UNL     1     -15.005   4.573  22.244  0.00  0.00    +0.119 A 
BRANCH  22   7
ATOM      7  N   UNL     1     -15.565   3.510  22.996  0.00  0.00    -0.327 N 
ATOM     26  H   UNL     1     -15.855   2.691  22.476  0.00  0.00    +0.148 HD
BRANCH   7  23
ATOM     23  C   UNL     1     -15.725   3.571  24.413  0.00  0.00    +0.131 C 
BRANCH  23  24
ATOM     24  C   UNL     1     -16.847   2.645  24.849  0.00  0.00    +0.178 C 
BRANCH  24   2
ATOM      2  O   UNL     1     -16.308   1.374  25.190  0.00  0.00    -0.381 OA
ATOM     25  C   UNL     1     -16.910   0.850  26.366  0.00  0.00    +0.194 C 
ENDBRANCH  24   2
ENDBRANCH  23  24
ENDBRANCH   7  23
ENDBRANCH  22   7
ENDBRANCH  17  18
BRANCH  16  12
ATOM      3  N   UNL     1     -11.064   9.514  16.749  0.00  0.00    -0.291 NA
ATOM     12  C   UNL     1     -10.806   9.401  18.199  0.00  0.00    +0.146 C 
ATOM     13  C   UNL     1     -10.287  10.661  16.279  0.00  0.00    +0.085 C 
ATOM     14  C   UNL     1     -10.483  10.837  18.652  0.00  0.00    +0.030 C 
ATOM     15  C   UNL     1     -10.525  11.673  17.381  0.00  0.00    +0.017 C 
BRANCH   3  11
ATOM     11  C   UNL     1     -10.746   8.298  16.012  0.00  0.00    +0.088 C 
BRANCH  11   8
ATOM      8  C   UNL     1     -10.792   8.529  14.537  0.00  0.00    +0.003 C 
ATOM      9  C   UNL     1     -11.703   7.691  13.690  0.00  0.00    +0.005 C 
ATOM     10  C   UNL     1     -10.218   7.494  13.614  0.00  0.00    +0.005 C 
ENDBRANCH  11   8
ENDBRANCH   3  11
ENDBRANCH  16  12
TORSDOF 8
ENDMDL
MODEL 10
REMARK VINA RESULT:      -5.5     27.753     29.772
REMARK  Name = 45783500
REMARK  9 active torsions:
REMARK  status: ('A' for Active; 'I' for Inactive)
REMARK    1  A    between atoms: O_2  and  C_24
REMARK    2  A    between atoms: O_2  and  C_25
REMARK    3  A    between atoms: N_3  and  C_11
REMARK    4  A    between atoms: N_7  and  C_22
REMARK    5  A    between atoms: N_7  and  C_23
REMARK    6  A    between atoms: C_8  and  C_11
REMARK    7  A    between atoms: C_12  and  C_16
REMARK    8  A    between atoms: C_17  and  C_18
REMARK    9  A    between atoms: C_23  and  C_24
REMARK                            x       y       z     vdW  Elec       q    Type
REMARK                         _______ _______ _______ _____ _____    ______ ____
ROOT
ATOM      1  O   UNL     1      -2.100 -10.593  12.938  0.00  0.00    -0.336 OA
ATOM      4  N   UNL     1      -4.322 -10.599  13.223  0.00  0.00    -0.190 NA
ATOM      5  N   UNL     1      -2.316 -10.595  14.322  0.00  0.00    -0.056 NA
ATOM     16  C   UNL     1      -3.333 -10.595  12.366  0.00  0.00    +0.245 A 
ATOM     17  C   UNL     1      -3.649 -10.599  14.410  0.00  0.00    +0.204 A 
ENDROOT
BRANCH  17  18
ATOM      6  N   UNL     1      -4.412 -11.295  17.982  0.00  0.00    -0.240 NA
ATOM     18  C   UNL     1      -4.339 -10.602  15.668  0.00  0.00    +0.041 A 
ATOM     19  C   UNL     1      -5.559  -9.949  15.817  0.00  0.00    +0.016 A 
ATOM     20  C   UNL     1      -3.814 -11.255  16.771  0.00  0.00    +0.124 A 
ATOM     21  C   UNL     1      -6.204  -9.969  17.049  0.00  0.00    +0.044 A 
ATOM     22  C   UNL     1      -5.595 -10.650  18.090  0.00  0.00    +0.119 A 
BRANCH  22   7
ATOM      7  N   UNL     1      -6.265 -10.660  19.338  0.00  0.00    -0.327 N 
ATOM     26  H   UNL     1      -6.286  -9.785  19.847  0.00  0.00    +0.148 HD
BRANCH   7  23
ATOM     23  C   UNL     1      -6.881 -11.832  19.872  0.00  0.00    +0.131 C 
BRANCH  23  24
ATOM     24  C   UNL     1      -8.332 -11.903  19.427  0.00  0.00    +0.178 C 
BRANCH  24   2
ATOM      2  O   UNL     1      -9.081 -10.892  20.091  0.00  0.00    -0.381 OA
ATOM     25  C   UNL     1     -10.471 -11.186  20.086  0.00  0.00    +0.194 C 
ENDBRANCH  24   2
ENDBRANCH  23  24
ENDBRANCH   7  23
ENDBRANCH  22   7
ENDBRANCH  17  18
BRANCH  16  12
ATOM      3  N   UNL     1      -4.740 -10.778  10.321  0.00  0.00    -0.291 NA
ATOM     12  C   UNL     1      -3.374 -10.593  10.852  0.00  0.00    +0.146 C 
ATOM     13  C   UNL     1      -4.780 -10.086   9.033  0.00  0.00    +0.085 C 
ATOM     14  C   UNL     1      -2.896  -9.261  10.245  0.00  0.00    +0.030 C 
ATOM     15  C   UNL     1      -4.033  -8.805   9.343  0.00  0.00    +0.017 C 
BRANCH   3  11
ATOM     11  C   UNL     1      -5.126 -12.179  10.203  0.00  0.00    +0.088 C 
BRANCH  11   8
ATOM      8  C   UNL     1      -4.026 -12.997   9.608  0.00  0.00    +0.003 C 
ATOM      9  C   UNL     1      -4.326 -13.889   8.439  0.00  0.00    +0.005 C 
ATOM     10  C   UNL     1      -4.042 -14.487   9.786  0.00  0.00    +0.005 C 
ENDBRANCH  11   8
ENDBRANCH   3  11
ENDBRANCH  16  12
TORSDOF 8
ENDMDL
