MODEL 1
REMARK VINA RESULT:      -8.0      0.000      0.000
REMARK  Name = 45783581
REMARK  6 active torsions:
REMARK  status: ('A' for Active; 'I' for Inactive)
REMARK    1  A    between atoms: O_2  and  C_12
REMARK    2  A    between atoms: O_2  and  C_24
REMARK    3  A    between atoms: N_4  and  C_13
REMARK    4  A    between atoms: C_8  and  C_19
REMARK    5  A    between atoms: C_13  and  C_20
REMARK    6  A    between atoms: C_21  and  C_25
REMARK                            x       y       z     vdW  Elec       q    Type
REMARK                         _______ _______ _______ _____ _____    ______ ____
ROOT
ATOM      3  O   UNL     1      15.349   8.532  19.954  0.00  0.00    -0.336 OA
ATOM      5  N   UNL     1      16.218   6.591  19.250  0.00  0.00    -0.190 NA
ATOM      6  N   UNL     1      16.561   8.376  20.639  0.00  0.00    -0.056 NA
ATOM     19  C   UNL     1      15.224   7.438  19.158  0.00  0.00    +0.245 A 
ATOM     21  C   UNL     1      17.014   7.210  20.170  0.00  0.00    +0.204 A 
ENDROOT
BRANCH  21  25
ATOM      7  N   UNL     1      20.074   6.603  22.191  0.00  0.00    -0.221 NA
ATOM     24  C   UNL     1      20.616   5.590  21.479  0.00  0.00    +0.215 A 
ATOM     25  C   UNL     1      18.253   6.634  20.601  0.00  0.00    +0.041 A 
ATOM     26  C   UNL     1      20.047   5.054  20.336  0.00  0.00    +0.068 A 
ATOM     29  C   UNL     1      18.842   5.591  19.895  0.00  0.00    +0.018 A 
ATOM     30  C   UNL     1      18.903   7.100  21.733  0.00  0.00    +0.126 A 
BRANCH  24   2
ATOM      2  O   UNL     1      21.803   5.077  21.934  0.00  0.00    -0.473 OA
BRANCH   2  12
ATOM     12  C   UNL     1      22.516   4.226  21.043  0.00  0.00    +0.175 C 
ATOM     14  C   UNL     1      22.818   2.897  21.734  0.00  0.00    +0.044 C 
ATOM     15  C   UNL     1      23.794   4.925  20.581  0.00  0.00    +0.044 C 
ATOM     16  C   UNL     1      23.667   1.987  20.852  0.00  0.00    +0.004 C 
ATOM     17  C   UNL     1      24.644   4.013  19.700  0.00  0.00    +0.004 C 
ATOM     18  C   UNL     1      24.943   2.684  20.389  0.00  0.00    +0.000 C 
ENDBRANCH   2  12
ENDBRANCH  24   2
ENDBRANCH  21  25
BRANCH  19   8
ATOM      4  N   UNL     1      12.897   8.244  18.797  0.00  0.00    -0.287 NA
ATOM      8  C   UNL     1      13.978   7.367  18.301  0.00  0.00    +0.146 C 
ATOM      9  C   UNL     1      14.224   7.832  16.853  0.00  0.00    +0.030 C 
ATOM     10  C   UNL     1      13.197   8.927  16.607  0.00  0.00    +0.017 C 
ATOM     11  C   UNL     1      12.114   8.637  17.625  0.00  0.00    +0.085 C 
BRANCH   4  13
ATOM     13  C   UNL     1      12.074   7.616  19.823  0.00  0.00    +0.120 C 
BRANCH  13  20
ATOM      1  F   UNL     1      10.538  11.285  23.814  0.00  0.00    -0.205 F 
ATOM     20  C   UNL     1      11.664   8.596  20.889  0.00  0.00    -0.033 A 
ATOM     22  C   UNL     1      10.922   8.162  21.987  0.00  0.00    +0.008 A 
ATOM     23  C   UNL     1      12.024   9.940  20.778  0.00  0.00    +0.008 A 
ATOM     27  C   UNL     1      10.541   9.070  22.975  0.00  0.00    +0.038 A 
ATOM     28  C   UNL     1      11.644  10.848  21.766  0.00  0.00    +0.038 A 
ATOM     31  C   UNL     1      10.902  10.412  22.865  0.00  0.00    +0.123 A 
ENDBRANCH  13  20
ENDBRANCH   4  13
ENDBRANCH  19   8
TORSDOF 6
ENDMDL
MODEL 2
REMARK VINA RESULT:      -7.7     30.210     33.464
REMARK  Name = 45783581
REMARK  6 active torsions:
REMARK  status: ('A' for Active; 'I' for Inactive)
REMARK    1  A    between atoms: O_2  and  C_12
REMARK    2  A    between atoms: O_2  and  C_24
REMARK    3  A    between atoms: N_4  and  C_13
REMARK    4  A    between atoms: C_8  and  C_19
REMARK    5  A    between atoms: C_13  and  C_20
REMARK    6  A    between atoms: C_21  and  C_25
REMARK                            x       y       z     vdW  Elec       q    Type
REMARK                         _______ _______ _______ _____ _____    ______ ____
ROOT
ATOM      3  O   UNL     1     -17.541   2.297  22.264  0.00  0.00    -0.336 OA
ATOM      5  N   UNL     1     -17.233   3.860  23.838  0.00  0.00    -0.190 NA
ATOM      6  N   UNL     1     -17.226   1.607  23.442  0.00  0.00    -0.056 NA
ATOM     19  C   UNL     1     -17.523   3.617  22.585  0.00  0.00    +0.245 A 
ATOM     21  C   UNL     1     -17.060   2.597  24.324  0.00  0.00    +0.204 A 
ENDROOT
BRANCH  21  25
ATOM      7  N   UNL     1     -16.580   0.816  27.552  0.00  0.00    -0.221 NA
ATOM     24  C   UNL     1     -16.092   1.831  28.298  0.00  0.00    +0.215 A 
ATOM     25  C   UNL     1     -16.718   2.358  25.695  0.00  0.00    +0.041 A 
ATOM     26  C   UNL     1     -15.893   3.117  27.823  0.00  0.00    +0.068 A 
ATOM     29  C   UNL     1     -16.214   3.377  26.495  0.00  0.00    +0.018 A 
ATOM     30  C   UNL     1     -16.881   1.106  26.265  0.00  0.00    +0.126 A 
BRANCH  24   2
ATOM      2  O   UNL     1     -15.783   1.549  29.603  0.00  0.00    -0.473 OA
BRANCH   2  12
ATOM     12  C   UNL     1     -15.088   2.557  30.329  0.00  0.00    +0.175 C 
ATOM     14  C   UNL     1     -13.933   1.926  31.106  0.00  0.00    +0.044 C 
ATOM     15  C   UNL     1     -16.062   3.284  31.256  0.00  0.00    +0.044 C 
ATOM     16  C   UNL     1     -13.217   2.954  31.978  0.00  0.00    +0.004 C 
ATOM     17  C   UNL     1     -15.345   4.311  32.128  0.00  0.00    +0.004 C 
ATOM     18  C   UNL     1     -14.190   3.682  32.903  0.00  0.00    +0.000 C 
ENDBRANCH   2  12
ENDBRANCH  24   2
ENDBRANCH  21  25
BRANCH  19   8
ATOM      4  N   UNL     1     -16.621   5.176  20.868  0.00  0.00    -0.287 NA
ATOM      8  C   UNL     1     -17.837   4.588  21.466  0.00  0.00    +0.146 C 
ATOM      9  C   UNL     1     -18.567   3.919  20.286  0.00  0.00    +0.030 C 
ATOM     10  C   UNL     1     -17.721   4.237  19.063  0.00  0.00    +0.017 C 
ATOM     11  C   UNL     1     -16.949   5.473  19.474  0.00  0.00    +0.085 C 
BRANCH   4  13
ATOM     13  C   UNL     1     -16.141   6.352  21.582  0.00  0.00    +0.120 C 
BRANCH  13  20
ATOM      1  F   UNL     1     -10.714   7.403  20.487  0.00  0.00    -0.205 F 
ATOM     20  C   UNL     1     -14.692   6.632  21.289  0.00  0.00    -0.033 A 
ATOM     22  C   UNL     1     -13.709   5.739  21.714  0.00  0.00    +0.008 A 
ATOM     23  C   UNL     1     -14.330   7.787  20.594  0.00  0.00    +0.008 A 
ATOM     27  C   UNL     1     -12.365   5.999  21.444  0.00  0.00    +0.038 A 
ATOM     28  C   UNL     1     -12.987   8.047  20.323  0.00  0.00    +0.038 A 
ATOM     31  C   UNL     1     -12.005   7.152  20.748  0.00  0.00    +0.123 A 
ENDBRANCH  13  20
ENDBRANCH   4  13
ENDBRANCH  19   8
TORSDOF 6
ENDMDL
MODEL 3
REMARK VINA RESULT:      -7.3     27.208     30.987
REMARK  Name = 45783581
REMARK  6 active torsions:
REMARK  status: ('A' for Active; 'I' for Inactive)
REMARK    1  A    between atoms: O_2  and  C_12
REMARK    2  A    between atoms: O_2  and  C_24
REMARK    3  A    between atoms: N_4  and  C_13
REMARK    4  A    between atoms: C_8  and  C_19
REMARK    5  A    between atoms: C_13  and  C_20
REMARK    6  A    between atoms: C_21  and  C_25
REMARK                            x       y       z     vdW  Elec       q    Type
REMARK                         _______ _______ _______ _____ _____    ______ ____
ROOT
ATOM      3  O   UNL     1      -4.354 -13.232  15.377  0.00  0.00    -0.336 OA
ATOM      5  N   UNL     1      -4.532 -11.293  16.483  0.00  0.00    -0.190 NA
ATOM      6  N   UNL     1      -5.538 -13.315  16.122  0.00  0.00    -0.056 NA
ATOM     19  C   UNL     1      -3.825 -12.010  15.647  0.00  0.00    +0.245 A 
ATOM     21  C   UNL     1      -5.574 -12.134  16.746  0.00  0.00    +0.204 A 
ENDROOT
BRANCH  21  25
ATOM      7  N   UNL     1      -7.403 -11.445  19.907  0.00  0.00    -0.221 NA
ATOM     24  C   UNL     1      -8.601 -11.081  19.399  0.00  0.00    +0.215 A 
ATOM     25  C   UNL     1      -6.632 -11.766  17.639  0.00  0.00    +0.041 A 
ATOM     26  C   UNL     1      -8.888 -11.036  18.044  0.00  0.00    +0.068 A 
ATOM     29  C   UNL     1      -7.879 -11.386  17.154  0.00  0.00    +0.018 A 
ATOM     30  C   UNL     1      -6.447 -11.779  19.012  0.00  0.00    +0.126 A 
BRANCH  24   2
ATOM      2  O   UNL     1      -9.579 -10.740  20.297  0.00  0.00    -0.473 OA
BRANCH   2  12
ATOM     12  C   UNL     1     -10.920 -11.048  19.930  0.00  0.00    +0.175 C 
ATOM     14  C   UNL     1     -11.854  -9.947  20.432  0.00  0.00    +0.044 C 
ATOM     15  C   UNL     1     -11.304 -12.414  20.495  0.00  0.00    +0.044 C 
ATOM     16  C   UNL     1     -13.315 -10.280  20.148  0.00  0.00    +0.004 C 
ATOM     17  C   UNL     1     -12.767 -12.747  20.212  0.00  0.00    +0.004 C 
ATOM     18  C   UNL     1     -13.700 -11.646  20.710  0.00  0.00    +0.000 C 
ENDBRANCH   2  12
ENDBRANCH  24   2
ENDBRANCH  21  25
BRANCH  19   8
ATOM      4  N   UNL     1      -2.695 -10.672  13.880  0.00  0.00    -0.287 NA
ATOM      8  C   UNL     1      -2.522 -11.671  14.953  0.00  0.00    +0.146 C 
ATOM      9  C   UNL     1      -1.486 -11.046  15.906  0.00  0.00    +0.030 C 
ATOM     10  C   UNL     1      -1.091  -9.729  15.255  0.00  0.00    +0.017 C 
ATOM     11  C   UNL     1      -1.433  -9.936  13.794  0.00  0.00    +0.085 C 
BRANCH   4  13
ATOM     13  C   UNL     1      -3.075 -11.261  12.602  0.00  0.00    +0.120 C 
BRANCH  13  20
ATOM      1  F   UNL     1      -5.768  -7.568   9.306  0.00  0.00    -0.205 F 
ATOM     20  C   UNL     1      -3.794 -10.275  11.722  0.00  0.00    -0.033 A 
ATOM     22  C   UNL     1      -5.040  -9.778  12.104  0.00  0.00    +0.008 A 
ATOM     23  C   UNL     1      -3.215  -9.857  10.523  0.00  0.00    +0.008 A 
ATOM     27  C   UNL     1      -5.707  -8.864  11.288  0.00  0.00    +0.038 A 
ATOM     28  C   UNL     1      -3.882  -8.943   9.707  0.00  0.00    +0.038 A 
ATOM     31  C   UNL     1      -5.128  -8.447  10.090  0.00  0.00    +0.123 A 
ENDBRANCH  13  20
ENDBRANCH   4  13
ENDBRANCH  19   8
TORSDOF 6
ENDMDL
MODEL 4
REMARK VINA RESULT:      -7.3     28.977     32.925
REMARK  Name = 45783581
REMARK  6 active torsions:
REMARK  status: ('A' for Active; 'I' for Inactive)
REMARK    1  A    between atoms: O_2  and  C_12
REMARK    2  A    between atoms: O_2  and  C_24
REMARK    3  A    between atoms: N_4  and  C_13
REMARK    4  A    between atoms: C_8  and  C_19
REMARK    5  A    between atoms: C_13  and  C_20
REMARK    6  A    between atoms: C_21  and  C_25
REMARK                            x       y       z     vdW  Elec       q    Type
REMARK                         _______ _______ _______ _____ _____    ______ ____
ROOT
ATOM      3  O   UNL     1     -16.833   1.809  23.933  0.00  0.00    -0.336 OA
ATOM      5  N   UNL     1     -15.672   3.527  24.779  0.00  0.00    -0.190 NA
ATOM      6  N   UNL     1     -16.538   2.650  22.852  0.00  0.00    -0.056 NA
ATOM     19  C   UNL     1     -16.288   2.399  25.029  0.00  0.00    +0.245 A 
ATOM     21  C   UNL     1     -15.851   3.639  23.431  0.00  0.00    +0.204 A 
ENDROOT
BRANCH  21  25
ATOM      7  N   UNL     1     -15.749   6.639  21.239  0.00  0.00    -0.221 NA
ATOM     24  C   UNL     1     -14.422   6.889  21.261  0.00  0.00    +0.215 A 
ATOM     25  C   UNL     1     -15.335   4.753  22.693  0.00  0.00    +0.041 A 
ATOM     26  C   UNL     1     -13.501   6.128  21.964  0.00  0.00    +0.068 A 
ATOM     29  C   UNL     1     -13.974   5.042  22.691  0.00  0.00    +0.018 A 
ATOM     30  C   UNL     1     -16.173   5.575  21.957  0.00  0.00    +0.126 A 
BRANCH  24   2
ATOM      2  O   UNL     1     -13.980   7.965  20.537  0.00  0.00    -0.473 OA
BRANCH   2  12
ATOM     12  C   UNL     1     -12.636   7.915  20.070  0.00  0.00    +0.175 C 
ATOM     14  C   UNL     1     -11.908   9.199  20.465  0.00  0.00    +0.044 C 
ATOM     15  C   UNL     1     -12.627   7.704  18.557  0.00  0.00    +0.044 C 
ATOM     16  C   UNL     1     -10.490   9.235  19.902  0.00  0.00    +0.004 C 
ATOM     17  C   UNL     1     -11.209   7.741  17.994  0.00  0.00    +0.004 C 
ATOM     18  C   UNL     1     -10.480   9.023  18.391  0.00  0.00    +0.000 C 
ENDBRANCH   2  12
ENDBRANCH  24   2
ENDBRANCH  21  25
BRANCH  19   8
ATOM      4  N   UNL     1     -16.851   2.586  27.446  0.00  0.00    -0.287 NA
ATOM      8  C   UNL     1     -16.471   1.675  26.346  0.00  0.00    +0.146 C 
ATOM      9  C   UNL     1     -17.601   0.630  26.298  0.00  0.00    +0.030 C 
ATOM     10  C   UNL     1     -18.532   0.997  27.443  0.00  0.00    +0.017 C 
ATOM     11  C   UNL     1     -17.649   1.794  28.381  0.00  0.00    +0.085 C 
BRANCH   4  13
ATOM     13  C   UNL     1     -15.706   3.212  28.094  0.00  0.00    +0.120 C 
BRANCH  13  20
ATOM      1  F   UNL     1     -14.679   0.970  33.161  0.00  0.00    -0.205 F 
ATOM     20  C   UNL     1     -15.432   2.613  29.447  0.00  0.00    -0.033 A 
ATOM     22  C   UNL     1     -15.720   3.339  30.603  0.00  0.00    +0.008 A 
ATOM     23  C   UNL     1     -14.889   1.331  29.547  0.00  0.00    +0.008 A 
ATOM     27  C   UNL     1     -15.465   2.785  31.857  0.00  0.00    +0.038 A 
ATOM     28  C   UNL     1     -14.634   0.777  30.801  0.00  0.00    +0.038 A 
ATOM     31  C   UNL     1     -14.923   1.504  31.956  0.00  0.00    +0.123 A 
ENDBRANCH  13  20
ENDBRANCH   4  13
ENDBRANCH  19   8
TORSDOF 6
ENDMDL
MODEL 5
REMARK VINA RESULT:      -7.2     27.534     30.292
REMARK  Name = 45783581
REMARK  6 active torsions:
REMARK  status: ('A' for Active; 'I' for Inactive)
REMARK    1  A    between atoms: O_2  and  C_12
REMARK    2  A    between atoms: O_2  and  C_24
REMARK    3  A    between atoms: N_4  and  C_13
REMARK    4  A    between atoms: C_8  and  C_19
REMARK    5  A    between atoms: C_13  and  C_20
REMARK    6  A    between atoms: C_21  and  C_25
REMARK                            x       y       z     vdW  Elec       q    Type
REMARK                         _______ _______ _______ _____ _____    ______ ____
ROOT
ATOM      3  O   UNL     1      -6.605 -11.686  20.277  0.00  0.00    -0.336 OA
ATOM      5  N   UNL     1      -7.176 -12.266  18.191  0.00  0.00    -0.190 NA
ATOM      6  N   UNL     1      -5.480 -11.433  19.480  0.00  0.00    -0.056 NA
ATOM     19  C   UNL     1      -7.557 -12.174  19.440  0.00  0.00    +0.245 A 
ATOM     21  C   UNL     1      -5.896 -11.799  18.265  0.00  0.00    +0.204 A 
ENDROOT
BRANCH  21  25
ATOM      7  N   UNL     1      -4.421 -12.597  14.947  0.00  0.00    -0.221 NA
ATOM     24  C   UNL     1      -3.494 -11.617  14.872  0.00  0.00    +0.215 A 
ATOM     25  C   UNL     1      -5.057 -11.715  17.106  0.00  0.00    +0.041 A 
ATOM     26  C   UNL     1      -3.290 -10.665  15.857  0.00  0.00    +0.068 A 
ATOM     29  C   UNL     1      -4.091 -10.721  16.992  0.00  0.00    +0.018 A 
ATOM     30  C   UNL     1      -5.182 -12.621  16.065  0.00  0.00    +0.126 A 
BRANCH  24   2
ATOM      2  O   UNL     1      -2.718 -11.583  13.743  0.00  0.00    -0.473 OA
BRANCH   2  12
ATOM     12  C   UNL     1      -2.897 -10.468  12.876  0.00  0.00    +0.175 C 
ATOM     14  C   UNL     1      -4.226 -10.603  12.134  0.00  0.00    +0.044 C 
ATOM     15  C   UNL     1      -1.717 -10.377  11.909  0.00  0.00    +0.044 C 
ATOM     16  C   UNL     1      -4.418  -9.480  11.120  0.00  0.00    +0.004 C 
ATOM     17  C   UNL     1      -1.911  -9.254  10.894  0.00  0.00    +0.004 C 
ATOM     18  C   UNL     1      -3.239  -9.387  10.154  0.00  0.00    +0.000 C 
ENDBRANCH   2  12
ENDBRANCH  24   2
ENDBRANCH  21  25
BRANCH  19   8
ATOM      4  N   UNL     1     -10.034 -11.978  19.318  0.00  0.00    -0.287 NA
ATOM      8  C   UNL     1      -8.888 -12.531  20.068  0.00  0.00    +0.146 C 
ATOM      9  C   UNL     1      -9.141 -14.050  20.103  0.00  0.00    +0.030 C 
ATOM     10  C   UNL     1     -10.479 -14.246  19.405  0.00  0.00    +0.017 C 
ATOM     11  C   UNL     1     -11.152 -12.896  19.536  0.00  0.00    +0.085 C 
BRANCH   4  13
ATOM     13  C   UNL     1     -10.365 -10.611  19.700  0.00  0.00    +0.120 C 
BRANCH  13  20
ATOM      1  F   UNL     1     -10.433  -7.149  15.255  0.00  0.00    -0.205 F 
ATOM     20  C   UNL     1     -10.383  -9.686  18.513  0.00  0.00    -0.033 A 
ATOM     22  C   UNL     1     -11.588  -9.141  18.072  0.00  0.00    +0.008 A 
ATOM     23  C   UNL     1      -9.194  -9.374  17.852  0.00  0.00    +0.008 A 
ATOM     27  C   UNL     1     -11.606  -8.284  16.972  0.00  0.00    +0.038 A 
ATOM     28  C   UNL     1      -9.211  -8.518  16.752  0.00  0.00    +0.038 A 
ATOM     31  C   UNL     1     -10.417  -7.973  16.312  0.00  0.00    +0.123 A 
ENDBRANCH  13  20
ENDBRANCH   4  13
ENDBRANCH  19   8
TORSDOF 6
ENDMDL
MODEL 6
REMARK VINA RESULT:      -7.0     28.515     32.117
REMARK  Name = 45783581
REMARK  6 active torsions:
REMARK  status: ('A' for Active; 'I' for Inactive)
REMARK    1  A    between atoms: O_2  and  C_12
REMARK    2  A    between atoms: O_2  and  C_24
REMARK    3  A    between atoms: N_4  and  C_13
REMARK    4  A    between atoms: C_8  and  C_19
REMARK    5  A    between atoms: C_13  and  C_20
REMARK    6  A    between atoms: C_21  and  C_25
REMARK                            x       y       z     vdW  Elec       q    Type
REMARK                         _______ _______ _______ _____ _____    ______ ____
ROOT
ATOM      3  O   UNL     1     -16.746   5.337  23.643  0.00  0.00    -0.336 OA
ATOM      5  N   UNL     1     -15.058   4.443  22.474  0.00  0.00    -0.190 NA
ATOM      6  N   UNL     1     -15.965   6.413  23.201  0.00  0.00    -0.056 NA
ATOM     19  C   UNL     1     -16.142   4.215  23.171  0.00  0.00    +0.245 A 
ATOM     21  C   UNL     1     -14.991   5.805  22.519  0.00  0.00    +0.204 A 
ENDROOT
BRANCH  21  25
ATOM      7  N   UNL     1     -13.125   8.605  20.938  0.00  0.00    -0.221 NA
ATOM     24  C   UNL     1     -11.969   7.968  20.645  0.00  0.00    +0.215 A 
ATOM     25  C   UNL     1     -13.935   6.529  21.875  0.00  0.00    +0.041 A 
ATOM     26  C   UNL     1     -11.726   6.634  20.930  0.00  0.00    +0.068 A 
ATOM     29  C   UNL     1     -12.732   5.908  21.557  0.00  0.00    +0.018 A 
ATOM     30  C   UNL     1     -14.080   7.867  21.547  0.00  0.00    +0.126 A 
BRANCH  24   2
ATOM      2  O   UNL     1     -10.993   8.705  20.028  0.00  0.00    -0.473 OA
BRANCH   2  12
ATOM     12  C   UNL     1     -11.286   9.188  18.721  0.00  0.00    +0.175 C 
ATOM     14  C   UNL     1     -11.020   8.087  17.695  0.00  0.00    +0.044 C 
ATOM     15  C   UNL     1     -10.452  10.437  18.438  0.00  0.00    +0.044 C 
ATOM     16  C   UNL     1     -11.226   8.589  16.269  0.00  0.00    +0.004 C 
ATOM     17  C   UNL     1     -10.658  10.937  17.011  0.00  0.00    +0.004 C 
ATOM     18  C   UNL     1     -10.395   9.837  15.986  0.00  0.00    +0.000 C 
ENDBRANCH   2  12
ENDBRANCH  24   2
ENDBRANCH  21  25
BRANCH  19   8
ATOM      4  N   UNL     1     -17.331   2.872  24.896  0.00  0.00    -0.287 NA
ATOM      8  C   UNL     1     -16.802   2.897  23.517  0.00  0.00    +0.146 C 
ATOM      9  C   UNL     1     -18.021   2.591  22.627  0.00  0.00    +0.030 C 
ATOM     10  C   UNL     1     -19.170   2.348  23.594  0.00  0.00    +0.017 C 
ATOM     11  C   UNL     1     -18.475   1.961  24.883  0.00  0.00    +0.085 C 
BRANCH   4  13
ATOM     13  C   UNL     1     -16.333   2.486  25.886  0.00  0.00    +0.120 C 
BRANCH  13  20
ATOM      1  F   UNL     1     -16.447   5.854  30.402  0.00  0.00    -0.205 F 
ATOM     20  C   UNL     1     -16.364   3.385  27.092  0.00  0.00    -0.033 A 
ATOM     22  C   UNL     1     -17.041   4.603  27.037  0.00  0.00    +0.008 A 
ATOM     23  C   UNL     1     -15.714   3.002  28.266  0.00  0.00    +0.008 A 
ATOM     27  C   UNL     1     -17.070   5.437  28.155  0.00  0.00    +0.038 A 
ATOM     28  C   UNL     1     -15.742   3.836  29.384  0.00  0.00    +0.038 A 
ATOM     31  C   UNL     1     -16.420   5.053  29.327  0.00  0.00    +0.123 A 
ENDBRANCH  13  20
ENDBRANCH   4  13
ENDBRANCH  19   8
TORSDOF 6
ENDMDL
MODEL 7
REMARK VINA RESULT:      -7.0     27.403     31.826
REMARK  Name = 45783581
REMARK  6 active torsions:
REMARK  status: ('A' for Active; 'I' for Inactive)
REMARK    1  A    between atoms: O_2  and  C_12
REMARK    2  A    between atoms: O_2  and  C_24
REMARK    3  A    between atoms: N_4  and  C_13
REMARK    4  A    between atoms: C_8  and  C_19
REMARK    5  A    between atoms: C_13  and  C_20
REMARK    6  A    between atoms: C_21  and  C_25
REMARK                            x       y       z     vdW  Elec       q    Type
REMARK                         _______ _______ _______ _____ _____    ______ ____
ROOT
ATOM      3  O   UNL     1      -7.762 -10.900  15.471  0.00  0.00    -0.336 OA
ATOM      5  N   UNL     1      -8.809  -9.596  16.961  0.00  0.00    -0.190 NA
ATOM      6  N   UNL     1      -8.584 -10.042  14.729  0.00  0.00    -0.056 NA
ATOM     19  C   UNL     1      -7.955 -10.570  16.775  0.00  0.00    +0.245 A 
ATOM     21  C   UNL     1      -9.167  -9.304  15.677  0.00  0.00    +0.204 A 
ENDROOT
BRANCH  21  25
ATOM      7  N   UNL     1     -10.981  -6.064  15.843  0.00  0.00    -0.221 NA
ATOM     24  C   UNL     1     -11.886  -6.261  14.859  0.00  0.00    +0.215 A 
ATOM     25  C   UNL     1     -10.113  -8.270  15.375  0.00  0.00    +0.041 A 
ATOM     26  C   UNL     1     -11.966  -7.418  14.101  0.00  0.00    +0.068 A 
ATOM     29  C   UNL     1     -11.059  -8.437  14.370  0.00  0.00    +0.018 A 
ATOM     30  C   UNL     1     -10.115  -7.076  16.076  0.00  0.00    +0.126 A 
BRANCH  24   2
ATOM      2  O   UNL     1     -12.768  -5.242  14.613  0.00  0.00    -0.473 OA
BRANCH   2  12
ATOM     12  C   UNL     1     -13.137  -5.028  13.255  0.00  0.00    +0.175 C 
ATOM     14  C   UNL     1     -12.296  -3.895  12.667  0.00  0.00    +0.044 C 
ATOM     15  C   UNL     1     -14.632  -4.723  13.172  0.00  0.00    +0.044 C 
ATOM     16  C   UNL     1     -12.723  -3.563  11.240  0.00  0.00    +0.004 C 
ATOM     17  C   UNL     1     -15.058  -4.390  11.745  0.00  0.00    +0.004 C 
ATOM     18  C   UNL     1     -14.217  -3.260  11.156  0.00  0.00    +0.000 C 
ENDBRANCH   2  12
ENDBRANCH  24   2
ENDBRANCH  21  25
BRANCH  19   8
ATOM      4  N   UNL     1      -5.708 -11.229  17.617  0.00  0.00    -0.287 NA
ATOM      8  C   UNL     1      -7.168 -11.365  17.796  0.00  0.00    +0.146 C 
ATOM      9  C   UNL     1      -7.429 -10.901  19.241  0.00  0.00    +0.030 C 
ATOM     10  C   UNL     1      -6.055 -10.585  19.812  0.00  0.00    +0.017 C 
ATOM     11  C   UNL     1      -5.113 -11.392  18.944  0.00  0.00    +0.085 C 
BRANCH   4  13
ATOM     13  C   UNL     1      -5.158 -12.169  16.649  0.00  0.00    +0.120 C 
BRANCH  13  20
ATOM      1  F   UNL     1      -1.318  -9.741  13.316  0.00  0.00    -0.205 F 
ATOM     20  C   UNL     1      -4.133 -11.521  15.759  0.00  0.00    -0.033 A 
ATOM     22  C   UNL     1      -2.915 -11.098  16.291  0.00  0.00    +0.008 A 
ATOM     23  C   UNL     1      -4.400 -11.342  14.401  0.00  0.00    +0.008 A 
ATOM     27  C   UNL     1      -1.964 -10.497  15.466  0.00  0.00    +0.038 A 
ATOM     28  C   UNL     1      -3.449 -10.740  13.576  0.00  0.00    +0.038 A 
ATOM     31  C   UNL     1      -2.232 -10.318  14.109  0.00  0.00    +0.123 A 
ENDBRANCH  13  20
ENDBRANCH   4  13
ENDBRANCH  19   8
TORSDOF 6
ENDMDL
MODEL 8
REMARK VINA RESULT:      -7.0     27.901     32.211
REMARK  Name = 45783581
REMARK  6 active torsions:
REMARK  status: ('A' for Active; 'I' for Inactive)
REMARK    1  A    between atoms: O_2  and  C_12
REMARK    2  A    between atoms: O_2  and  C_24
REMARK    3  A    between atoms: N_4  and  C_13
REMARK    4  A    between atoms: C_8  and  C_19
REMARK    5  A    between atoms: C_13  and  C_20
REMARK    6  A    between atoms: C_21  and  C_25
REMARK                            x       y       z     vdW  Elec       q    Type
REMARK                         _______ _______ _______ _____ _____    ______ ____
ROOT
ATOM      3  O   UNL     1      -8.023  -9.605   6.903  0.00  0.00    -0.336 OA
ATOM      5  N   UNL     1      -7.280  -7.948   8.213  0.00  0.00    -0.190 NA
ATOM      6  N   UNL     1      -9.125  -8.774   7.142  0.00  0.00    -0.056 NA
ATOM     19  C   UNL     1      -6.979  -9.046   7.569  0.00  0.00    +0.245 A 
ATOM     21  C   UNL     1      -8.607  -7.820   7.921  0.00  0.00    +0.204 A 
ENDROOT
BRANCH  21  25
ATOM      7  N   UNL     1     -11.394  -5.965   9.537  0.00  0.00    -0.221 NA
ATOM     24  C   UNL     1     -10.929  -4.703   9.407  0.00  0.00    +0.215 A 
ATOM     25  C   UNL     1      -9.388  -6.730   8.426  0.00  0.00    +0.041 A 
ATOM     26  C   UNL     1      -9.723  -4.379   8.808  0.00  0.00    +0.068 A 
ATOM     29  C   UNL     1      -8.943  -5.417   8.311  0.00  0.00    +0.018 A 
ATOM     30  C   UNL     1     -10.609  -6.949   9.042  0.00  0.00    +0.126 A 
BRANCH  24   2
ATOM      2  O   UNL     1     -11.715  -3.697   9.906  0.00  0.00    -0.473 OA
BRANCH   2  12
ATOM     12  C   UNL     1     -12.762  -4.082  10.790  0.00  0.00    +0.175 C 
ATOM     14  C   UNL     1     -14.034  -3.308  10.448  0.00  0.00    +0.044 C 
ATOM     15  C   UNL     1     -12.326  -3.840  12.235  0.00  0.00    +0.044 C 
ATOM     16  C   UNL     1     -15.159  -3.615  11.432  0.00  0.00    +0.004 C 
ATOM     17  C   UNL     1     -13.452  -4.145  13.219  0.00  0.00    +0.004 C 
ATOM     18  C   UNL     1     -14.724  -3.374  12.875  0.00  0.00    +0.000 C 
ENDBRANCH   2  12
ENDBRANCH  24   2
ENDBRANCH  21  25
BRANCH  19   8
ATOM      4  N   UNL     1      -5.113 -10.155   8.787  0.00  0.00    -0.287 NA
ATOM      8  C   UNL     1      -5.650  -9.766   7.467  0.00  0.00    +0.146 C 
ATOM      9  C   UNL     1      -5.749 -11.087   6.681  0.00  0.00    +0.030 C 
ATOM     10  C   UNL     1      -5.188 -12.149   7.616  0.00  0.00    +0.017 C 
ATOM     11  C   UNL     1      -4.313 -11.360   8.568  0.00  0.00    +0.085 C 
BRANCH   4  13
ATOM     13  C   UNL     1      -4.345  -9.095   9.428  0.00  0.00    +0.120 C 
BRANCH  13  20
ATOM      1  F   UNL     1      -1.792 -10.899  14.117  0.00  0.00    -0.205 F 
ATOM     20  C   UNL     1      -3.663  -9.577  10.680  0.00  0.00    -0.033 A 
ATOM     22  C   UNL     1      -4.421 -10.082  11.737  0.00  0.00    +0.008 A 
ATOM     23  C   UNL     1      -2.272  -9.518  10.785  0.00  0.00    +0.008 A 
ATOM     27  C   UNL     1      -3.789 -10.528  12.898  0.00  0.00    +0.038 A 
ATOM     28  C   UNL     1      -1.641  -9.964  11.946  0.00  0.00    +0.038 A 
ATOM     31  C   UNL     1      -2.400 -10.469  13.002  0.00  0.00    +0.123 A 
ENDBRANCH  13  20
ENDBRANCH   4  13
ENDBRANCH  19   8
TORSDOF 6
ENDMDL
MODEL 9
REMARK VINA RESULT:      -7.0     26.814     30.910
REMARK  Name = 45783581
REMARK  6 active torsions:
REMARK  status: ('A' for Active; 'I' for Inactive)
REMARK    1  A    between atoms: O_2  and  C_12
REMARK    2  A    between atoms: O_2  and  C_24
REMARK    3  A    between atoms: N_4  and  C_13
REMARK    4  A    between atoms: C_8  and  C_19
REMARK    5  A    between atoms: C_13  and  C_20
REMARK    6  A    between atoms: C_21  and  C_25
REMARK                            x       y       z     vdW  Elec       q    Type
REMARK                         _______ _______ _______ _____ _____    ______ ____
ROOT
ATOM      3  O   UNL     1      -5.125 -12.545  15.762  0.00  0.00    -0.336 OA
ATOM      5  N   UNL     1      -5.359 -10.336  15.483  0.00  0.00    -0.190 NA
ATOM      6  N   UNL     1      -6.461 -12.253  16.067  0.00  0.00    -0.056 NA
ATOM     19  C   UNL     1      -4.548 -11.361  15.428  0.00  0.00    +0.245 A 
ATOM     21  C   UNL     1      -6.521 -10.932  15.879  0.00  0.00    +0.204 A 
ENDROOT
BRANCH  21  25
ATOM      7  N   UNL     1      -8.894  -8.436  17.278  0.00  0.00    -0.221 NA
ATOM     24  C   UNL     1      -9.979  -8.707  16.520  0.00  0.00    +0.215 A 
ATOM     25  C   UNL     1      -7.724 -10.179  16.080  0.00  0.00    +0.041 A 
ATOM     26  C   UNL     1     -10.014  -9.684  15.538  0.00  0.00    +0.068 A 
ATOM     29  C   UNL     1      -8.861 -10.429  15.319  0.00  0.00    +0.018 A 
ATOM     30  C   UNL     1      -7.791  -9.180  17.038  0.00  0.00    +0.126 A 
BRANCH  24   2
ATOM      2  O   UNL     1     -11.103  -7.959  16.755  0.00  0.00    -0.473 OA
BRANCH   2  12
ATOM     12  C   UNL     1     -11.802  -7.479  15.612  0.00  0.00    +0.175 C 
ATOM     14  C   UNL     1     -11.302  -6.080  15.254  0.00  0.00    +0.044 C 
ATOM     15  C   UNL     1     -13.305  -7.487  15.890  0.00  0.00    +0.044 C 
ATOM     16  C   UNL     1     -12.092  -5.483  14.093  0.00  0.00    +0.004 C 
ATOM     17  C   UNL     1     -14.093  -6.889  14.728  0.00  0.00    +0.004 C 
ATOM     18  C   UNL     1     -13.593  -5.492  14.369  0.00  0.00    +0.000 C 
ENDBRANCH   2  12
ENDBRANCH  24   2
ENDBRANCH  21  25
BRANCH  19   8
ATOM      4  N   UNL     1      -2.757 -10.504  13.929  0.00  0.00    -0.287 NA
ATOM      8  C   UNL     1      -3.083 -11.408  15.050  0.00  0.00    +0.146 C 
ATOM      9  C   UNL     1      -2.158 -10.957  16.197  0.00  0.00    +0.030 C 
ATOM     10  C   UNL     1      -1.310  -9.840  15.607  0.00  0.00    +0.017 C 
ATOM     11  C   UNL     1      -1.364 -10.099  14.116  0.00  0.00    +0.085 C 
BRANCH   4  13
ATOM     13  C   UNL     1      -2.982 -11.106  12.621  0.00  0.00    +0.120 C 
BRANCH  13  20
ATOM      1  F   UNL     1      -5.872  -7.683   9.203  0.00  0.00    -0.205 F 
ATOM     20  C   UNL     1      -3.754 -10.192  11.708  0.00  0.00    -0.033 A 
ATOM     22  C   UNL     1      -5.034  -9.768  12.065  0.00  0.00    +0.008 A 
ATOM     23  C   UNL     1      -3.190  -9.768  10.504  0.00  0.00    +0.008 A 
ATOM     27  C   UNL     1      -5.750  -8.921  11.219  0.00  0.00    +0.038 A 
ATOM     28  C   UNL     1      -3.905  -8.921   9.658  0.00  0.00    +0.038 A 
ATOM     31  C   UNL     1      -5.185  -8.498  10.016  0.00  0.00    +0.123 A 
ENDBRANCH  13  20
ENDBRANCH   4  13
ENDBRANCH  19   8
TORSDOF 6
ENDMDL
MODEL 10
REMARK VINA RESULT:      -7.0     29.443     32.031
REMARK  Name = 45783581
REMARK  6 active torsions:
REMARK  status: ('A' for Active; 'I' for Inactive)
REMARK    1  A    between atoms: O_2  and  C_12
REMARK    2  A    between atoms: O_2  and  C_24
REMARK    3  A    between atoms: N_4  and  C_13
REMARK    4  A    between atoms: C_8  and  C_19
REMARK    5  A    between atoms: C_13  and  C_20
REMARK    6  A    between atoms: C_21  and  C_25
REMARK                            x       y       z     vdW  Elec       q    Type
REMARK                         _______ _______ _______ _____ _____    ______ ____
ROOT
ATOM      3  O   UNL     1     -13.822  -6.127  12.925  0.00  0.00    -0.336 OA
ATOM      5  N   UNL     1     -12.021  -5.395  14.037  0.00  0.00    -0.190 NA
ATOM      6  N   UNL     1     -13.342  -7.223  13.655  0.00  0.00    -0.056 NA
ATOM     19  C   UNL     1     -12.987  -5.093  13.207  0.00  0.00    +0.245 A 
ATOM     21  C   UNL     1     -12.280  -6.712  14.285  0.00  0.00    +0.204 A 
ENDROOT
BRANCH  21  25
ATOM      7  N   UNL     1     -10.377  -9.593  15.660  0.00  0.00    -0.221 NA
ATOM     24  C   UNL     1      -9.901  -9.028  16.792  0.00  0.00    +0.215 A 
ATOM     25  C   UNL     1     -11.458  -7.488  15.164  0.00  0.00    +0.041 A 
ATOM     26  C   UNL     1     -10.157  -7.721  17.173  0.00  0.00    +0.068 A 
ATOM     29  C   UNL     1     -10.951  -6.943  16.338  0.00  0.00    +0.018 A 
ATOM     30  C   UNL     1     -11.145  -8.806  14.873  0.00  0.00    +0.126 A 
BRANCH  24   2
ATOM      2  O   UNL     1      -9.122  -9.816  17.598  0.00  0.00    -0.473 OA
BRANCH   2  12
ATOM     12  C   UNL     1      -7.721  -9.564  17.577  0.00  0.00    +0.175 C 
ATOM     14  C   UNL     1      -7.177  -9.804  16.170  0.00  0.00    +0.044 C 
ATOM     15  C   UNL     1      -7.026 -10.451  18.610  0.00  0.00    +0.044 C 
ATOM     16  C   UNL     1      -5.661  -9.642  16.119  0.00  0.00    +0.004 C 
ATOM     17  C   UNL     1      -5.509 -10.289  18.558  0.00  0.00    +0.004 C 
ATOM     18  C   UNL     1      -4.966 -10.526  17.151  0.00  0.00    +0.000 C 
ENDBRANCH   2  12
ENDBRANCH  24   2
ENDBRANCH  21  25
BRANCH  19   8
ATOM      4  N   UNL     1     -13.146  -3.839  11.063  0.00  0.00    -0.287 NA
ATOM      8  C   UNL     1     -13.296  -3.774  12.531  0.00  0.00    +0.146 C 
ATOM      9  C   UNL     1     -14.750  -3.317  12.755  0.00  0.00    +0.030 C 
ATOM     10  C   UNL     1     -15.315  -3.093  11.360  0.00  0.00    +0.017 C 
ATOM     11  C   UNL     1     -14.084  -2.864  10.508  0.00  0.00    +0.085 C 
BRANCH   4  13
ATOM     13  C   UNL     1     -11.780  -3.603  10.614  0.00  0.00    +0.120 C 
BRANCH  13  20
ATOM      1  F   UNL     1      -9.773  -7.941   7.629  0.00  0.00    -0.205 F 
ATOM     20  C   UNL     1     -11.244  -4.762   9.817  0.00  0.00    -0.033 A 
ATOM     22  C   UNL     1     -10.198  -4.564   8.916  0.00  0.00    +0.008 A 
ATOM     23  C   UNL     1     -11.793  -6.034   9.979  0.00  0.00    +0.008 A 
ATOM     27  C   UNL     1      -9.701  -5.638   8.177  0.00  0.00    +0.038 A 
ATOM     28  C   UNL     1     -11.297  -7.108   9.240  0.00  0.00    +0.038 A 
ATOM     31  C   UNL     1     -10.251  -6.909   8.339  0.00  0.00    +0.123 A 
ENDBRANCH  13  20
ENDBRANCH   4  13
ENDBRANCH  19   8
TORSDOF 6
ENDMDL
