REMARK  Name = 45783582
REMARK  5 active torsions:
REMARK  status: ('A' for Active; 'I' for Inactive)
REMARK    1  A    between atoms: O_1  and  C_11
REMARK    2  A    between atoms: O_1  and  C_19
REMARK    3  A    between atoms: N_3  and  C_18
REMARK    4  A    between atoms: C_7  and  C_17
REMARK    5  A    between atoms: C_20  and  C_21
REMARK                            x       y       z     vdW  Elec       q    Type
REMARK                         _______ _______ _______ _____ _____    ______ ____
ROOT
ATOM      6  N   UNL     1      -2.240   0.403  -0.355  0.00  0.00    -0.221 NA
ATOM     19  C   UNL     1      -2.415  -0.847   0.130  0.00  0.00    +0.215 A 
ATOM     21  C   UNL     1       0.145   0.032  -0.215  0.00  0.00    +0.041 A 
ATOM     22  C   UNL     1      -1.377  -1.704   0.460  0.00  0.00    +0.068 A 
ATOM     23  C   UNL     1      -0.076  -1.248   0.281  0.00  0.00    +0.018 A 
ATOM     24  C   UNL     1      -0.961   0.811  -0.515  0.00  0.00    +0.126 A 
ENDROOT
BRANCH  21  20
ATOM      2  O   UNL     1       3.123   1.796  -0.902  0.00  0.00    -0.336 OA
ATOM      4  N   UNL     1       2.573  -0.228  -0.116  0.00  0.00    -0.190 NA
ATOM      5  N   UNL     1       1.723   1.753  -0.884  0.00  0.00    -0.056 NA
ATOM     17  C   UNL     1       3.543   0.591  -0.435  0.00  0.00    +0.245 A 
ATOM     20  C   UNL     1       1.475   0.529  -0.408  0.00  0.00    +0.204 A 
BRANCH  17   7
ATOM      3  N   UNL     1       5.495   0.042   1.008  0.00  0.00    -0.294 NA
ATOM      7  C   UNL     1       5.041   0.383  -0.355  0.00  0.00    +0.146 C 
ATOM      8  C   UNL     1       5.526  -0.786  -1.232  0.00  0.00    +0.030 C 
ATOM      9  C   UNL     1       6.293  -1.700  -0.288  0.00  0.00    +0.017 C 
ATOM     10  C   UNL     1       6.692  -0.784   0.851  0.00  0.00    +0.085 C 
ATOM     18  C   UNL     1       5.741   1.212   1.841  0.00  0.00    +0.105 C 
ENDBRANCH  17   7
ENDBRANCH  21  20
BRANCH  19   1
ATOM      1  O   UNL     1      -3.707  -1.272   0.296  0.00  0.00    -0.473 OA
BRANCH   1  11
ATOM     11  C   UNL     1      -4.734  -0.353  -0.058  0.00  0.00    +0.175 C 
ATOM     12  C   UNL     1      -5.954  -1.119  -0.567  0.00  0.00    +0.044 C 
ATOM     13  C   UNL     1      -5.079   0.520   1.148  0.00  0.00    +0.044 C 
ATOM     14  C   UNL     1      -7.119  -0.182  -0.868  0.00  0.00    +0.004 C 
ATOM     15  C   UNL     1      -6.245   1.457   0.847  0.00  0.00    +0.004 C 
ATOM     16  C   UNL     1      -7.463   0.692   0.336  0.00  0.00    +0.000 C 
ENDBRANCH   1  11
ENDBRANCH  19   1
TORSDOF 4
