MODEL 1
REMARK VINA RESULT:      -6.6      0.000      0.000
REMARK  Name = 45783826
REMARK  9 active torsions:
REMARK  status: ('A' for Active; 'I' for Inactive)
REMARK    1  A    between atoms: O_5  and  C_21
REMARK    2  A    between atoms: O_5  and  C_29
REMARK    3  A    between atoms: N_6  and  C_15
REMARK    4  A    between atoms: N_10  and  C_28
REMARK    5  A    between atoms: N_10  and  C_30
REMARK    6  A    between atoms: N_10  and  C_31
REMARK    7  A    between atoms: C_11  and  C_16
REMARK    8  A    between atoms: C_15  and  C_17
REMARK    9  A    between atoms: C_20  and  C_23
REMARK                            x       y       z     vdW  Elec       q    Type
REMARK                         _______ _______ _______ _____ _____    ______ ____
ROOT
ATOM      6  N   UNL     1      11.794  10.702  23.093  0.00  0.00    -0.287 NA
ATOM     11  C   UNL     1      12.764  11.755  22.734  0.00  0.00    +0.146 C 
ATOM     12  C   UNL     1      13.041  12.499  24.054  0.00  0.00    +0.030 C 
ATOM     13  C   UNL     1      12.138  11.832  25.081  0.00  0.00    +0.017 C 
ATOM     14  C   UNL     1      11.043  11.205  24.243  0.00  0.00    +0.085 C 
ENDROOT
BRANCH  11  16
ATOM      4  O   UNL     1      14.604  11.961  21.138  0.00  0.00    -0.336 OA
ATOM      7  N   UNL     1      14.644  10.072  22.344  0.00  0.00    -0.190 NA
ATOM      8  N   UNL     1      15.733  11.249  20.710  0.00  0.00    -0.056 NA
ATOM     16  C   UNL     1      14.022  11.199  22.101  0.00  0.00    +0.245 A 
ATOM     20  C   UNL     1      15.687  10.148  21.466  0.00  0.00    +0.204 A 
BRANCH  20  23
ATOM      9  N   UNL     1      18.996   8.453  21.393  0.00  0.00    -0.240 NA
ATOM     23  C   UNL     1      16.668   9.105  21.372  0.00  0.00    +0.041 A 
ATOM     25  C   UNL     1      16.291   7.782  21.174  0.00  0.00    +0.016 A 
ATOM     26  C   UNL     1      18.021   9.386  21.473  0.00  0.00    +0.124 A 
ATOM     27  C   UNL     1      17.265   6.793  21.086  0.00  0.00    +0.044 A 
ATOM     28  C   UNL     1      18.592   7.177  21.201  0.00  0.00    +0.121 A 
BRANCH  28  10
ATOM     10  N   UNL     1      19.572   6.158  21.110  0.00  0.00    -0.321 N 
ATOM     30  C   UNL     1      19.468   5.138  20.091  0.00  0.00    +0.130 C 
ATOM     31  C   UNL     1      20.678   6.128  22.039  0.00  0.00    +0.130 C 
ENDBRANCH  28  10
ENDBRANCH  20  23
ENDBRANCH  11  16
BRANCH   6  15
ATOM     15  C   UNL     1      10.920  10.325  21.989  0.00  0.00    +0.120 C 
BRANCH  15  17
ATOM     17  C   UNL     1      11.313   9.001  21.389  0.00  0.00    -0.030 A 
ATOM     18  C   UNL     1      11.784   8.943  20.077  0.00  0.00    +0.051 A 
ATOM     19  C   UNL     1      11.206   7.833  22.143  0.00  0.00    +0.005 A 
ATOM     21  C   UNL     1      12.148   7.717  19.520  0.00  0.00    +0.130 A 
ATOM     22  C   UNL     1      11.569   6.607  21.587  0.00  0.00    +0.004 A 
ATOM     24  C   UNL     1      12.041   6.549  20.275  0.00  0.00    +0.046 A 
BRANCH  21   5
ATOM      5  O   UNL     1      12.607   7.661  18.240  0.00  0.00    -0.406 OA
BRANCH   5  29
ATOM      1  F   UNL     1      14.642   6.747  18.748  0.00  0.00    -0.133 F 
ATOM      2  F   UNL     1      14.482   8.903  18.431  0.00  0.00    -0.133 F 
ATOM      3  F   UNL     1      14.311   7.556  16.718  0.00  0.00    -0.133 F 
ATOM     29  C   UNL     1      14.014   7.700  18.027  0.00  0.00    +0.575 C 
ENDBRANCH   5  29
ENDBRANCH  21   5
ENDBRANCH  15  17
ENDBRANCH   6  15
TORSDOF 7
ENDMDL
MODEL 2
REMARK VINA RESULT:      -6.4     26.540     29.581
REMARK  Name = 45783826
REMARK  9 active torsions:
REMARK  status: ('A' for Active; 'I' for Inactive)
REMARK    1  A    between atoms: O_5  and  C_21
REMARK    2  A    between atoms: O_5  and  C_29
REMARK    3  A    between atoms: N_6  and  C_15
REMARK    4  A    between atoms: N_10  and  C_28
REMARK    5  A    between atoms: N_10  and  C_30
REMARK    6  A    between atoms: N_10  and  C_31
REMARK    7  A    between atoms: C_11  and  C_16
REMARK    8  A    between atoms: C_15  and  C_17
REMARK    9  A    between atoms: C_20  and  C_23
REMARK                            x       y       z     vdW  Elec       q    Type
REMARK                         _______ _______ _______ _____ _____    ______ ____
ROOT
ATOM      6  N   UNL     1      -2.904 -10.599  14.155  0.00  0.00    -0.287 NA
ATOM     11  C   UNL     1      -3.214 -11.316  15.407  0.00  0.00    +0.146 C 
ATOM     12  C   UNL     1      -2.134 -10.852  16.401  0.00  0.00    +0.030 C 
ATOM     13  C   UNL     1      -1.229  -9.925  15.601  0.00  0.00    +0.017 C 
ATOM     14  C   UNL     1      -1.462 -10.350  14.166  0.00  0.00    +0.085 C 
ENDROOT
BRANCH  11  16
ATOM      4  O   UNL     1      -5.075 -11.847  16.899  0.00  0.00    -0.336 OA
ATOM      7  N   UNL     1      -5.479 -10.141  15.504  0.00  0.00    -0.190 NA
ATOM      8  N   UNL     1      -6.376 -11.411  17.183  0.00  0.00    -0.056 NA
ATOM     16  C   UNL     1      -4.619 -11.045  15.901  0.00  0.00    +0.245 A 
ATOM     20  C   UNL     1      -6.541 -10.405  16.318  0.00  0.00    +0.204 A 
BRANCH  20  23
ATOM      9  N   UNL     1      -9.570  -8.774  14.906  0.00  0.00    -0.240 NA
ATOM     23  C   UNL     1      -7.754  -9.641  16.245  0.00  0.00    +0.041 A 
ATOM     25  C   UNL     1      -8.292  -9.041  17.378  0.00  0.00    +0.016 A 
ATOM     26  C   UNL     1      -8.425  -9.479  15.044  0.00  0.00    +0.124 A 
ATOM     27  C   UNL     1      -9.469  -8.307  17.276  0.00  0.00    +0.044 A 
ATOM     28  C   UNL     1     -10.063  -8.204  16.029  0.00  0.00    +0.121 A 
BRANCH  28  10
ATOM     10  N   UNL     1     -11.262  -7.454  15.942  0.00  0.00    -0.321 N 
ATOM     30  C   UNL     1     -11.217  -6.047  15.613  0.00  0.00    +0.130 C 
ATOM     31  C   UNL     1     -12.537  -8.089  16.187  0.00  0.00    +0.130 C 
ENDBRANCH  28  10
ENDBRANCH  20  23
ENDBRANCH  11  16
BRANCH   6  15
ATOM     15  C   UNL     1      -3.326 -11.319  12.959  0.00  0.00    +0.120 C 
BRANCH  15  17
ATOM     17  C   UNL     1      -3.805 -10.383  11.882  0.00  0.00    -0.030 A 
ATOM     18  C   UNL     1      -5.112  -9.896  11.912  0.00  0.00    +0.051 A 
ATOM     19  C   UNL     1      -2.945 -10.003  10.852  0.00  0.00    +0.005 A 
ATOM     21  C   UNL     1      -5.558  -9.030  10.914  0.00  0.00    +0.130 A 
ATOM     22  C   UNL     1      -3.390  -9.138   9.854  0.00  0.00    +0.004 A 
ATOM     24  C   UNL     1      -4.697  -8.650   9.885  0.00  0.00    +0.046 A 
BRANCH  21   5
ATOM      5  O   UNL     1      -6.833  -8.556  10.944  0.00  0.00    -0.406 OA
BRANCH   5  29
ATOM      1  F   UNL     1      -8.997  -9.118  10.458  0.00  0.00    -0.133 F 
ATOM      2  F   UNL     1      -7.363 -10.247   9.546  0.00  0.00    -0.133 F 
ATOM      3  F   UNL     1      -7.751  -8.201   8.879  0.00  0.00    -0.133 F 
ATOM     29  C   UNL     1      -7.748  -9.016   9.955  0.00  0.00    +0.575 C 
ENDBRANCH   5  29
ENDBRANCH  21   5
ENDBRANCH  15  17
ENDBRANCH   6  15
TORSDOF 7
ENDMDL
MODEL 3
REMARK VINA RESULT:      -6.3      3.495      6.073
REMARK  Name = 45783826
REMARK  9 active torsions:
REMARK  status: ('A' for Active; 'I' for Inactive)
REMARK    1  A    between atoms: O_5  and  C_21
REMARK    2  A    between atoms: O_5  and  C_29
REMARK    3  A    between atoms: N_6  and  C_15
REMARK    4  A    between atoms: N_10  and  C_28
REMARK    5  A    between atoms: N_10  and  C_30
REMARK    6  A    between atoms: N_10  and  C_31
REMARK    7  A    between atoms: C_11  and  C_16
REMARK    8  A    between atoms: C_15  and  C_17
REMARK    9  A    between atoms: C_20  and  C_23
REMARK                            x       y       z     vdW  Elec       q    Type
REMARK                         _______ _______ _______ _____ _____    ______ ____
ROOT
ATOM      6  N   UNL     1      16.826   7.502  21.136  0.00  0.00    -0.287 NA
ATOM     11  C   UNL     1      18.186   7.936  20.761  0.00  0.00    +0.146 C 
ATOM     12  C   UNL     1      18.273   9.400  21.232  0.00  0.00    +0.030 C 
ATOM     13  C   UNL     1      16.898   9.716  21.801  0.00  0.00    +0.017 C 
ATOM     14  C   UNL     1      15.992   8.704  21.131  0.00  0.00    +0.085 C 
ENDROOT
BRANCH  11  16
ATOM      4  O   UNL     1      19.324   7.026  22.724  0.00  0.00    -0.336 OA
ATOM      7  N   UNL     1      20.166   6.324  20.770  0.00  0.00    -0.190 NA
ATOM      8  N   UNL     1      20.383   6.165  23.043  0.00  0.00    -0.056 NA
ATOM     16  C   UNL     1      19.264   7.062  21.366  0.00  0.00    +0.245 A 
ATOM     20  C   UNL     1      20.829   5.794  21.839  0.00  0.00    +0.204 A 
BRANCH  20  23
ATOM      9  N   UNL     1      23.032   2.833  22.299  0.00  0.00    -0.240 NA
ATOM     23  C   UNL     1      21.932   4.892  21.670  0.00  0.00    +0.041 A 
ATOM     25  C   UNL     1      22.947   5.165  20.759  0.00  0.00    +0.016 A 
ATOM     26  C   UNL     1      22.021   3.724  22.409  0.00  0.00    +0.124 A 
ATOM     27  C   UNL     1      24.004   4.273  20.617  0.00  0.00    +0.044 A 
ATOM     28  C   UNL     1      24.000   3.132  21.403  0.00  0.00    +0.121 A 
BRANCH  28  10
ATOM     10  N   UNL     1      25.083   2.232  21.246  0.00  0.00    -0.321 N 
ATOM     30  C   UNL     1      26.351   2.703  20.736  0.00  0.00    +0.130 C 
ATOM     31  C   UNL     1      24.926   0.837  21.589  0.00  0.00    +0.130 C 
ENDBRANCH  28  10
ENDBRANCH  20  23
ENDBRANCH  11  16
BRANCH   6  15
ATOM     15  C   UNL     1      16.293   6.462  20.265  0.00  0.00    +0.120 C 
BRANCH  15  17
ATOM     17  C   UNL     1      14.955   6.842  19.691  0.00  0.00    -0.030 A 
ATOM     18  C   UNL     1      13.786   6.551  20.396  0.00  0.00    +0.051 A 
ATOM     19  C   UNL     1      14.881   7.485  18.456  0.00  0.00    +0.005 A 
ATOM     21  C   UNL     1      12.545   6.903  19.865  0.00  0.00    +0.130 A 
ATOM     22  C   UNL     1      13.640   7.836  17.925  0.00  0.00    +0.004 A 
ATOM     24  C   UNL     1      12.472   7.546  18.630  0.00  0.00    +0.046 A 
BRANCH  21   5
ATOM      5  O   UNL     1      11.406   6.618  20.553  0.00  0.00    -0.406 OA
BRANCH   5  29
ATOM      1  F   UNL     1      10.453   8.689  20.736  0.00  0.00    -0.133 F 
ATOM      2  F   UNL     1      11.861   8.016  22.266  0.00  0.00    -0.133 F 
ATOM      3  F   UNL     1       9.871   7.116  22.175  0.00  0.00    -0.133 F 
ATOM     29  C   UNL     1      10.880   7.611  21.427  0.00  0.00    +0.575 C 
ENDBRANCH   5  29
ENDBRANCH  21   5
ENDBRANCH  15  17
ENDBRANCH   6  15
TORSDOF 7
ENDMDL
MODEL 4
REMARK VINA RESULT:      -6.3     16.924     19.698
REMARK  Name = 45783826
REMARK  9 active torsions:
REMARK  status: ('A' for Active; 'I' for Inactive)
REMARK    1  A    between atoms: O_5  and  C_21
REMARK    2  A    between atoms: O_5  and  C_29
REMARK    3  A    between atoms: N_6  and  C_15
REMARK    4  A    between atoms: N_10  and  C_28
REMARK    5  A    between atoms: N_10  and  C_30
REMARK    6  A    between atoms: N_10  and  C_31
REMARK    7  A    between atoms: C_11  and  C_16
REMARK    8  A    between atoms: C_15  and  C_17
REMARK    9  A    between atoms: C_20  and  C_23
REMARK                            x       y       z     vdW  Elec       q    Type
REMARK                         _______ _______ _______ _____ _____    ______ ____
ROOT
ATOM      6  N   UNL     1      10.356   5.973   3.014  0.00  0.00    -0.287 NA
ATOM     11  C   UNL     1      10.272   5.345   1.681  0.00  0.00    +0.146 C 
ATOM     12  C   UNL     1       9.778   6.468   0.750  0.00  0.00    +0.030 C 
ATOM     13  C   UNL     1       9.555   7.668   1.660  0.00  0.00    +0.017 C 
ATOM     14  C   UNL     1       9.365   7.048   3.029  0.00  0.00    +0.085 C 
ENDROOT
BRANCH  11  16
ATOM      4  O   UNL     1      11.966   3.590   1.829  0.00  0.00    -0.336 OA
ATOM      7  N   UNL     1      12.439   5.195   0.340  0.00  0.00    -0.190 NA
ATOM      8  N   UNL     1      13.198   3.241   1.258  0.00  0.00    -0.056 NA
ATOM     16  C   UNL     1      11.590   4.751   1.232  0.00  0.00    +0.245 A 
ATOM     20  C   UNL     1      13.409   4.236   0.392  0.00  0.00    +0.204 A 
BRANCH  20  23
ATOM      9  N   UNL     1      15.542   4.706  -2.618  0.00  0.00    -0.240 NA
ATOM     23  C   UNL     1      14.578   4.301  -0.439  0.00  0.00    +0.041 A 
ATOM     25  C   UNL     1      15.840   4.037   0.080  0.00  0.00    +0.016 A 
ATOM     26  C   UNL     1      14.483   4.628  -1.782  0.00  0.00    +0.124 A 
ATOM     27  C   UNL     1      16.954   4.107  -0.749  0.00  0.00    +0.044 A 
ATOM     28  C   UNL     1      16.754   4.443  -2.079  0.00  0.00    +0.121 A 
BRANCH  28  10
ATOM     10  N   UNL     1      17.899   4.511  -2.911  0.00  0.00    -0.321 N 
ATOM     30  C   UNL     1      19.212   4.263  -2.361  0.00  0.00    +0.130 C 
ATOM     31  C   UNL     1      17.761   4.835  -4.313  0.00  0.00    +0.130 C 
ENDBRANCH  28  10
ENDBRANCH  20  23
ENDBRANCH  11  16
BRANCH   6  15
ATOM     15  C   UNL     1      10.158   5.029   4.108  0.00  0.00    +0.120 C 
BRANCH  15  17
ATOM     17  C   UNL     1      10.472   5.647   5.444  0.00  0.00    -0.030 A 
ATOM     18  C   UNL     1       9.587   5.488   6.511  0.00  0.00    +0.051 A 
ATOM     19  C   UNL     1      11.647   6.377   5.618  0.00  0.00    +0.005 A 
ATOM     21  C   UNL     1       9.877   6.060   7.750  0.00  0.00    +0.130 A 
ATOM     22  C   UNL     1      11.937   6.950   6.856  0.00  0.00    +0.004 A 
ATOM     24  C   UNL     1      11.052   6.790   7.922  0.00  0.00    +0.046 A 
BRANCH  21   5
ATOM      5  O   UNL     1       9.012   5.905   8.789  0.00  0.00    -0.406 OA
BRANCH   5  29
ATOM      1  F   UNL     1       9.334   3.650   9.007  0.00  0.00    -0.133 F 
ATOM      2  F   UNL     1       8.150   4.716  10.503  0.00  0.00    -0.133 F 
ATOM      3  F   UNL     1      10.315   5.012  10.445  0.00  0.00    -0.133 F 
ATOM     29  C   UNL     1       9.219   4.815   9.681  0.00  0.00    +0.575 C 
ENDBRANCH   5  29
ENDBRANCH  21   5
ENDBRANCH  15  17
ENDBRANCH   6  15
TORSDOF 7
ENDMDL
MODEL 5
REMARK VINA RESULT:      -6.3     13.433     15.983
REMARK  Name = 45783826
REMARK  9 active torsions:
REMARK  status: ('A' for Active; 'I' for Inactive)
REMARK    1  A    between atoms: O_5  and  C_21
REMARK    2  A    between atoms: O_5  and  C_29
REMARK    3  A    between atoms: N_6  and  C_15
REMARK    4  A    between atoms: N_10  and  C_28
REMARK    5  A    between atoms: N_10  and  C_30
REMARK    6  A    between atoms: N_10  and  C_31
REMARK    7  A    between atoms: C_11  and  C_16
REMARK    8  A    between atoms: C_15  and  C_17
REMARK    9  A    between atoms: C_20  and  C_23
REMARK                            x       y       z     vdW  Elec       q    Type
REMARK                         _______ _______ _______ _____ _____    ______ ____
ROOT
ATOM      6  N   UNL     1      10.624  10.224   8.218  0.00  0.00    -0.287 NA
ATOM     11  C   UNL     1      11.583  10.803   7.257  0.00  0.00    +0.146 C 
ATOM     12  C   UNL     1      12.502  11.696   8.111  0.00  0.00    +0.030 C 
ATOM     13  C   UNL     1      11.944  11.602   9.524  0.00  0.00    +0.017 C 
ATOM     14  C   UNL     1      10.503  11.186   9.313  0.00  0.00    +0.085 C 
ENDROOT
BRANCH  11  16
ATOM      4  O   UNL     1      13.600   9.463   6.927  0.00  0.00    -0.336 OA
ATOM      7  N   UNL     1      11.976   9.054   5.438  0.00  0.00    -0.190 NA
ATOM      8  N   UNL     1      14.097   8.472   6.069  0.00  0.00    -0.056 NA
ATOM     16  C   UNL     1      12.346   9.747   6.486  0.00  0.00    +0.245 A 
ATOM     20  C   UNL     1      13.083   8.286   5.219  0.00  0.00    +0.204 A 
BRANCH  20  23
ATOM      9  N   UNL     1      14.437   6.267   2.406  0.00  0.00    -0.240 NA
ATOM     23  C   UNL     1      13.142   7.340   4.143  0.00  0.00    +0.041 A 
ATOM     25  C   UNL     1      12.026   6.595   3.782  0.00  0.00    +0.016 A 
ATOM     26  C   UNL     1      14.314   7.141   3.429  0.00  0.00    +0.124 A 
ATOM     27  C   UNL     1      12.113   5.685   2.734  0.00  0.00    +0.044 A 
ATOM     28  C   UNL     1      13.331   5.560   2.083  0.00  0.00    +0.121 A 
BRANCH  28  10
ATOM     10  N   UNL     1      13.404   4.628   1.018  0.00  0.00    -0.321 N 
ATOM     30  C   UNL     1      13.865   5.050  -0.286  0.00  0.00    +0.130 C 
ATOM     31  C   UNL     1      13.013   3.252   1.226  0.00  0.00    +0.130 C 
ENDBRANCH  28  10
ENDBRANCH  20  23
ENDBRANCH  11  16
BRANCH   6  15
ATOM     15  C   UNL     1       9.332   9.907   7.622  0.00  0.00    +0.120 C 
BRANCH  15  17
ATOM     17  C   UNL     1       9.224   8.450   7.259  0.00  0.00    -0.030 A 
ATOM     18  C   UNL     1       9.808   7.483   8.077  0.00  0.00    +0.051 A 
ATOM     19  C   UNL     1       8.540   8.066   6.106  0.00  0.00    +0.005 A 
ATOM     21  C   UNL     1       9.709   6.132   7.741  0.00  0.00    +0.130 A 
ATOM     22  C   UNL     1       8.441   6.717   5.770  0.00  0.00    +0.004 A 
ATOM     24  C   UNL     1       9.024   5.749   6.588  0.00  0.00    +0.046 A 
BRANCH  21   5
ATOM      5  O   UNL     1      10.280   5.189   8.540  0.00  0.00    -0.406 OA
BRANCH   5  29
ATOM      1  F   UNL     1      10.188   4.328  10.657  0.00  0.00    -0.133 F 
ATOM      2  F   UNL     1       9.025   3.388   9.063  0.00  0.00    -0.133 F 
ATOM      3  F   UNL     1       8.400   5.335   9.835  0.00  0.00    -0.133 F 
ATOM     29  C   UNL     1       9.473   4.573   9.537  0.00  0.00    +0.575 C 
ENDBRANCH   5  29
ENDBRANCH  21   5
ENDBRANCH  15  17
ENDBRANCH   6  15
TORSDOF 7
ENDMDL
MODEL 6
REMARK VINA RESULT:      -6.2     15.972     18.885
REMARK  Name = 45783826
REMARK  9 active torsions:
REMARK  status: ('A' for Active; 'I' for Inactive)
REMARK    1  A    between atoms: O_5  and  C_21
REMARK    2  A    between atoms: O_5  and  C_29
REMARK    3  A    between atoms: N_6  and  C_15
REMARK    4  A    between atoms: N_10  and  C_28
REMARK    5  A    between atoms: N_10  and  C_30
REMARK    6  A    between atoms: N_10  and  C_31
REMARK    7  A    between atoms: C_11  and  C_16
REMARK    8  A    between atoms: C_15  and  C_17
REMARK    9  A    between atoms: C_20  and  C_23
REMARK                            x       y       z     vdW  Elec       q    Type
REMARK                         _______ _______ _______ _____ _____    ______ ____
ROOT
ATOM      6  N   UNL     1      12.879   8.083   5.571  0.00  0.00    -0.287 NA
ATOM     11  C   UNL     1      13.558   7.832   4.285  0.00  0.00    +0.146 C 
ATOM     12  C   UNL     1      15.002   7.463   4.670  0.00  0.00    +0.030 C 
ATOM     13  C   UNL     1      15.054   7.593   6.186  0.00  0.00    +0.017 C 
ATOM     14  C   UNL     1      13.911   8.535   6.503  0.00  0.00    +0.085 C 
ENDROOT
BRANCH  11  16
ATOM      4  O   UNL     1      11.928   6.020   4.103  0.00  0.00    -0.336 OA
ATOM      7  N   UNL     1      13.070   6.416   2.216  0.00  0.00    -0.190 NA
ATOM      8  N   UNL     1      11.450   5.103   3.158  0.00  0.00    -0.056 NA
ATOM     16  C   UNL     1      12.878   6.755   3.467  0.00  0.00    +0.245 A 
ATOM     20  C   UNL     1      12.172   5.398   2.073  0.00  0.00    +0.204 A 
BRANCH  20  23
ATOM      9  N   UNL     1      10.577   3.983  -0.973  0.00  0.00    -0.240 NA
ATOM     23  C   UNL     1      12.020   4.698   0.830  0.00  0.00    +0.041 A 
ATOM     25  C   UNL     1      13.102   4.071   0.223  0.00  0.00    +0.016 A 
ATOM     26  C   UNL     1      10.789   4.625   0.197  0.00  0.00    +0.124 A 
ATOM     27  C   UNL     1      12.924   3.400  -0.981  0.00  0.00    +0.044 A 
ATOM     28  C   UNL     1      11.653   3.385  -1.534  0.00  0.00    +0.121 A 
BRANCH  28  10
ATOM     10  N   UNL     1      11.487   2.697  -2.762  0.00  0.00    -0.321 N 
ATOM     30  C   UNL     1      10.232   2.051  -3.069  0.00  0.00    +0.130 C 
ATOM     31  C   UNL     1      12.575   2.633  -3.712  0.00  0.00    +0.130 C 
ENDBRANCH  28  10
ENDBRANCH  20  23
ENDBRANCH  11  16
BRANCH   6  15
ATOM     15  C   UNL     1      11.780   9.036   5.465  0.00  0.00    +0.120 C 
BRANCH  15  17
ATOM     17  C   UNL     1      10.456   8.404   5.800  0.00  0.00    -0.030 A 
ATOM     18  C   UNL     1      10.235   7.883   7.076  0.00  0.00    +0.051 A 
ATOM     19  C   UNL     1       9.449   8.339   4.838  0.00  0.00    +0.005 A 
ATOM     21  C   UNL     1       9.008   7.296   7.387  0.00  0.00    +0.130 A 
ATOM     22  C   UNL     1       8.223   7.752   5.149  0.00  0.00    +0.004 A 
ATOM     24  C   UNL     1       8.002   7.232   6.424  0.00  0.00    +0.046 A 
BRANCH  21   5
ATOM      5  O   UNL     1       8.794   6.788   8.632  0.00  0.00    -0.406 OA
BRANCH   5  29
ATOM      1  F   UNL     1      10.609   5.631   9.406  0.00  0.00    -0.133 F 
ATOM      2  F   UNL     1       9.384   4.768   7.815  0.00  0.00    -0.133 F 
ATOM      3  F   UNL     1       8.585   4.862   9.848  0.00  0.00    -0.133 F 
ATOM     29  C   UNL     1       9.346   5.513   8.943  0.00  0.00    +0.575 C 
ENDBRANCH   5  29
ENDBRANCH  21   5
ENDBRANCH  15  17
ENDBRANCH   6  15
TORSDOF 7
ENDMDL
MODEL 7
REMARK VINA RESULT:      -6.2     26.446     29.630
REMARK  Name = 45783826
REMARK  9 active torsions:
REMARK  status: ('A' for Active; 'I' for Inactive)
REMARK    1  A    between atoms: O_5  and  C_21
REMARK    2  A    between atoms: O_5  and  C_29
REMARK    3  A    between atoms: N_6  and  C_15
REMARK    4  A    between atoms: N_10  and  C_28
REMARK    5  A    between atoms: N_10  and  C_30
REMARK    6  A    between atoms: N_10  and  C_31
REMARK    7  A    between atoms: C_11  and  C_16
REMARK    8  A    between atoms: C_15  and  C_17
REMARK    9  A    between atoms: C_20  and  C_23
REMARK                            x       y       z     vdW  Elec       q    Type
REMARK                         _______ _______ _______ _____ _____    ______ ____
ROOT
ATOM      6  N   UNL     1      -3.157 -10.581  14.313  0.00  0.00    -0.287 NA
ATOM     11  C   UNL     1      -3.030 -11.266  15.614  0.00  0.00    +0.146 C 
ATOM     12  C   UNL     1      -1.712 -10.735  16.209  0.00  0.00    +0.030 C 
ATOM     13  C   UNL     1      -1.143  -9.807  15.145  0.00  0.00    +0.017 C 
ATOM     14  C   UNL     1      -1.796 -10.287  13.865  0.00  0.00    +0.085 C 
ENDROOT
BRANCH  11  16
ATOM      4  O   UNL     1      -4.008 -11.180  17.853  0.00  0.00    -0.336 OA
ATOM      7  N   UNL     1      -5.444 -10.681  16.207  0.00  0.00    -0.190 NA
ATOM      8  N   UNL     1      -5.234 -10.906  18.474  0.00  0.00    -0.056 NA
ATOM     16  C   UNL     1      -4.219 -11.023  16.519  0.00  0.00    +0.245 A 
ATOM     20  C   UNL     1      -6.029 -10.622  17.438  0.00  0.00    +0.204 A 
BRANCH  20  23
ATOM      9  N   UNL     1      -9.581 -10.804  18.524  0.00  0.00    -0.240 NA
ATOM     23  C   UNL     1      -7.411 -10.272  17.600  0.00  0.00    +0.041 A 
ATOM     25  C   UNL     1      -7.930  -9.119  17.024  0.00  0.00    +0.016 A 
ATOM     26  C   UNL     1      -8.270 -11.075  18.333  0.00  0.00    +0.124 A 
ATOM     27  C   UNL     1      -9.274  -8.805  17.197  0.00  0.00    +0.044 A 
ATOM     28  C   UNL     1     -10.050  -9.673  17.949  0.00  0.00    +0.121 A 
BRANCH  28  10
ATOM     10  N   UNL     1     -11.417  -9.341  18.118  0.00  0.00    -0.321 N 
ATOM     30  C   UNL     1     -12.121  -9.740  19.315  0.00  0.00    +0.130 C 
ATOM     31  C   UNL     1     -12.119  -8.605  17.089  0.00  0.00    +0.130 C 
ENDBRANCH  28  10
ENDBRANCH  20  23
ENDBRANCH  11  16
BRANCH   6  15
ATOM     15  C   UNL     1      -3.903 -11.354  13.327  0.00  0.00    +0.120 C 
BRANCH  15  17
ATOM     17  C   UNL     1      -4.597 -10.467  12.328  0.00  0.00    -0.030 A 
ATOM     18  C   UNL     1      -4.175 -10.451  10.998  0.00  0.00    +0.051 A 
ATOM     19  C   UNL     1      -5.660  -9.660  12.730  0.00  0.00    +0.005 A 
ATOM     21  C   UNL     1      -4.816  -9.629  10.071  0.00  0.00    +0.130 A 
ATOM     22  C   UNL     1      -6.301  -8.837  11.804  0.00  0.00    +0.004 A 
ATOM     24  C   UNL     1      -5.880  -8.823  10.474  0.00  0.00    +0.046 A 
BRANCH  21   5
ATOM      5  O   UNL     1      -4.403  -9.615   8.775  0.00  0.00    -0.406 OA
BRANCH   5  29
ATOM      1  F   UNL     1      -4.447 -10.929   6.903  0.00  0.00    -0.133 F 
ATOM      2  F   UNL     1      -5.932  -9.343   7.137  0.00  0.00    -0.133 F 
ATOM      3  F   UNL     1      -6.072 -11.131   8.387  0.00  0.00    -0.133 F 
ATOM     29  C   UNL     1      -5.209 -10.272   7.803  0.00  0.00    +0.575 C 
ENDBRANCH   5  29
ENDBRANCH  21   5
ENDBRANCH  15  17
ENDBRANCH   6  15
TORSDOF 7
ENDMDL
MODEL 8
REMARK VINA RESULT:      -6.0     27.877     29.712
REMARK  Name = 45783826
REMARK  9 active torsions:
REMARK  status: ('A' for Active; 'I' for Inactive)
REMARK    1  A    between atoms: O_5  and  C_21
REMARK    2  A    between atoms: O_5  and  C_29
REMARK    3  A    between atoms: N_6  and  C_15
REMARK    4  A    between atoms: N_10  and  C_28
REMARK    5  A    between atoms: N_10  and  C_30
REMARK    6  A    between atoms: N_10  and  C_31
REMARK    7  A    between atoms: C_11  and  C_16
REMARK    8  A    between atoms: C_15  and  C_17
REMARK    9  A    between atoms: C_20  and  C_23
REMARK                            x       y       z     vdW  Elec       q    Type
REMARK                         _______ _______ _______ _____ _____    ______ ____
ROOT
ATOM      6  N   UNL     1      -3.029 -12.977  14.156  0.00  0.00    -0.287 NA
ATOM     11  C   UNL     1      -2.169 -12.885  12.960  0.00  0.00    +0.146 C 
ATOM     12  C   UNL     1      -2.220 -14.289  12.331  0.00  0.00    +0.030 C 
ATOM     13  C   UNL     1      -3.081 -15.116  13.276  0.00  0.00    +0.017 C 
ATOM     14  C   UNL     1      -2.982 -14.373  14.592  0.00  0.00    +0.085 C 
ENDROOT
BRANCH  11  16
ATOM      4  O   UNL     1      -1.817 -10.704  11.914  0.00  0.00    -0.336 OA
ATOM      7  N   UNL     1      -3.676 -11.754  11.236  0.00  0.00    -0.190 NA
ATOM      8  N   UNL     1      -2.427  -9.854  10.982  0.00  0.00    -0.056 NA
ATOM     16  C   UNL     1      -2.616 -11.800  12.003  0.00  0.00    +0.245 A 
ATOM     20  C   UNL     1      -3.517 -10.542  10.630  0.00  0.00    +0.204 A 
BRANCH  20  23
ATOM      9  N   UNL     1      -5.482 -10.236   7.488  0.00  0.00    -0.240 NA
ATOM     23  C   UNL     1      -4.466 -10.049   9.673  0.00  0.00    +0.041 A 
ATOM     25  C   UNL     1      -5.268  -8.951   9.961  0.00  0.00    +0.016 A 
ATOM     26  C   UNL     1      -4.609 -10.650   8.433  0.00  0.00    +0.124 A 
ATOM     27  C   UNL     1      -6.179  -8.495   9.014  0.00  0.00    +0.044 A 
ATOM     28  C   UNL     1      -6.246  -9.166   7.803  0.00  0.00    +0.121 A 
BRANCH  28  10
ATOM     10  N   UNL     1      -7.179  -8.690   6.848  0.00  0.00    -0.321 N 
ATOM     30  C   UNL     1      -8.233  -7.787   7.250  0.00  0.00    +0.130 C 
ATOM     31  C   UNL     1      -7.086  -9.110   5.468  0.00  0.00    +0.130 C 
ENDBRANCH  28  10
ENDBRANCH  20  23
ENDBRANCH  11  16
BRANCH   6  15
ATOM     15  C   UNL     1      -2.639 -12.058  15.218  0.00  0.00    +0.120 C 
BRANCH  15  17
ATOM     17  C   UNL     1      -3.811 -11.264  15.731  0.00  0.00    -0.030 A 
ATOM     18  C   UNL     1      -4.010 -11.124  17.105  0.00  0.00    +0.051 A 
ATOM     19  C   UNL     1      -4.698 -10.669  14.834  0.00  0.00    +0.005 A 
ATOM     21  C   UNL     1      -5.096 -10.389  17.581  0.00  0.00    +0.130 A 
ATOM     22  C   UNL     1      -5.783  -9.935  15.310  0.00  0.00    +0.004 A 
ATOM     24  C   UNL     1      -5.982  -9.794  16.684  0.00  0.00    +0.046 A 
BRANCH  21   5
ATOM      5  O   UNL     1      -5.289 -10.254  18.922  0.00  0.00    -0.406 OA
BRANCH   5  29
ATOM      1  F   UNL     1      -7.380 -10.742  19.712  0.00  0.00    -0.133 F 
ATOM      2  F   UNL     1      -5.626 -11.421  20.824  0.00  0.00    -0.133 F 
ATOM      3  F   UNL     1      -6.125 -12.383  18.925  0.00  0.00    -0.133 F 
ATOM     29  C   UNL     1      -6.117 -11.204  19.583  0.00  0.00    +0.575 C 
ENDBRANCH   5  29
ENDBRANCH  21   5
ENDBRANCH  15  17
ENDBRANCH   6  15
TORSDOF 7
ENDMDL
MODEL 9
REMARK VINA RESULT:      -6.0     26.677     29.854
REMARK  Name = 45783826
REMARK  9 active torsions:
REMARK  status: ('A' for Active; 'I' for Inactive)
REMARK    1  A    between atoms: O_5  and  C_21
REMARK    2  A    between atoms: O_5  and  C_29
REMARK    3  A    between atoms: N_6  and  C_15
REMARK    4  A    between atoms: N_10  and  C_28
REMARK    5  A    between atoms: N_10  and  C_30
REMARK    6  A    between atoms: N_10  and  C_31
REMARK    7  A    between atoms: C_11  and  C_16
REMARK    8  A    between atoms: C_15  and  C_17
REMARK    9  A    between atoms: C_20  and  C_23
REMARK                            x       y       z     vdW  Elec       q    Type
REMARK                         _______ _______ _______ _____ _____    ______ ____
ROOT
ATOM      6  N   UNL     1      -3.273 -10.722  14.574  0.00  0.00    -0.287 NA
ATOM     11  C   UNL     1      -3.697 -11.322  15.854  0.00  0.00    +0.146 C 
ATOM     12  C   UNL     1      -2.544 -11.021  16.829  0.00  0.00    +0.030 C 
ATOM     13  C   UNL     1      -1.494 -10.304  15.992  0.00  0.00    +0.017 C 
ATOM     14  C   UNL     1      -1.810 -10.736  14.575  0.00  0.00    +0.085 C 
ENDROOT
BRANCH  11  16
ATOM      4  O   UNL     1      -5.382  -9.551  15.886  0.00  0.00    -0.336 OA
ATOM      7  N   UNL     1      -5.903 -11.332  17.142  0.00  0.00    -0.190 NA
ATOM      8  N   UNL     1      -6.629  -9.272  16.461  0.00  0.00    -0.056 NA
ATOM     16  C   UNL     1      -5.027 -10.783  16.338  0.00  0.00    +0.245 A 
ATOM     20  C   UNL     1      -6.867 -10.368  17.187  0.00  0.00    +0.204 A 
BRANCH  20  23
ATOM      9  N   UNL     1      -9.168 -11.560  19.854  0.00  0.00    -0.240 NA
ATOM     23  C   UNL     1      -8.060 -10.533  17.967  0.00  0.00    +0.041 A 
ATOM     25  C   UNL     1      -9.233  -9.866  17.632  0.00  0.00    +0.016 A 
ATOM     26  C   UNL     1      -8.080 -11.361  19.078  0.00  0.00    +0.124 A 
ATOM     27  C   UNL     1     -10.374 -10.045  18.406  0.00  0.00    +0.044 A 
ATOM     28  C   UNL     1     -10.291 -10.896  19.498  0.00  0.00    +0.121 A 
BRANCH  28  10
ATOM     10  N   UNL     1     -11.461 -11.067  20.277  0.00  0.00    -0.321 N 
ATOM     30  C   UNL     1     -11.756 -12.351  20.873  0.00  0.00    +0.130 C 
ATOM     31  C   UNL     1     -12.371  -9.962  20.476  0.00  0.00    +0.130 C 
ENDBRANCH  28  10
ENDBRANCH  20  23
ENDBRANCH  11  16
BRANCH   6  15
ATOM     15  C   UNL     1      -3.827 -11.400  13.409  0.00  0.00    +0.120 C 
BRANCH  15  17
ATOM     17  C   UNL     1      -4.000 -10.463  12.244  0.00  0.00    -0.030 A 
ATOM     18  C   UNL     1      -5.229  -9.838  12.029  0.00  0.00    +0.051 A 
ATOM     19  C   UNL     1      -2.934 -10.219  11.379  0.00  0.00    +0.005 A 
ATOM     21  C   UNL     1      -5.391  -8.969  10.950  0.00  0.00    +0.130 A 
ATOM     22  C   UNL     1      -3.096  -9.351  10.299  0.00  0.00    +0.004 A 
ATOM     24  C   UNL     1      -4.325  -8.725  10.086  0.00  0.00    +0.046 A 
BRANCH  21   5
ATOM      5  O   UNL     1      -6.590  -8.360  10.741  0.00  0.00    -0.406 OA
BRANCH   5  29
ATOM      1  F   UNL     1      -8.712  -8.617   9.925  0.00  0.00    -0.133 F 
ATOM      2  F   UNL     1      -7.209 -10.149   9.512  0.00  0.00    -0.133 F 
ATOM      3  F   UNL     1      -7.064  -8.213   8.508  0.00  0.00    -0.133 F 
ATOM     29  C   UNL     1      -7.402  -8.819   9.666  0.00  0.00    +0.575 C 
ENDBRANCH   5  29
ENDBRANCH  21   5
ENDBRANCH  15  17
ENDBRANCH   6  15
TORSDOF 7
ENDMDL
MODEL 10
REMARK VINA RESULT:      -5.9     26.498     29.767
REMARK  Name = 45783826
REMARK  9 active torsions:
REMARK  status: ('A' for Active; 'I' for Inactive)
REMARK    1  A    between atoms: O_5  and  C_21
REMARK    2  A    between atoms: O_5  and  C_29
REMARK    3  A    between atoms: N_6  and  C_15
REMARK    4  A    between atoms: N_10  and  C_28
REMARK    5  A    between atoms: N_10  and  C_30
REMARK    6  A    between atoms: N_10  and  C_31
REMARK    7  A    between atoms: C_11  and  C_16
REMARK    8  A    between atoms: C_15  and  C_17
REMARK    9  A    between atoms: C_20  and  C_23
REMARK                            x       y       z     vdW  Elec       q    Type
REMARK                         _______ _______ _______ _____ _____    ______ ____
ROOT
ATOM      6  N   UNL     1      -4.918 -11.760  17.358  0.00  0.00    -0.287 NA
ATOM     11  C   UNL     1      -6.375 -11.966  17.473  0.00  0.00    +0.146 C 
ATOM     12  C   UNL     1      -6.680 -11.772  18.970  0.00  0.00    +0.030 C 
ATOM     13  C   UNL     1      -5.327 -11.523  19.622  0.00  0.00    +0.017 C 
ATOM     14  C   UNL     1      -4.343 -12.139  18.649  0.00  0.00    +0.085 C 
ENDROOT
BRANCH  11  16
ATOM      4  O   UNL     1      -6.710 -10.858  15.321  0.00  0.00    -0.336 OA
ATOM      7  N   UNL     1      -8.246 -10.338  16.866  0.00  0.00    -0.190 NA
ATOM      8  N   UNL     1      -7.593  -9.960  14.706  0.00  0.00    -0.056 NA
ATOM     16  C   UNL     1      -7.168 -11.027  16.589  0.00  0.00    +0.245 A 
ATOM     20  C   UNL     1      -8.469  -9.699  15.681  0.00  0.00    +0.204 A 
BRANCH  20  23
ATOM      9  N   UNL     1     -11.466  -8.101  14.167  0.00  0.00    -0.240 NA
ATOM     23  C   UNL     1      -9.579  -8.807  15.503  0.00  0.00    +0.041 A 
ATOM     25  C   UNL     1      -9.857  -7.815  16.435  0.00  0.00    +0.016 A 
ATOM     26  C   UNL     1     -10.406  -8.908  14.395  0.00  0.00    +0.124 A 
ATOM     27  C   UNL     1     -10.940  -6.965  16.236  0.00  0.00    +0.044 A 
ATOM     28  C   UNL     1     -11.706  -7.148  15.096  0.00  0.00    +0.121 A 
BRANCH  28  10
ATOM     10  N   UNL     1     -12.806  -6.275  14.907  0.00  0.00    -0.321 N 
ATOM     30  C   UNL     1     -14.051  -6.513  15.602  0.00  0.00    +0.130 C 
ATOM     31  C   UNL     1     -12.693  -5.145  14.012  0.00  0.00    +0.130 C 
ENDBRANCH  28  10
ENDBRANCH  20  23
ENDBRANCH  11  16
BRANCH   6  15
ATOM     15  C   UNL     1      -4.319 -12.500  16.254  0.00  0.00    +0.120 C 
BRANCH  15  17
ATOM     17  C   UNL     1      -3.309 -11.670  15.506  0.00  0.00    -0.030 A 
ATOM     18  C   UNL     1      -3.170 -11.818  14.126  0.00  0.00    +0.051 A 
ATOM     19  C   UNL     1      -2.512 -10.754  16.192  0.00  0.00    +0.005 A 
ATOM     21  C   UNL     1      -2.234 -11.050  13.432  0.00  0.00    +0.130 A 
ATOM     22  C   UNL     1      -1.576  -9.987  15.499  0.00  0.00    +0.004 A 
ATOM     24  C   UNL     1      -1.438 -10.134  14.119  0.00  0.00    +0.046 A 
BRANCH  21   5
ATOM      5  O   UNL     1      -2.099 -11.195  12.086  0.00  0.00    -0.406 OA
BRANCH   5  29
ATOM      1  F   UNL     1      -1.937  -9.273  10.855  0.00  0.00    -0.133 F 
ATOM      2  F   UNL     1      -3.793  -9.712  11.922  0.00  0.00    -0.133 F 
ATOM      3  F   UNL     1      -3.277 -10.883  10.150  0.00  0.00    -0.133 F 
ATOM     29  C   UNL     1      -2.767 -10.267  11.238  0.00  0.00    +0.575 C 
ENDBRANCH   5  29
ENDBRANCH  21   5
ENDBRANCH  15  17
ENDBRANCH   6  15
TORSDOF 7
ENDMDL
