REMARK  Name = 11882060
REMARK  9 active torsions:
REMARK  status: ('A' for Active; 'I' for Inactive)
REMARK    1  A    between atoms: N_9  and  C_14
REMARK    2  A    between atoms: N_10  and  C_21
REMARK    3  A    between atoms: N_11  and  C_29
REMARK    4  A    between atoms: N_12  and  C_30
REMARK    5  A    between atoms: C_15  and  C_18
REMARK    6  A    between atoms: C_19  and  C_20
REMARK    7  A    between atoms: C_21  and  C_23
REMARK    8  A    between atoms: C_21  and  C_25
REMARK    9  A    between atoms: C_23  and  C_28
REMARK                            x       y       z     vdW  Elec       q    Type
REMARK                         _______ _______ _______ _____ _____    ______ ____
ROOT
ATOM      5  O   UNL     1       2.381  -1.349  -1.399  0.00  0.00    -0.268 OA
ATOM      8  N   UNL     1       1.264  -1.806   0.566  0.00  0.00    -0.283 N 
ATOM     14  C   UNL     1      -0.442  -0.662   1.752  0.00  0.00    +0.105 C 
ATOM     15  C   UNL     1       0.631  -0.495   0.675  0.00  0.00    +0.182 C 
ATOM     16  C   UNL     1       0.118  -1.777   2.639  0.00  0.00    +0.043 C 
ATOM     17  C   UNL     1       0.844  -2.687   1.657  0.00  0.00    +0.111 C 
ATOM     19  C   UNL     1       2.073  -2.153  -0.519  0.00  0.00    +0.264 C 
ENDROOT
BRANCH  14   9
ATOM      6  O   UNL     1      -2.576   1.088   0.986  0.00  0.00    -0.252 OA
ATOM      9  N   UNL     1      -1.708  -1.046   1.173  0.00  0.00    -0.294 N 
ATOM     12  N   UNL     1      -3.810  -0.784   0.290  0.00  0.00    -0.267 N 
ATOM     22  C   UNL     1      -2.701  -0.124   0.826  0.00  0.00    +0.304 C 
ATOM     39  H   UNL     1      -1.861  -2.025   0.947  0.00  0.00    +0.151 HD
ATOM     41  H   UNL     1      -3.755  -1.798   0.227  0.00  0.00    +0.156 HD
BRANCH  12  30
ATOM      2  F   UNL     1      -5.868  -2.361  -0.732  0.00  0.00    -0.203 F 
ATOM      3  F   UNL     1      -8.535   1.461  -1.545  0.00  0.00    -0.205 F 
ATOM     30  C   UNL     1      -5.016  -0.214  -0.180  0.00  0.00    +0.070 A 
ATOM     32  C   UNL     1      -6.028  -1.031  -0.685  0.00  0.00    +0.147 A 
ATOM     33  C   UNL     1      -5.193   1.169  -0.136  0.00  0.00    +0.029 A 
ATOM     36  C   UNL     1      -7.216  -0.465  -1.147  0.00  0.00    +0.078 A 
ATOM     37  C   UNL     1      -6.382   1.735  -0.598  0.00  0.00    +0.040 A 
ATOM     38  C   UNL     1      -7.393   0.918  -1.103  0.00  0.00    +0.126 A 
ENDBRANCH  12  30
ENDBRANCH  14   9
BRANCH  19  20
ATOM     11  N   UNL     1       3.893  -3.873  -0.548  0.00  0.00    -0.346 N 
ATOM     20  C   UNL     1       2.568  -3.524  -0.549  0.00  0.00    +0.104 A 
ATOM     24  C   UNL     1       1.825  -4.684  -0.584  0.00  0.00    +0.032 A 
ATOM     26  C   UNL     1       4.008  -5.239  -0.582  0.00  0.00    +0.086 A 
ATOM     27  C   UNL     1       2.736  -5.769  -0.605  0.00  0.00    +0.020 A 
ATOM     29  C   UNL     1       5.011  -2.956  -0.516  0.00  0.00    +0.149 C 
ENDBRANCH  19  20
BRANCH  15  18
ATOM      4  O   UNL     1       2.637   0.109   1.821  0.00  0.00    -0.274 OA
ATOM     10  N   UNL     1       1.469   1.750   0.653  0.00  0.00    -0.302 N 
ATOM     18  C   UNL     1       1.697   0.465   1.115  0.00  0.00    +0.236 C 
ATOM     40  H   UNL     1       0.612   1.942   0.142  0.00  0.00    +0.150 HD
BRANCH  10  21
ATOM     21  C   UNL     1       2.337   2.864   0.956  0.00  0.00    +0.163 C 
BRANCH  21  25
ATOM      7  O   UNL     1       0.696   3.489   2.637  0.00  0.00    -0.274 OA
ATOM     13  N   UNL     1       2.918   3.872   3.075  0.00  0.00    -0.328 N 
ATOM     25  C   UNL     1       1.872   3.445   2.284  0.00  0.00    +0.231 C 
ATOM     42  H   UNL     1       2.747   4.266   3.995  0.00  0.00    +0.145 HD
ATOM     43  H   UNL     1       3.886   3.826   2.774  0.00  0.00    +0.145 HD
ENDBRANCH  21  25
BRANCH  21  23
ATOM     23  C   UNL     1       2.307   3.939  -0.137  0.00  0.00    +0.074 C 
BRANCH  23  28
ATOM      1  S   UNL     1       4.414   4.628  -1.824  0.00  0.00    -0.102 S 
ATOM     28  C   UNL     1       3.161   3.572  -1.327  0.00  0.00    -0.008 A 
ATOM     31  C   UNL     1       3.084   2.450  -2.124  0.00  0.00    +0.011 A 
ATOM     34  C   UNL     1       4.067   2.459  -3.156  0.00  0.00    +0.008 A 
ATOM     35  C   UNL     1       4.857   3.587  -3.109  0.00  0.00    +0.045 A 
ENDBRANCH  23  28
ENDBRANCH  21  23
ENDBRANCH  10  21
ENDBRANCH  15  18
TORSDOF 8
