REMARK  Name = 11942229
REMARK  7 active torsions:
REMARK  status: ('A' for Active; 'I' for Inactive)
REMARK    1  A    between atoms: O_2  and  C_22
REMARK    2  A    between atoms: O_2  and  C_23
REMARK    3  A    between atoms: N_4  and  C_17
REMARK    4  A    between atoms: N_5  and  C_15
REMARK    5  A    between atoms: C_9  and  C_16
REMARK    6  A    between atoms: C_10  and  C_15
REMARK    7  A    between atoms: C_21  and  C_22
REMARK                            x       y       z     vdW  Elec       q    Type
REMARK                         _______ _______ _______ _____ _____    ______ ____
ROOT
ATOM      3  N   UNL     1       0.945   2.088  -1.263  0.00  0.00    -0.297 NA
ATOM      8  C   UNL     1       1.425   1.766   1.274  0.00  0.00    +0.005 C 
ATOM      9  C   UNL     1       2.587   1.231   0.415  0.00  0.00    +0.092 C 
ATOM     10  C   UNL     1      -0.200   1.395  -0.614  0.00  0.00    +0.078 C 
ATOM     11  C   UNL     1       0.122   1.054   0.858  0.00  0.00    +0.025 C 
ATOM     12  C   UNL     1       1.264   3.256   0.926  0.00  0.00    +0.020 C 
ATOM     13  C   UNL     1       2.194   1.310  -1.071  0.00  0.00    +0.097 C 
ATOM     14  C   UNL     1       1.115   3.405  -0.599  0.00  0.00    +0.085 C 
ENDROOT
BRANCH   9  16
ATOM      1  O   UNL     1       2.364  -0.766   1.705  0.00  0.00    -0.275 OA
ATOM      4  N   UNL     1       4.047  -0.647   0.105  0.00  0.00    -0.312 N 
ATOM     16  C   UNL     1       2.962  -0.163   0.818  0.00  0.00    +0.218 C 
ATOM     24  H   UNL     1       4.494  -0.063  -0.596  0.00  0.00    +0.149 HD
BRANCH   4  17
ATOM     17  C   UNL     1       4.603  -1.949   0.339  0.00  0.00    +0.073 C 
ATOM     18  C   UNL     1       5.368  -2.657  -0.731  0.00  0.00    +0.024 C 
ATOM     19  C   UNL     1       4.017  -3.158  -0.315  0.00  0.00    +0.024 C 
ENDBRANCH   4  17
ENDBRANCH   9  16
BRANCH  10  15
ATOM     15  C   UNL     1      -0.653   0.161  -1.397  0.00  0.00    +0.164 C 
BRANCH  15   5
ATOM      5  N   UNL     1      -1.859  -0.424  -0.835  0.00  0.00    -0.250 N 
ATOM      6  N   UNL     1      -1.772  -1.369   0.107  0.00  0.00    -0.065 NA
ATOM      7  N   UNL     1      -3.015  -1.712   0.422  0.00  0.00    -0.132 NA
ATOM     20  C   UNL     1      -3.140  -0.128  -1.155  0.00  0.00    +0.136 A 
ATOM     21  C   UNL     1      -3.865  -0.962  -0.342  0.00  0.00    +0.108 A 
BRANCH  21  22
ATOM     22  C   UNL     1      -5.322  -1.106  -0.229  0.00  0.00    +0.218 C 
BRANCH  22   2
ATOM      2  O   UNL     1      -5.891  -0.229   0.751  0.00  0.00    -0.377 OA
ATOM     23  C   UNL     1      -7.296  -0.397   0.832  0.00  0.00    +0.194 C 
ENDBRANCH  22   2
ENDBRANCH  21  22
ENDBRANCH  15   5
ENDBRANCH  10  15
TORSDOF 6
