MODEL 1
REMARK VINA RESULT:      -8.2      0.000      0.000
REMARK  Name = 7663744
REMARK  3 active torsions:
REMARK  status: ('A' for Active; 'I' for Inactive)
REMARK    1  A    between atoms: C_15  and  C_18
REMARK    2  A    between atoms: C_16  and  C_19
REMARK    3  A    between atoms: C_22  and  C_26
REMARK                            x       y       z     vdW  Elec       q    Type
REMARK                         _______ _______ _______ _____ _____    ______ ____
ROOT
ATOM      2  O   UNL     1      15.329   6.031  21.157  0.00  0.00    -0.267 OA
ATOM      3  O   UNL     1      11.680   7.349  17.742  0.00  0.00    -0.270 OA
ATOM      4  N   UNL     1      11.714   8.985  19.414  0.00  0.00    -0.297 N 
ATOM      5  N   UNL     1      14.130   8.028  21.233  0.00  0.00    -0.311 N 
ATOM      6  C   UNL     1      11.619   8.104  21.739  0.00  0.00    +0.027 C 
ATOM      7  C   UNL     1      12.838  10.191  21.270  0.00  0.00    +0.054 C 
ATOM      8  C   UNL     1      11.914   9.502  22.273  0.00  0.00    +0.018 C 
ATOM      9  C   UNL     1      10.937   8.187  20.361  0.00  0.00    +0.113 C 
ATOM     10  C   UNL     1      12.930   7.310  21.687  0.00  0.00    +0.130 C 
ATOM     11  C   UNL     1      12.127  10.308  19.907  0.00  0.00    +0.117 C 
ATOM     12  C   UNL     1      14.134   9.419  21.105  0.00  0.00    +0.027 A 
ATOM     13  C   UNL     1      15.271  10.064  20.800  0.00  0.00    +0.022 A 
ATOM     14  C   UNL     1      15.293   7.256  21.034  0.00  0.00    +0.259 A 
ATOM     15  C   UNL     1      12.022   8.453  18.159  0.00  0.00    +0.247 C 
ATOM     16  C   UNL     1      16.545   8.004  20.663  0.00  0.00    +0.040 A 
ATOM     17  C   UNL     1      16.491   9.341  20.577  0.00  0.00    +0.015 A 
ENDROOT
BRANCH  15  18
ATOM     18  C   UNL     1      12.843   9.263  17.252  0.00  0.00    +0.037 A 
ATOM     20  C   UNL     1      12.337   9.640  16.011  0.00  0.00    +0.013 A 
ATOM     21  C   UNL     1      14.125   9.647  17.636  0.00  0.00    +0.013 A 
ATOM     23  C   UNL     1      13.119  10.408  15.148  0.00  0.00    +0.001 A 
ATOM     24  C   UNL     1      14.906  10.416  16.773  0.00  0.00    +0.001 A 
ATOM     25  C   UNL     1      14.403  10.796  15.529  0.00  0.00    +0.000 A 
ENDBRANCH  15  18
BRANCH  16  19
ATOM     19  C   UNL     1      17.770   7.283  20.423  0.00  0.00    +0.014 C 
ATOM     22  C   UNL     1      18.907   7.540  21.081  0.00  0.00    +0.008 C 
BRANCH  22  26
ATOM      1 CL   UNL     1      24.077   4.699  20.205  0.00  0.00    -0.084 Cl
ATOM     26  C   UNL     1      20.183   6.839  20.865  0.00  0.00    -0.025 A 
ATOM     27  C   UNL     1      20.190   5.457  20.767  0.00  0.00    +0.009 A 
ATOM     28  C   UNL     1      21.354   7.574  20.763  0.00  0.00    +0.009 A 
ATOM     29  C   UNL     1      21.399   4.792  20.562  0.00  0.00    +0.020 A 
ATOM     30  C   UNL     1      22.563   6.910  20.558  0.00  0.00    +0.020 A 
ATOM     31  C   UNL     1      22.585   5.519  20.457  0.00  0.00    +0.041 A 
ENDBRANCH  22  26
ENDBRANCH  16  19
TORSDOF 3
ENDMDL
MODEL 2
REMARK VINA RESULT:      -8.1      1.659      2.293
REMARK  Name = 7663744
REMARK  3 active torsions:
REMARK  status: ('A' for Active; 'I' for Inactive)
REMARK    1  A    between atoms: C_15  and  C_18
REMARK    2  A    between atoms: C_16  and  C_19
REMARK    3  A    between atoms: C_22  and  C_26
REMARK                            x       y       z     vdW  Elec       q    Type
REMARK                         _______ _______ _______ _____ _____    ______ ____
ROOT
ATOM      2  O   UNL     1      15.735   5.966  19.384  0.00  0.00    -0.267 OA
ATOM      3  O   UNL     1      12.995   9.769  17.206  0.00  0.00    -0.270 OA
ATOM      4  N   UNL     1      12.404   9.671  19.467  0.00  0.00    -0.297 N 
ATOM      5  N   UNL     1      14.345   7.415  20.565  0.00  0.00    -0.311 N 
ATOM      6  C   UNL     1      11.797   7.403  20.292  0.00  0.00    +0.027 C 
ATOM      7  C   UNL     1      12.857   9.016  21.819  0.00  0.00    +0.054 C 
ATOM      8  C   UNL     1      11.783   7.934  21.720  0.00  0.00    +0.018 C 
ATOM      9  C   UNL     1      11.498   8.537  19.294  0.00  0.00    +0.113 C 
ATOM     10  C   UNL     1      13.155   6.742  20.024  0.00  0.00    +0.130 C 
ATOM     11  C   UNL     1      12.522  10.166  20.848  0.00  0.00    +0.117 C 
ATOM     12  C   UNL     1      14.228   8.455  21.492  0.00  0.00    +0.027 A 
ATOM     13  C   UNL     1      15.326   8.977  22.060  0.00  0.00    +0.022 A 
ATOM     14  C   UNL     1      15.597   6.894  20.182  0.00  0.00    +0.259 A 
ATOM     15  C   UNL     1      13.089  10.178  18.361  0.00  0.00    +0.247 C 
ATOM     16  C   UNL     1      16.812   7.521  20.812  0.00  0.00    +0.040 A 
ATOM     17  C   UNL     1      16.634   8.500  21.711  0.00  0.00    +0.015 A 
ENDROOT
BRANCH  15  18
ATOM     18  C   UNL     1      14.025  11.286  18.581  0.00  0.00    +0.037 A 
ATOM     20  C   UNL     1      15.338  11.019  18.960  0.00  0.00    +0.013 A 
ATOM     21  C   UNL     1      13.596  12.600  18.411  0.00  0.00    +0.013 A 
ATOM     23  C   UNL     1      16.228  12.073  19.170  0.00  0.00    +0.001 A 
ATOM     24  C   UNL     1      14.486  13.653  18.621  0.00  0.00    +0.001 A 
ATOM     25  C   UNL     1      15.802  13.390  19.000  0.00  0.00    +0.000 A 
ENDBRANCH  15  18
BRANCH  16  19
ATOM     19  C   UNL     1      18.129   7.056  20.455  0.00  0.00    +0.014 C 
ATOM     22  C   UNL     1      19.051   6.715  21.364  0.00  0.00    +0.008 C 
BRANCH  22  26
ATOM      1 CL   UNL     1      24.557   4.808  20.089  0.00  0.00    -0.084 Cl
ATOM     26  C   UNL     1      20.410   6.245  21.049  0.00  0.00    -0.025 A 
ATOM     27  C   UNL     1      21.400   7.170  20.761  0.00  0.00    +0.009 A 
ATOM     28  C   UNL     1      20.675   4.884  21.048  0.00  0.00    +0.009 A 
ATOM     29  C   UNL     1      22.687   6.724  20.462  0.00  0.00    +0.020 A 
ATOM     30  C   UNL     1      21.962   4.438  20.750  0.00  0.00    +0.020 A 
ATOM     31  C   UNL     1      22.968   5.359  20.457  0.00  0.00    +0.041 A 
ENDBRANCH  22  26
ENDBRANCH  16  19
TORSDOF 3
ENDMDL
MODEL 3
REMARK VINA RESULT:      -7.8     13.636     17.010
REMARK  Name = 7663744
REMARK  3 active torsions:
REMARK  status: ('A' for Active; 'I' for Inactive)
REMARK    1  A    between atoms: C_15  and  C_18
REMARK    2  A    between atoms: C_16  and  C_19
REMARK    3  A    between atoms: C_22  and  C_26
REMARK                            x       y       z     vdW  Elec       q    Type
REMARK                         _______ _______ _______ _____ _____    ______ ____
ROOT
ATOM      2  O   UNL     1      18.832  -6.058  28.746  0.00  0.00    -0.267 OA
ATOM      3  O   UNL     1      20.349  -2.833  25.002  0.00  0.00    -0.270 OA
ATOM      4  N   UNL     1      20.036  -4.943  24.041  0.00  0.00    -0.297 N 
ATOM      5  N   UNL     1      18.947  -6.636  26.492  0.00  0.00    -0.311 N 
ATOM      6  C   UNL     1      21.170  -6.812  25.230  0.00  0.00    +0.027 C 
ATOM      7  C   UNL     1      19.053  -7.223  24.044  0.00  0.00    +0.054 C 
ATOM      8  C   UNL     1      20.429  -7.812  24.350  0.00  0.00    +0.018 C 
ATOM      9  C   UNL     1      21.322  -5.464  24.501  0.00  0.00    +0.113 C 
ATOM     10  C   UNL     1      20.415  -6.668  26.558  0.00  0.00    +0.130 C 
ATOM     11  C   UNL     1      19.218  -5.897  23.275  0.00  0.00    +0.117 C 
ATOM     12  C   UNL     1      18.268  -6.979  25.320  0.00  0.00    +0.027 A 
ATOM     13  C   UNL     1      16.928  -7.055  25.314  0.00  0.00    +0.022 A 
ATOM     14  C   UNL     1      18.265  -6.344  27.691  0.00  0.00    +0.259 A 
ATOM     15  C   UNL     1      19.670  -3.635  24.362  0.00  0.00    +0.247 C 
ATOM     16  C   UNL     1      16.761  -6.407  27.646  0.00  0.00    +0.040 A 
ATOM     17  C   UNL     1      16.170  -6.764  26.498  0.00  0.00    +0.015 A 
ENDROOT
BRANCH  15  18
ATOM     18  C   UNL     1      18.353  -3.161  23.924  0.00  0.00    +0.037 A 
ATOM     20  C   UNL     1      18.244  -2.380  22.776  0.00  0.00    +0.013 A 
ATOM     21  C   UNL     1      17.218  -3.493  24.659  0.00  0.00    +0.013 A 
ATOM     23  C   UNL     1      16.990  -1.929  22.361  0.00  0.00    +0.001 A 
ATOM     24  C   UNL     1      15.965  -3.042  24.243  0.00  0.00    +0.001 A 
ATOM     25  C   UNL     1      15.852  -2.260  23.094  0.00  0.00    +0.000 A 
ENDBRANCH  15  18
BRANCH  16  19
ATOM     19  C   UNL     1      15.993  -6.101  28.826  0.00  0.00    +0.014 C 
ATOM     22  C   UNL     1      14.726  -6.501  28.994  0.00  0.00    +0.008 C 
BRANCH  22  26
ATOM      1 CL   UNL     1      11.373  -5.305  33.779  0.00  0.00    -0.084 Cl
ATOM     26  C   UNL     1      13.899  -6.205  30.175  0.00  0.00    -0.025 A 
ATOM     27  C   UNL     1      14.305  -5.220  31.060  0.00  0.00    +0.009 A 
ATOM     28  C   UNL     1      12.728  -6.919  30.380  0.00  0.00    +0.009 A 
ATOM     29  C   UNL     1      13.521  -4.940  32.179  0.00  0.00    +0.020 A 
ATOM     30  C   UNL     1      11.944  -6.640  31.499  0.00  0.00    +0.020 A 
ATOM     31  C   UNL     1      12.341  -5.650  32.398  0.00  0.00    +0.041 A 
ENDBRANCH  22  26
ENDBRANCH  16  19
TORSDOF 3
ENDMDL
MODEL 4
REMARK VINA RESULT:      -7.7     27.475     30.611
REMARK  Name = 7663744
REMARK  3 active torsions:
REMARK  status: ('A' for Active; 'I' for Inactive)
REMARK    1  A    between atoms: C_15  and  C_18
REMARK    2  A    between atoms: C_16  and  C_19
REMARK    3  A    between atoms: C_22  and  C_26
REMARK                            x       y       z     vdW  Elec       q    Type
REMARK                         _______ _______ _______ _____ _____    ______ ____
ROOT
ATOM      2  O   UNL     1      -6.667  -9.818  13.944  0.00  0.00    -0.267 OA
ATOM      3  O   UNL     1      -4.872 -14.432  12.459  0.00  0.00    -0.270 OA
ATOM      4  N   UNL     1      -3.034 -13.107  13.041  0.00  0.00    -0.297 N 
ATOM      5  N   UNL     1      -4.427 -10.450  14.071  0.00  0.00    -0.311 N 
ATOM      6  C   UNL     1      -2.994 -10.854  11.986  0.00  0.00    +0.027 C 
ATOM      7  C   UNL     1      -2.019 -11.174  14.223  0.00  0.00    +0.054 C 
ATOM      8  C   UNL     1      -1.827 -10.461  12.885  0.00  0.00    +0.018 C 
ATOM      9  C   UNL     1      -3.019 -12.379  11.773  0.00  0.00    +0.113 C 
ATOM     10  C   UNL     1      -4.295 -10.336  12.611  0.00  0.00    +0.130 C 
ATOM     11  C   UNL     1      -1.997 -12.700  14.004  0.00  0.00    +0.117 C 
ATOM     12  C   UNL     1      -3.329 -10.770  14.873  0.00  0.00    +0.027 A 
ATOM     13  C   UNL     1      -3.444 -10.755  16.210  0.00  0.00    +0.022 A 
ATOM     14  C   UNL     1      -5.683 -10.123  14.621  0.00  0.00    +0.259 A 
ATOM     15  C   UNL     1      -4.004 -14.088  13.259  0.00  0.00    +0.247 C 
ATOM     16  C   UNL     1      -5.791 -10.146  16.122  0.00  0.00    +0.040 A 
ATOM     17  C   UNL     1      -4.696 -10.438  16.838  0.00  0.00    +0.015 A 
ENDROOT
BRANCH  15  18
ATOM     18  C   UNL     1      -4.017 -14.765  14.560  0.00  0.00    +0.037 A 
ATOM     20  C   UNL     1      -3.287 -15.937  14.739  0.00  0.00    +0.013 A 
ATOM     21  C   UNL     1      -4.762 -14.234  15.609  0.00  0.00    +0.013 A 
ATOM     23  C   UNL     1      -3.302 -16.582  15.976  0.00  0.00    +0.001 A 
ATOM     24  C   UNL     1      -4.776 -14.878  16.847  0.00  0.00    +0.001 A 
ATOM     25  C   UNL     1      -4.046 -16.052  17.030  0.00  0.00    +0.000 A 
ENDBRANCH  15  18
BRANCH  16  19
ATOM     19  C   UNL     1      -7.048  -9.843  16.759  0.00  0.00    +0.014 C 
ATOM     22  C   UNL     1      -7.650 -10.678  17.614  0.00  0.00    +0.008 C 
BRANCH  22  26
ATOM      1 CL   UNL     1     -12.863  -9.626  20.316  0.00  0.00    -0.084 Cl
ATOM     26  C   UNL     1      -8.937 -10.418  18.281  0.00  0.00    -0.025 A 
ATOM     27  C   UNL     1      -9.865  -9.592  17.668  0.00  0.00    +0.009 A 
ATOM     28  C   UNL     1      -9.196 -11.006  19.510  0.00  0.00    +0.009 A 
ATOM     29  C   UNL     1     -11.084  -9.346  18.300  0.00  0.00    +0.020 A 
ATOM     30  C   UNL     1     -10.415 -10.760  20.142  0.00  0.00    +0.020 A 
ATOM     31  C   UNL     1     -11.359  -9.930  19.536  0.00  0.00    +0.041 A 
ENDBRANCH  22  26
ENDBRANCH  16  19
TORSDOF 3
ENDMDL
MODEL 5
REMARK VINA RESULT:      -7.7     13.194     15.089
REMARK  Name = 7663744
REMARK  3 active torsions:
REMARK  status: ('A' for Active; 'I' for Inactive)
REMARK    1  A    between atoms: C_15  and  C_18
REMARK    2  A    between atoms: C_16  and  C_19
REMARK    3  A    between atoms: C_22  and  C_26
REMARK                            x       y       z     vdW  Elec       q    Type
REMARK                         _______ _______ _______ _____ _____    ______ ____
ROOT
ATOM      2  O   UNL     1      13.803   6.227   7.634  0.00  0.00    -0.267 OA
ATOM      3  O   UNL     1      10.463   4.199   4.250  0.00  0.00    -0.270 OA
ATOM      4  N   UNL     1       9.591   6.246   4.971  0.00  0.00    -0.297 N 
ATOM      5  N   UNL     1      11.900   7.326   6.859  0.00  0.00    -0.311 N 
ATOM      6  C   UNL     1       9.530   6.545   7.441  0.00  0.00    +0.027 C 
ATOM      7  C   UNL     1       9.850   8.500   5.980  0.00  0.00    +0.054 C 
ATOM      8  C   UNL     1       9.152   8.009   7.247  0.00  0.00    +0.018 C 
ATOM      9  C   UNL     1       9.077   5.708   6.230  0.00  0.00    +0.113 C 
ATOM     10  C   UNL     1      11.043   6.452   7.673  0.00  0.00    +0.130 C 
ATOM     11  C   UNL     1       9.356   7.685   4.768  0.00  0.00    +0.117 C 
ATOM     12  C   UNL     1      11.357   8.369   6.103  0.00  0.00    +0.027 A 
ATOM     13  C   UNL     1      12.165   9.225   5.459  0.00  0.00    +0.022 A 
ATOM     14  C   UNL     1      13.291   7.123   6.961  0.00  0.00    +0.259 A 
ATOM     15  C   UNL     1      10.264   5.401   4.086  0.00  0.00    +0.247 C 
ATOM     16  C   UNL     1      14.171   8.081   6.203  0.00  0.00    +0.040 A 
ATOM     17  C   UNL     1      13.592   9.074   5.514  0.00  0.00    +0.015 A 
ENDROOT
BRANCH  15  18
ATOM     18  C   UNL     1      10.806   5.985   2.855  0.00  0.00    +0.037 A 
ATOM     20  C   UNL     1      10.058   5.947   1.681  0.00  0.00    +0.013 A 
ATOM     21  C   UNL     1      12.068   6.573   2.865  0.00  0.00    +0.013 A 
ATOM     23  C   UNL     1      10.575   6.502   0.510  0.00  0.00    +0.001 A 
ATOM     24  C   UNL     1      12.585   7.128   1.694  0.00  0.00    +0.001 A 
ATOM     25  C   UNL     1      11.838   7.092   0.517  0.00  0.00    +0.000 A 
ENDBRANCH  15  18
BRANCH  16  19
ATOM     19  C   UNL     1      15.603   7.926   6.241  0.00  0.00    +0.014 C 
ATOM     22  C   UNL     1      16.430   8.602   5.433  0.00  0.00    +0.008 C 
BRANCH  22  26
ATOM      1 CL   UNL     1      22.371   8.071   5.411  0.00  0.00    -0.084 Cl
ATOM     26  C   UNL     1      17.896   8.471   5.428  0.00  0.00    -0.025 A 
ATOM     27  C   UNL     1      18.603   8.703   6.597  0.00  0.00    +0.009 A 
ATOM     28  C   UNL     1      18.543   8.118   4.254  0.00  0.00    +0.009 A 
ATOM     29  C   UNL     1      19.993   8.579   6.592  0.00  0.00    +0.020 A 
ATOM     30  C   UNL     1      19.932   7.994   4.248  0.00  0.00    +0.020 A 
ATOM     31  C   UNL     1      20.656   8.224   5.418  0.00  0.00    +0.041 A 
ENDBRANCH  22  26
ENDBRANCH  16  19
TORSDOF 3
ENDMDL
MODEL 6
REMARK VINA RESULT:      -7.5     21.966     24.835
REMARK  Name = 7663744
REMARK  3 active torsions:
REMARK  status: ('A' for Active; 'I' for Inactive)
REMARK    1  A    between atoms: C_15  and  C_18
REMARK    2  A    between atoms: C_16  and  C_19
REMARK    3  A    between atoms: C_22  and  C_26
REMARK                            x       y       z     vdW  Elec       q    Type
REMARK                         _______ _______ _______ _____ _____    ______ ____
ROOT
ATOM      2  O   UNL     1       9.408 -10.026  31.720  0.00  0.00    -0.267 OA
ATOM      3  O   UNL     1       8.392  -9.751  36.781  0.00  0.00    -0.270 OA
ATOM      4  N   UNL     1       8.159  -7.600  35.890  0.00  0.00    -0.297 N 
ATOM      5  N   UNL     1       8.649  -8.104  32.796  0.00  0.00    -0.311 N 
ATOM      6  C   UNL     1      10.075  -6.830  34.502  0.00  0.00    +0.027 C 
ATOM      7  C   UNL     1       7.799  -6.050  33.983  0.00  0.00    +0.054 C 
ATOM      8  C   UNL     1       9.262  -5.618  34.064  0.00  0.00    +0.018 C 
ATOM      9  C   UNL     1       9.596  -7.332  35.877  0.00  0.00    +0.113 C 
ATOM     10  C   UNL     1       9.966  -7.914  33.422  0.00  0.00    +0.130 C 
ATOM     11  C   UNL     1       7.318  -6.507  35.375  0.00  0.00    +0.117 C 
ATOM     12  C   UNL     1       7.619  -7.179  32.985  0.00  0.00    +0.027 A 
ATOM     13  C   UNL     1       6.464  -7.310  32.314  0.00  0.00    +0.022 A 
ATOM     14  C   UNL     1       8.514  -9.203  31.924  0.00  0.00    +0.259 A 
ATOM     15  C   UNL     1       7.695  -8.834  36.350  0.00  0.00    +0.247 C 
ATOM     16  C   UNL     1       7.197  -9.342  31.209  0.00  0.00    +0.040 A 
ATOM     17  C   UNL     1       6.256  -8.409  31.415  0.00  0.00    +0.015 A 
ENDROOT
BRANCH  15  18
ATOM     18  C   UNL     1       6.250  -9.086  36.305  0.00  0.00    +0.037 A 
ATOM     20  C   UNL     1       5.478  -8.899  37.448  0.00  0.00    +0.013 A 
ATOM     21  C   UNL     1       5.659  -9.514  35.119  0.00  0.00    +0.013 A 
ATOM     23  C   UNL     1       4.105  -9.141  37.405  0.00  0.00    +0.001 A 
ATOM     24  C   UNL     1       4.286  -9.755  35.076  0.00  0.00    +0.001 A 
ATOM     25  C   UNL     1       3.509  -9.568  36.219  0.00  0.00    +0.000 A 
ENDBRANCH  15  18
BRANCH  16  19
ATOM     19  C   UNL     1       6.976 -10.451  30.317  0.00  0.00    +0.014 C 
ATOM     22  C   UNL     1       6.485 -11.628  30.726  0.00  0.00    +0.008 C 
BRANCH  22  26
ATOM      1 CL   UNL     1       5.538 -16.344  27.199  0.00  0.00    -0.084 Cl
ATOM     26  C   UNL     1       6.251 -12.792  29.856  0.00  0.00    -0.025 A 
ATOM     27  C   UNL     1       5.038 -13.458  29.923  0.00  0.00    +0.009 A 
ATOM     28  C   UNL     1       7.249 -13.200  28.984  0.00  0.00    +0.009 A 
ATOM     29  C   UNL     1       4.817 -14.561  29.098  0.00  0.00    +0.020 A 
ATOM     30  C   UNL     1       7.028 -14.303  28.159  0.00  0.00    +0.020 A 
ATOM     31  C   UNL     1       5.811 -14.983  28.216  0.00  0.00    +0.041 A 
ENDBRANCH  22  26
ENDBRANCH  16  19
TORSDOF 3
ENDMDL
MODEL 7
REMARK VINA RESULT:      -7.5     26.463     29.340
REMARK  Name = 7663744
REMARK  3 active torsions:
REMARK  status: ('A' for Active; 'I' for Inactive)
REMARK    1  A    between atoms: C_15  and  C_18
REMARK    2  A    between atoms: C_16  and  C_19
REMARK    3  A    between atoms: C_22  and  C_26
REMARK                            x       y       z     vdW  Elec       q    Type
REMARK                         _______ _______ _______ _____ _____    ______ ____
ROOT
ATOM      2  O   UNL     1     -11.988   9.971  20.837  0.00  0.00    -0.267 OA
ATOM      3  O   UNL     1     -14.512  12.044  16.830  0.00  0.00    -0.270 OA
ATOM      4  N   UNL     1     -12.343  11.531  16.117  0.00  0.00    -0.297 N 
ATOM      5  N   UNL     1     -11.113  10.129  18.683  0.00  0.00    -0.311 N 
ATOM      6  C   UNL     1     -10.530  12.376  17.598  0.00  0.00    +0.027 C 
ATOM      7  C   UNL     1     -10.206  10.287  16.337  0.00  0.00    +0.054 C 
ATOM      8  C   UNL     1      -9.513  11.566  16.802  0.00  0.00    +0.018 C 
ATOM      9  C   UNL     1     -11.747  12.723  16.720  0.00  0.00    +0.113 C 
ATOM     10  C   UNL     1     -10.928  11.578  18.846  0.00  0.00    +0.130 C 
ATOM     11  C   UNL     1     -11.395  10.645  15.423  0.00  0.00    +0.117 C 
ATOM     12  C   UNL     1     -10.699   9.473  17.520  0.00  0.00    +0.027 A 
ATOM     13  C   UNL     1     -10.772   8.136  17.438  0.00  0.00    +0.022 A 
ATOM     14  C   UNL     1     -11.632   9.428  19.790  0.00  0.00    +0.259 A 
ATOM     15  C   UNL     1     -13.715  11.307  16.251  0.00  0.00    +0.247 C 
ATOM     16  C   UNL     1     -11.731   7.931  19.657  0.00  0.00    +0.040 A 
ATOM     17  C   UNL     1     -11.297   7.359  18.525  0.00  0.00    +0.015 A 
ENDROOT
BRANCH  15  18
ATOM     18  C   UNL     1     -14.271  10.078  15.674  0.00  0.00    +0.037 A 
ATOM     20  C   UNL     1     -14.778  10.090  14.377  0.00  0.00    +0.013 A 
ATOM     21  C   UNL     1     -14.292   8.908  16.427  0.00  0.00    +0.013 A 
ATOM     23  C   UNL     1     -15.308   8.921  13.829  0.00  0.00    +0.001 A 
ATOM     24  C   UNL     1     -14.821   7.739  15.879  0.00  0.00    +0.001 A 
ATOM     25  C   UNL     1     -15.329   7.746  14.580  0.00  0.00    +0.000 A 
ENDBRANCH  15  18
BRANCH  16  19
ATOM     19  C   UNL     1     -12.271   7.147  20.739  0.00  0.00    +0.014 C 
ATOM     22  C   UNL     1     -13.584   6.948  20.909  0.00  0.00    +0.008 C 
BRANCH  22  26
ATOM      1 CL   UNL     1     -16.009   3.770  25.336  0.00  0.00    -0.084 Cl
ATOM     26  C   UNL     1     -14.183   6.164  22.001  0.00  0.00    -0.025 A 
ATOM     27  C   UNL     1     -15.446   6.497  22.464  0.00  0.00    +0.009 A 
ATOM     28  C   UNL     1     -13.472   5.106  22.547  0.00  0.00    +0.009 A 
ATOM     29  C   UNL     1     -16.012   5.754  23.499  0.00  0.00    +0.020 A 
ATOM     30  C   UNL     1     -14.039   4.363  23.583  0.00  0.00    +0.020 A 
ATOM     31  C   UNL     1     -15.309   4.687  24.058  0.00  0.00    +0.041 A 
ENDBRANCH  22  26
ENDBRANCH  16  19
TORSDOF 3
ENDMDL
MODEL 8
REMARK VINA RESULT:      -7.3     26.480     28.639
REMARK  Name = 7663744
REMARK  3 active torsions:
REMARK  status: ('A' for Active; 'I' for Inactive)
REMARK    1  A    between atoms: C_15  and  C_18
REMARK    2  A    between atoms: C_16  and  C_19
REMARK    3  A    between atoms: C_22  and  C_26
REMARK                            x       y       z     vdW  Elec       q    Type
REMARK                         _______ _______ _______ _____ _____    ______ ____
ROOT
ATOM      2  O   UNL     1     -12.575  11.831  20.345  0.00  0.00    -0.267 OA
ATOM      3  O   UNL     1     -14.012  12.639  15.446  0.00  0.00    -0.270 OA
ATOM      4  N   UNL     1     -11.681  12.819  15.543  0.00  0.00    -0.297 N 
ATOM      5  N   UNL     1     -11.084  12.104  18.575  0.00  0.00    -0.311 N 
ATOM      6  C   UNL     1     -10.824  14.327  17.328  0.00  0.00    +0.027 C 
ATOM      7  C   UNL     1      -9.497  12.372  16.637  0.00  0.00    +0.054 C 
ATOM      8  C   UNL     1      -9.406  13.841  17.048  0.00  0.00    +0.018 C 
ATOM      9  C   UNL     1     -11.700  14.183  16.070  0.00  0.00    +0.113 C 
ATOM     10  C   UNL     1     -11.389  13.541  18.518  0.00  0.00    +0.130 C 
ATOM     11  C   UNL     1     -10.339  12.246  15.351  0.00  0.00    +0.117 C 
ATOM     12  C   UNL     1     -10.120  11.535  17.739  0.00  0.00    +0.027 A 
ATOM     13  C   UNL     1      -9.775  10.247  17.886  0.00  0.00    +0.022 A 
ATOM     14  C   UNL     1     -11.736  11.358  19.578  0.00  0.00    +0.259 A 
ATOM     15  C   UNL     1     -12.888  12.165  15.287  0.00  0.00    +0.247 C 
ATOM     16  C   UNL     1     -11.351   9.907  19.700  0.00  0.00    +0.040 A 
ATOM     17  C   UNL     1     -10.403   9.426  18.882  0.00  0.00    +0.015 A 
ENDROOT
BRANCH  15  18
ATOM     18  C   UNL     1     -12.831  10.781  14.804  0.00  0.00    +0.037 A 
ATOM     20  C   UNL     1     -12.842  10.525  13.435  0.00  0.00    +0.013 A 
ATOM     21  C   UNL     1     -12.770   9.732  15.716  0.00  0.00    +0.013 A 
ATOM     23  C   UNL     1     -12.789   9.208  12.976  0.00  0.00    +0.001 A 
ATOM     24  C   UNL     1     -12.717   8.415  15.257  0.00  0.00    +0.001 A 
ATOM     25  C   UNL     1     -12.727   8.154  13.886  0.00  0.00    +0.000 A 
ENDBRANCH  15  18
BRANCH  16  19
ATOM     19  C   UNL     1     -11.988   9.074  20.687  0.00  0.00    +0.014 C 
ATOM     22  C   UNL     1     -12.644   7.949  20.376  0.00  0.00    +0.008 C 
BRANCH  22  26
ATOM      1 CL   UNL     1     -15.373   4.390  24.310  0.00  0.00    -0.084 Cl
ATOM     26  C   UNL     1     -13.318   7.071  21.347  0.00  0.00    -0.025 A 
ATOM     27  C   UNL     1     -14.490   7.498  21.951  0.00  0.00    +0.009 A 
ATOM     28  C   UNL     1     -12.768   5.832  21.639  0.00  0.00    +0.009 A 
ATOM     29  C   UNL     1     -15.127   6.666  22.871  0.00  0.00    +0.020 A 
ATOM     30  C   UNL     1     -13.406   5.000  22.559  0.00  0.00    +0.020 A 
ATOM     31  C   UNL     1     -14.586   5.417  23.174  0.00  0.00    +0.041 A 
ENDBRANCH  22  26
ENDBRANCH  16  19
TORSDOF 3
ENDMDL
MODEL 9
REMARK VINA RESULT:      -7.3     14.611     18.506
REMARK  Name = 7663744
REMARK  3 active torsions:
REMARK  status: ('A' for Active; 'I' for Inactive)
REMARK    1  A    between atoms: C_15  and  C_18
REMARK    2  A    between atoms: C_16  and  C_19
REMARK    3  A    between atoms: C_22  and  C_26
REMARK                            x       y       z     vdW  Elec       q    Type
REMARK                         _______ _______ _______ _____ _____    ______ ____
ROOT
ATOM      2  O   UNL     1       8.821   7.660   2.014  0.00  0.00    -0.267 OA
ATOM      3  O   UNL     1      11.704  10.659   5.082  0.00  0.00    -0.270 OA
ATOM      4  N   UNL     1      10.821   8.936   6.396  0.00  0.00    -0.297 N 
ATOM      5  N   UNL     1       9.280   7.183   4.248  0.00  0.00    -0.311 N 
ATOM      6  C   UNL     1       8.365   8.605   6.173  0.00  0.00    +0.027 C 
ATOM      7  C   UNL     1       9.819   6.679   6.658  0.00  0.00    +0.054 C 
ATOM      8  C   UNL     1       8.471   7.320   6.985  0.00  0.00    +0.018 C 
ATOM      9  C   UNL     1       9.510   9.568   6.537  0.00  0.00    +0.113 C 
ATOM     10  C   UNL     1       8.364   8.247   4.681  0.00  0.00    +0.130 C 
ATOM     11  C   UNL     1      10.958   7.633   7.068  0.00  0.00    +0.117 C 
ATOM     12  C   UNL     1       9.926   6.363   5.177  0.00  0.00    +0.027 A 
ATOM     13  C   UNL     1      10.667   5.325   4.759  0.00  0.00    +0.022 A 
ATOM     14  C   UNL     1       9.392   6.969   2.859  0.00  0.00    +0.259 A 
ATOM     15  C   UNL     1      11.813   9.571   5.646  0.00  0.00    +0.247 C 
ATOM     16  C   UNL     1      10.255   5.816   2.420  0.00  0.00    +0.040 A 
ATOM     17  C   UNL     1      10.830   5.053   3.359  0.00  0.00    +0.015 A 
ENDROOT
BRANCH  15  18
ATOM     18  C   UNL     1      13.100   8.886   5.486  0.00  0.00    +0.037 A 
ATOM     20  C   UNL     1      14.128   9.124   6.395  0.00  0.00    +0.013 A 
ATOM     21  C   UNL     1      13.288   8.003   4.427  0.00  0.00    +0.013 A 
ATOM     23  C   UNL     1      15.353   8.473   6.242  0.00  0.00    +0.001 A 
ATOM     24  C   UNL     1      14.512   7.352   4.274  0.00  0.00    +0.001 A 
ATOM     25  C   UNL     1      15.545   7.588   5.183  0.00  0.00    +0.000 A 
ENDBRANCH  15  18
BRANCH  16  19
ATOM     19  C   UNL     1      10.435   5.547   1.015  0.00  0.00    +0.014 C 
ATOM     22  C   UNL     1      10.953   4.401   0.555  0.00  0.00    +0.008 C 
BRANCH  22  26
ATOM      1 CL   UNL     1      11.813   3.114  -5.205  0.00  0.00    -0.084 Cl
ATOM     26  C   UNL     1      11.165   4.083  -0.867  0.00  0.00    -0.025 A 
ATOM     27  C   UNL     1      10.355   4.674  -1.823  0.00  0.00    +0.009 A 
ATOM     28  C   UNL     1      12.172   3.199  -1.223  0.00  0.00    +0.009 A 
ATOM     29  C   UNL     1      10.556   4.373  -3.170  0.00  0.00    +0.020 A 
ATOM     30  C   UNL     1      12.373   2.898  -2.570  0.00  0.00    +0.020 A 
ATOM     31  C   UNL     1      11.565   3.486  -3.543  0.00  0.00    +0.041 A 
ENDBRANCH  22  26
ENDBRANCH  16  19
TORSDOF 3
ENDMDL
MODEL 10
REMARK VINA RESULT:      -7.2     13.951     17.990
REMARK  Name = 7663744
REMARK  3 active torsions:
REMARK  status: ('A' for Active; 'I' for Inactive)
REMARK    1  A    between atoms: C_15  and  C_18
REMARK    2  A    between atoms: C_16  and  C_19
REMARK    3  A    between atoms: C_22  and  C_26
REMARK                            x       y       z     vdW  Elec       q    Type
REMARK                         _______ _______ _______ _____ _____    ______ ____
ROOT
ATOM      2  O   UNL     1      11.866   8.949   2.311  0.00  0.00    -0.267 OA
ATOM      3  O   UNL     1      12.712   7.802   7.280  0.00  0.00    -0.270 OA
ATOM      4  N   UNL     1      10.682   8.957   7.152  0.00  0.00    -0.297 N 
ATOM      5  N   UNL     1      10.339   9.356   4.024  0.00  0.00    -0.311 N 
ATOM      6  C   UNL     1      10.770  11.085   5.865  0.00  0.00    +0.027 C 
ATOM      7  C   UNL     1       8.697   9.758   5.893  0.00  0.00    +0.054 C 
ATOM      8  C   UNL     1       9.250  11.181   5.934  0.00  0.00    +0.018 C 
ATOM      9  C   UNL     1      11.312  10.273   7.056  0.00  0.00    +0.113 C 
ATOM     10  C   UNL     1      11.165  10.468   4.518  0.00  0.00    +0.130 C 
ATOM     11  C   UNL     1       9.211   8.968   7.113  0.00  0.00    +0.117 C 
ATOM     12  C   UNL     1       9.111   9.050   4.616  0.00  0.00    +0.027 A 
ATOM     13  C   UNL     1       8.321   8.107   4.079  0.00  0.00    +0.022 A 
ATOM     14  C   UNL     1      10.799   8.690   2.870  0.00  0.00    +0.259 A 
ATOM     15  C   UNL     1      11.483   7.817   7.248  0.00  0.00    +0.247 C 
ATOM     16  C   UNL     1       9.905   7.617   2.308  0.00  0.00    +0.040 A 
ATOM     17  C   UNL     1       8.729   7.384   2.908  0.00  0.00    +0.015 A 
ENDROOT
BRANCH  15  18
ATOM     18  C   UNL     1      10.818   6.511   7.295  0.00  0.00    +0.037 A 
ATOM     20  C   UNL     1      10.522   5.841   6.110  0.00  0.00    +0.013 A 
ATOM     21  C   UNL     1      10.484   5.947   8.523  0.00  0.00    +0.013 A 
ATOM     23  C   UNL     1       9.887   4.599   6.155  0.00  0.00    +0.001 A 
ATOM     24  C   UNL     1       9.851   4.705   8.568  0.00  0.00    +0.001 A 
ATOM     25  C   UNL     1       9.552   4.031   7.384  0.00  0.00    +0.000 A 
ENDBRANCH  15  18
BRANCH  16  19
ATOM     19  C   UNL     1      10.316   6.876   1.142  0.00  0.00    +0.014 C 
ATOM     22  C   UNL     1      10.714   5.599   1.194  0.00  0.00    +0.008 C 
BRANCH  22  26
ATOM      1 CL   UNL     1      12.485   2.381  -3.506  0.00  0.00    -0.084 Cl
ATOM     26  C   UNL     1      11.151   4.805   0.034  0.00  0.00    -0.025 A 
ATOM     27  C   UNL     1      10.447   4.896  -1.156  0.00  0.00    +0.009 A 
ATOM     28  C   UNL     1      12.260   3.981   0.153  0.00  0.00    +0.009 A 
ATOM     29  C   UNL     1      10.861   4.143  -2.255  0.00  0.00    +0.020 A 
ATOM     30  C   UNL     1      12.674   3.228  -0.946  0.00  0.00    +0.020 A 
ATOM     31  C   UNL     1      11.974   3.310  -2.150  0.00  0.00    +0.041 A 
ENDBRANCH  22  26
ENDBRANCH  16  19
TORSDOF 3
ENDMDL
