MODEL 1
REMARK VINA RESULT:      -8.3      0.000      0.000
REMARK  Name = 51136828
REMARK  6 active torsions:
REMARK  status: ('A' for Active; 'I' for Inactive)
REMARK    1  A    between atoms: N_3  and  C_13
REMARK    2  A    between atoms: C_9  and  C_14
REMARK    3  A    between atoms: C_13  and  C_15
REMARK    4  A    between atoms: C_20  and  C_28
REMARK    5  A    between atoms: C_21  and  C_24
REMARK    6  A    between atoms: C_26  and  C_33
REMARK                            x       y       z     vdW  Elec       q    Type
REMARK                         _______ _______ _______ _____ _____    ______ ____
ROOT
ATOM      1  O   UNL     1     -13.105  10.421  32.905  0.00  0.00    -0.336 OA
ATOM      6  N   UNL     1     -12.084   8.507  32.347  0.00  0.00    -0.190 NA
ATOM      7  N   UNL     1     -13.797   9.401  33.571  0.00  0.00    -0.056 NA
ATOM     14  C   UNL     1     -12.112   9.808  32.208  0.00  0.00    +0.245 A 
ATOM     21  C   UNL     1     -13.135   8.303  33.192  0.00  0.00    +0.202 A 
ENDROOT
BRANCH  21  24
ATOM      2  O   UNL     1     -14.943  -0.424  29.465  0.00  0.00    -0.276 OA
ATOM      4  N   UNL     1     -14.479   3.769  32.254  0.00  0.00    -0.312 N 
ATOM      5  N   UNL     1     -15.195   1.709  30.351  0.00  0.00    -0.299 N 
ATOM      8  N   UNL     1     -14.209   4.428  34.506  0.00  0.00    -0.240 NA
ATOM     16  C   UNL     1     -15.076   4.123  30.964  0.00  0.00    +0.125 C 
ATOM     17  C   UNL     1     -14.186   2.357  32.518  0.00  0.00    +0.125 C 
ATOM     18  C   UNL     1     -15.930   2.974  30.428  0.00  0.00    +0.126 C 
ATOM     19  C   UNL     1     -14.019   1.588  31.209  0.00  0.00    +0.126 C 
ATOM     23  C   UNL     1     -14.162   4.748  33.194  0.00  0.00    +0.122 A 
ATOM     24  C   UNL     1     -13.502   6.989  33.638  0.00  0.00    +0.027 A 
ATOM     25  C   UNL     1     -13.818   6.001  32.712  0.00  0.00    +0.055 A 
ATOM     26  C   UNL     1     -15.561   0.642  29.531  0.00  0.00    +0.213 C 
ATOM     30  C   UNL     1     -13.538   6.698  34.997  0.00  0.00    +0.031 A 
ATOM     32  C   UNL     1     -13.895   5.415  35.376  0.00  0.00    +0.113 A 
ATOM     33  C   UNL     1     -16.791   0.845  28.682  0.00  0.00    +0.109 C 
ENDBRANCH  21  24
BRANCH  14   9
ATOM      3  N   UNL     1     -11.742  10.979  30.044  0.00  0.00    -0.287 NA
ATOM      9  C   UNL     1     -11.206  10.706  31.391  0.00  0.00    +0.146 C 
ATOM     10  C   UNL     1     -11.017  12.096  32.027  0.00  0.00    +0.030 C 
ATOM     11  C   UNL     1     -11.415  13.086  30.942  0.00  0.00    +0.017 C 
ATOM     12  C   UNL     1     -11.241  12.298  29.659  0.00  0.00    +0.085 C 
BRANCH   3  13
ATOM     13  C   UNL     1     -11.394   9.954  29.068  0.00  0.00    +0.120 C 
BRANCH  13  15
ATOM     15  C   UNL     1     -11.930  10.277  27.699  0.00  0.00    -0.030 A 
ATOM     20  C   UNL     1     -11.070  10.452  26.615  0.00  0.00    -0.046 A 
ATOM     22  C   UNL     1     -13.308  10.401  27.524  0.00  0.00    +0.005 A 
ATOM     27  C   UNL     1     -11.588  10.751  25.355  0.00  0.00    +0.003 A 
ATOM     28  C   UNL     1      -9.591  10.325  26.779  0.00  0.00    +0.044 C 
ATOM     29  C   UNL     1     -13.826  10.699  26.264  0.00  0.00    +0.000 A 
ATOM     31  C   UNL     1     -12.965  10.875  25.179  0.00  0.00    +0.000 A 
ENDBRANCH  13  15
ENDBRANCH   3  13
ENDBRANCH  14   9
TORSDOF 4
ENDMDL
MODEL 2
REMARK VINA RESULT:      -7.9     20.862     24.888
REMARK  Name = 51136828
REMARK  6 active torsions:
REMARK  status: ('A' for Active; 'I' for Inactive)
REMARK    1  A    between atoms: N_3  and  C_13
REMARK    2  A    between atoms: C_9  and  C_14
REMARK    3  A    between atoms: C_13  and  C_15
REMARK    4  A    between atoms: C_20  and  C_28
REMARK    5  A    between atoms: C_21  and  C_24
REMARK    6  A    between atoms: C_26  and  C_33
REMARK                            x       y       z     vdW  Elec       q    Type
REMARK                         _______ _______ _______ _____ _____    ______ ____
ROOT
ATOM      1  O   UNL     1      -4.079 -13.338  15.676  0.00  0.00    -0.336 OA
ATOM      6  N   UNL     1      -4.537 -11.248  16.339  0.00  0.00    -0.190 NA
ATOM      7  N   UNL     1      -5.242 -13.421  16.454  0.00  0.00    -0.056 NA
ATOM     14  C   UNL     1      -3.732 -12.024  15.659  0.00  0.00    +0.245 A 
ATOM     21  C   UNL     1      -5.448 -12.149  16.808  0.00  0.00    +0.202 A 
ENDROOT
BRANCH  21  24
ATOM      2  O   UNL     1     -13.895  -7.543  15.936  0.00  0.00    -0.276 OA
ATOM      4  N   UNL     1      -9.593  -9.761  17.404  0.00  0.00    -0.312 N 
ATOM      5  N   UNL     1     -11.662  -8.028  16.357  0.00  0.00    -0.299 N 
ATOM      8  N   UNL     1      -8.707 -10.965  19.232  0.00  0.00    -0.240 NA
ATOM     16  C   UNL     1      -9.291  -8.799  16.341  0.00  0.00    +0.125 C 
ATOM     17  C   UNL     1     -10.981  -9.872  17.863  0.00  0.00    +0.125 C 
ATOM     18  C   UNL     1     -10.256  -7.615  16.389  0.00  0.00    +0.126 C 
ATOM     19  C   UNL     1     -11.946  -9.397  16.780  0.00  0.00    +0.126 C 
ATOM     23  C   UNL     1      -8.599 -10.576  17.942  0.00  0.00    +0.122 A 
ATOM     24  C   UNL     1      -6.553 -11.746  17.631  0.00  0.00    +0.027 A 
ATOM     25  C   UNL     1      -7.553 -10.935  17.108  0.00  0.00    +0.055 A 
ATOM     26  C   UNL     1     -12.710  -7.197  15.964  0.00  0.00    +0.213 C 
ATOM     30  C   UNL     1      -6.628 -12.168  18.954  0.00  0.00    +0.031 A 
ATOM     32  C   UNL     1      -7.715 -11.754  19.705  0.00  0.00    +0.113 A 
ATOM     33  C   UNL     1     -12.332  -5.797  15.549  0.00  0.00    +0.109 C 
ENDBRANCH  21  24
BRANCH  14   9
ATOM      3  N   UNL     1      -2.758 -10.683  13.803  0.00  0.00    -0.287 NA
ATOM      9  C   UNL     1      -2.489 -11.665  14.872  0.00  0.00    +0.146 C 
ATOM     10  C   UNL     1      -1.403 -11.008  15.743  0.00  0.00    +0.030 C 
ATOM     11  C   UNL     1      -1.082  -9.690  15.052  0.00  0.00    +0.017 C 
ATOM     12  C   UNL     1      -1.522  -9.922  13.620  0.00  0.00    +0.085 C 
BRANCH   3  13
ATOM     13  C   UNL     1      -3.213 -11.296  12.562  0.00  0.00    +0.120 C 
BRANCH  13  15
ATOM     15  C   UNL     1      -3.838 -10.287  11.635  0.00  0.00    -0.030 A 
ATOM     20  C   UNL     1      -5.089  -9.737  11.913  0.00  0.00    -0.046 A 
ATOM     22  C   UNL     1      -3.147  -9.906  10.485  0.00  0.00    +0.005 A 
ATOM     27  C   UNL     1      -5.650  -8.804  11.040  0.00  0.00    +0.003 A 
ATOM     28  C   UNL     1      -5.848 -10.131  13.137  0.00  0.00    +0.044 C 
ATOM     29  C   UNL     1      -3.707  -8.972   9.613  0.00  0.00    +0.000 A 
ATOM     31  C   UNL     1      -4.959  -8.422   9.891  0.00  0.00    +0.000 A 
ENDBRANCH  13  15
ENDBRANCH   3  13
ENDBRANCH  14   9
TORSDOF 4
ENDMDL
MODEL 3
REMARK VINA RESULT:      -7.6     21.724     26.094
REMARK  Name = 51136828
REMARK  6 active torsions:
REMARK  status: ('A' for Active; 'I' for Inactive)
REMARK    1  A    between atoms: N_3  and  C_13
REMARK    2  A    between atoms: C_9  and  C_14
REMARK    3  A    between atoms: C_13  and  C_15
REMARK    4  A    between atoms: C_20  and  C_28
REMARK    5  A    between atoms: C_21  and  C_24
REMARK    6  A    between atoms: C_26  and  C_33
REMARK                            x       y       z     vdW  Elec       q    Type
REMARK                         _______ _______ _______ _____ _____    ______ ____
ROOT
ATOM      1  O   UNL     1      -3.700 -11.336  17.484  0.00  0.00    -0.336 OA
ATOM      6  N   UNL     1      -4.974 -10.376  15.911  0.00  0.00    -0.190 NA
ATOM      7  N   UNL     1      -2.966 -11.404  16.293  0.00  0.00    -0.056 NA
ATOM     14  C   UNL     1      -4.869 -10.716  17.170  0.00  0.00    +0.245 A 
ATOM     21  C   UNL     1      -3.784 -10.818  15.412  0.00  0.00    +0.202 A 
ENDROOT
BRANCH  21  24
ATOM      2  O   UNL     1      -7.832  -7.736   7.200  0.00  0.00    -0.276 OA
ATOM      4  N   UNL     1      -5.020  -9.792  10.867  0.00  0.00    -0.312 N 
ATOM      5  N   UNL     1      -7.039  -9.088   8.915  0.00  0.00    -0.299 N 
ATOM      8  N   UNL     1      -2.773 -10.349  11.331  0.00  0.00    -0.240 NA
ATOM     16  C   UNL     1      -6.418 -10.178  11.070  0.00  0.00    +0.125 C 
ATOM     17  C   UNL     1      -4.690  -8.977   9.694  0.00  0.00    +0.125 C 
ATOM     18  C   UNL     1      -7.148 -10.299   9.732  0.00  0.00    +0.126 C 
ATOM     19  C   UNL     1      -5.916  -8.202   9.214  0.00  0.00    +0.126 C 
ATOM     23  C   UNL     1      -4.033 -10.155  11.780  0.00  0.00    +0.122 A 
ATOM     24  C   UNL     1      -3.441 -10.660  14.027  0.00  0.00    +0.027 A 
ATOM     25  C   UNL     1      -4.415 -10.297  13.104  0.00  0.00    +0.055 A 
ATOM     26  C   UNL     1      -7.923  -8.755   7.889  0.00  0.00    +0.213 C 
ATOM     30  C   UNL     1      -2.133 -10.868  13.604  0.00  0.00    +0.031 A 
ATOM     32  C   UNL     1      -1.852 -10.701  12.258  0.00  0.00    +0.113 A 
ATOM     33  C   UNL     1      -9.051  -9.726   7.641  0.00  0.00    +0.109 C 
ENDBRANCH  21  24
BRANCH  14   9
ATOM      3  N   UNL     1      -7.256 -10.520  17.845  0.00  0.00    -0.287 NA
ATOM      9  C   UNL     1      -5.853 -10.517  18.304  0.00  0.00    +0.146 C 
ATOM     10  C   UNL     1      -5.782 -11.639  19.357  0.00  0.00    +0.030 C 
ATOM     11  C   UNL     1      -7.204 -12.172  19.465  0.00  0.00    +0.017 C 
ATOM     12  C   UNL     1      -8.055 -11.022  18.963  0.00  0.00    +0.085 C 
BRANCH   3  13
ATOM     13  C   UNL     1      -7.713  -9.214  17.388  0.00  0.00    +0.120 C 
BRANCH  13  15
ATOM     15  C   UNL     1      -8.565  -9.320  16.151  0.00  0.00    -0.030 A 
ATOM     20  C   UNL     1      -9.744  -8.585  16.027  0.00  0.00    -0.046 A 
ATOM     22  C   UNL     1      -8.159 -10.168  15.121  0.00  0.00    +0.005 A 
ATOM     27  C   UNL     1     -10.518  -8.699  14.871  0.00  0.00    +0.003 A 
ATOM     28  C   UNL     1     -10.199  -7.672  17.117  0.00  0.00    +0.044 C 
ATOM     29  C   UNL     1      -8.932 -10.281  13.965  0.00  0.00    +0.000 A 
ATOM     31  C   UNL     1     -10.112  -9.547  13.841  0.00  0.00    +0.000 A 
ENDBRANCH  13  15
ENDBRANCH   3  13
ENDBRANCH  14   9
TORSDOF 4
ENDMDL
MODEL 4
REMARK VINA RESULT:      -7.5     24.435     28.262
REMARK  Name = 51136828
REMARK  6 active torsions:
REMARK  status: ('A' for Active; 'I' for Inactive)
REMARK    1  A    between atoms: N_3  and  C_13
REMARK    2  A    between atoms: C_9  and  C_14
REMARK    3  A    between atoms: C_13  and  C_15
REMARK    4  A    between atoms: C_20  and  C_28
REMARK    5  A    between atoms: C_21  and  C_24
REMARK    6  A    between atoms: C_26  and  C_33
REMARK                            x       y       z     vdW  Elec       q    Type
REMARK                         _______ _______ _______ _____ _____    ______ ____
ROOT
ATOM      1  O   UNL     1      -8.496  -8.532   9.312  0.00  0.00    -0.336 OA
ATOM      6  N   UNL     1      -6.346  -8.052   8.908  0.00  0.00    -0.190 NA
ATOM      7  N   UNL     1      -7.754  -9.209  10.289  0.00  0.00    -0.056 NA
ATOM     14  C   UNL     1      -7.590  -7.876   8.541  0.00  0.00    +0.245 A 
ATOM     21  C   UNL     1      -6.496  -8.877   9.984  0.00  0.00    +0.202 A 
ENDROOT
BRANCH  21  24
ATOM      2  O   UNL     1      -4.632 -13.102  18.469  0.00  0.00    -0.276 OA
ATOM      4  N   UNL     1      -4.595 -10.668  14.036  0.00  0.00    -0.312 N 
ATOM      5  N   UNL     1      -4.901 -11.525  16.784  0.00  0.00    -0.299 N 
ATOM      8  N   UNL     1      -3.173 -10.285  12.190  0.00  0.00    -0.240 NA
ATOM     16  C   UNL     1      -5.642 -10.092  14.883  0.00  0.00    +0.125 C 
ATOM     17  C   UNL     1      -3.763 -11.739  14.594  0.00  0.00    +0.125 C 
ATOM     18  C   UNL     1      -5.250 -10.167  16.358  0.00  0.00    +0.126 C 
ATOM     19  C   UNL     1      -4.494 -12.451  15.730  0.00  0.00    +0.126 C 
ATOM     23  C   UNL     1      -4.414 -10.239  12.723  0.00  0.00    +0.122 A 
ATOM     24  C   UNL     1      -5.368  -9.353  10.733  0.00  0.00    +0.027 A 
ATOM     25  C   UNL     1      -5.534  -9.786  12.043  0.00  0.00    +0.055 A 
ATOM     26  C   UNL     1      -4.926 -11.959  18.109  0.00  0.00    +0.213 C 
ATOM     30  C   UNL     1      -4.106  -9.386  10.149  0.00  0.00    +0.031 A 
ATOM     32  C   UNL     1      -3.051  -9.856  10.913  0.00  0.00    +0.113 A 
ATOM     33  C   UNL     1      -5.351 -10.939  19.136  0.00  0.00    +0.109 C 
ENDBRANCH  21  24
BRANCH  14   9
ATOM      3  N   UNL     1      -8.432  -7.871   6.199  0.00  0.00    -0.287 NA
ATOM      9  C   UNL     1      -8.146  -7.055   7.396  0.00  0.00    +0.146 C 
ATOM     10  C   UNL     1      -9.488  -6.384   7.742  0.00  0.00    +0.030 C 
ATOM     11  C   UNL     1     -10.450  -6.833   6.652  0.00  0.00    +0.017 C 
ATOM     12  C   UNL     1      -9.536  -7.211   5.503  0.00  0.00    +0.085 C 
BRANCH   3  13
ATOM     13  C   UNL     1      -7.271  -8.054   5.338  0.00  0.00    +0.120 C 
BRANCH  13  15
ATOM     15  C   UNL     1      -6.923  -9.508   5.166  0.00  0.00    -0.030 A 
ATOM     20  C   UNL     1      -7.337 -10.216   4.038  0.00  0.00    -0.046 A 
ATOM     22  C   UNL     1      -6.176 -10.147   6.155  0.00  0.00    +0.005 A 
ATOM     27  C   UNL     1      -7.004 -11.564   3.899  0.00  0.00    +0.003 A 
ATOM     28  C   UNL     1      -8.138  -9.554   2.965  0.00  0.00    +0.044 C 
ATOM     29  C   UNL     1      -5.842 -11.494   6.016  0.00  0.00    +0.000 A 
ATOM     31  C   UNL     1      -6.257 -12.202   4.888  0.00  0.00    +0.000 A 
ENDBRANCH  13  15
ENDBRANCH   3  13
ENDBRANCH  14   9
TORSDOF 4
ENDMDL
MODEL 5
REMARK VINA RESULT:      -7.5     24.291     28.249
REMARK  Name = 51136828
REMARK  6 active torsions:
REMARK  status: ('A' for Active; 'I' for Inactive)
REMARK    1  A    between atoms: N_3  and  C_13
REMARK    2  A    between atoms: C_9  and  C_14
REMARK    3  A    between atoms: C_13  and  C_15
REMARK    4  A    between atoms: C_20  and  C_28
REMARK    5  A    between atoms: C_21  and  C_24
REMARK    6  A    between atoms: C_26  and  C_33
REMARK                            x       y       z     vdW  Elec       q    Type
REMARK                         _______ _______ _______ _____ _____    ______ ____
ROOT
ATOM      1  O   UNL     1      -4.648  -9.615   8.110  0.00  0.00    -0.336 OA
ATOM      6  N   UNL     1      -4.373 -11.407   9.425  0.00  0.00    -0.190 NA
ATOM      7  N   UNL     1      -4.039  -9.149   9.282  0.00  0.00    -0.056 NA
ATOM     14  C   UNL     1      -4.809 -10.954   8.276  0.00  0.00    +0.245 A 
ATOM     21  C   UNL     1      -3.910 -10.264  10.007  0.00  0.00    +0.202 A 
ENDROOT
BRANCH  21  24
ATOM      2  O   UNL     1      -6.410 -12.329  19.107  0.00  0.00    -0.276 OA
ATOM      4  N   UNL     1      -4.308 -10.748  14.787  0.00  0.00    -0.312 N 
ATOM      5  N   UNL     1      -5.942 -11.193  17.135  0.00  0.00    -0.299 N 
ATOM      8  N   UNL     1      -2.183 -10.284  13.869  0.00  0.00    -0.240 NA
ATOM     16  C   UNL     1      -5.722 -10.364  14.794  0.00  0.00    +0.125 C 
ATOM     17  C   UNL     1      -3.770 -11.430  15.968  0.00  0.00    +0.125 C 
ATOM     18  C   UNL     1      -6.201 -10.081  16.218  0.00  0.00    +0.126 C 
ATOM     19  C   UNL     1      -4.887 -12.125  16.744  0.00  0.00    +0.126 C 
ATOM     23  C   UNL     1      -3.502 -10.507  13.677  0.00  0.00    +0.122 A 
ATOM     24  C   UNL     1      -3.324 -10.269  11.318  0.00  0.00    +0.027 A 
ATOM     25  C   UNL     1      -4.116 -10.510  12.435  0.00  0.00    +0.055 A 
ATOM     26  C   UNL     1      -6.627 -11.392  18.333  0.00  0.00    +0.213 C 
ATOM     30  C   UNL     1      -1.962 -10.037  11.474  0.00  0.00    +0.031 A 
ATOM     32  C   UNL     1      -1.445 -10.054  12.759  0.00  0.00    +0.113 A 
ATOM     33  C   UNL     1      -7.696 -10.382  18.666  0.00  0.00    +0.109 C 
ENDBRANCH  21  24
BRANCH  14   9
ATOM      3  N   UNL     1      -6.316 -10.840   6.300  0.00  0.00    -0.287 NA
ATOM      9  C   UNL     1      -5.455 -11.704   7.131  0.00  0.00    +0.146 C 
ATOM     10  C   UNL     1      -4.425 -12.292   6.149  0.00  0.00    +0.030 C 
ATOM     11  C   UNL     1      -4.824 -11.751   4.783  0.00  0.00    +0.017 C 
ATOM     12  C   UNL     1      -6.291 -11.406   4.951  0.00  0.00    +0.085 C 
BRANCH   3  13
ATOM     13  C   UNL     1      -7.673 -10.714   6.816  0.00  0.00    +0.120 C 
BRANCH  13  15
ATOM     15  C   UNL     1      -8.019  -9.286   7.143  0.00  0.00    -0.030 A 
ATOM     20  C   UNL     1      -8.127  -8.859   8.466  0.00  0.00    -0.046 A 
ATOM     22  C   UNL     1      -8.232  -8.386   6.099  0.00  0.00    +0.005 A 
ATOM     27  C   UNL     1      -8.448  -7.530   8.746  0.00  0.00    +0.003 A 
ATOM     28  C   UNL     1      -7.903  -9.804   9.600  0.00  0.00    +0.044 C 
ATOM     29  C   UNL     1      -8.553  -7.058   6.378  0.00  0.00    +0.000 A 
ATOM     31  C   UNL     1      -8.661  -6.630   7.702  0.00  0.00    +0.000 A 
ENDBRANCH  13  15
ENDBRANCH   3  13
ENDBRANCH  14   9
TORSDOF 4
ENDMDL
MODEL 6
REMARK VINA RESULT:      -7.2     23.665     27.632
REMARK  Name = 51136828
REMARK  6 active torsions:
REMARK  status: ('A' for Active; 'I' for Inactive)
REMARK    1  A    between atoms: N_3  and  C_13
REMARK    2  A    between atoms: C_9  and  C_14
REMARK    3  A    between atoms: C_13  and  C_15
REMARK    4  A    between atoms: C_20  and  C_28
REMARK    5  A    between atoms: C_21  and  C_24
REMARK    6  A    between atoms: C_26  and  C_33
REMARK                            x       y       z     vdW  Elec       q    Type
REMARK                         _______ _______ _______ _____ _____    ______ ____
ROOT
ATOM      1  O   UNL     1      -7.912 -11.092   8.273  0.00  0.00    -0.336 OA
ATOM      6  N   UNL     1      -6.339  -9.500   8.187  0.00  0.00    -0.190 NA
ATOM      7  N   UNL     1      -7.059 -11.328   9.358  0.00  0.00    -0.056 NA
ATOM     14  C   UNL     1      -7.417  -9.998   7.637  0.00  0.00    +0.245 A 
ATOM     21  C   UNL     1      -6.157 -10.349   9.240  0.00  0.00    +0.202 A 
ENDROOT
BRANCH  21  24
ATOM      2  O   UNL     1      -4.082 -12.132  18.505  0.00  0.00    -0.276 OA
ATOM      4  N   UNL     1      -4.344 -10.571  13.701  0.00  0.00    -0.312 N 
ATOM      5  N   UNL     1      -4.698 -11.074  16.530  0.00  0.00    -0.299 N 
ATOM      8  N   UNL     1      -2.929  -9.892  11.936  0.00  0.00    -0.240 NA
ATOM     16  C   UNL     1      -5.650 -10.376  14.333  0.00  0.00    +0.125 C 
ATOM     17  C   UNL     1      -3.249 -11.099  14.521  0.00  0.00    +0.125 C 
ATOM     18  C   UNL     1      -5.493 -10.067  15.822  0.00  0.00    +0.126 C 
ATOM     19  C   UNL     1      -3.797 -11.882  15.711  0.00  0.00    +0.126 C 
ATOM     23  C   UNL     1      -4.151 -10.298  12.348  0.00  0.00    +0.122 A 
ATOM     24  C   UNL     1      -5.062 -10.192  10.155  0.00  0.00    +0.027 A 
ATOM     25  C   UNL     1      -5.239 -10.462  11.507  0.00  0.00    +0.055 A 
ATOM     26  C   UNL     1      -4.750 -11.284  17.907  0.00  0.00    +0.213 C 
ATOM     30  C   UNL     1      -3.820  -9.773   9.692  0.00  0.00    +0.031 A 
ATOM     32  C   UNL     1      -2.796  -9.639  10.614  0.00  0.00    +0.113 A 
ATOM     33  C   UNL     1      -5.701 -10.403  18.680  0.00  0.00    +0.109 C 
ENDBRANCH  21  24
BRANCH  14   9
ATOM      3  N   UNL     1      -8.676  -8.149   6.547  0.00  0.00    -0.287 NA
ATOM      9  C   UNL     1      -8.173  -9.529   6.411  0.00  0.00    +0.146 C 
ATOM     10  C   UNL     1      -7.296  -9.504   5.145  0.00  0.00    +0.030 C 
ATOM     11  C   UNL     1      -7.417  -8.086   4.607  0.00  0.00    +0.017 C 
ATOM     12  C   UNL     1      -8.723  -7.591   5.195  0.00  0.00    +0.085 C 
BRANCH   3  13
ATOM     13  C   UNL     1      -9.968  -8.071   7.217  0.00  0.00    +0.120 C 
BRANCH  13  15
ATOM     15  C   UNL     1     -10.205  -6.714   7.824  0.00  0.00    -0.030 A 
ATOM     20  C   UNL     1     -11.499  -6.241   8.041  0.00  0.00    -0.046 A 
ATOM     22  C   UNL     1      -9.107  -5.927   8.170  0.00  0.00    +0.005 A 
ATOM     27  C   UNL     1     -11.696  -4.980   8.605  0.00  0.00    +0.003 A 
ATOM     28  C   UNL     1     -12.690  -7.066   7.678  0.00  0.00    +0.044 C 
ATOM     29  C   UNL     1      -9.303  -4.667   8.734  0.00  0.00    +0.000 A 
ATOM     31  C   UNL     1     -10.598  -4.193   8.951  0.00  0.00    +0.000 A 
ENDBRANCH  13  15
ENDBRANCH   3  13
ENDBRANCH  14   9
TORSDOF 4
ENDMDL
MODEL 7
REMARK VINA RESULT:      -7.1     34.824     39.330
REMARK  Name = 51136828
REMARK  6 active torsions:
REMARK  status: ('A' for Active; 'I' for Inactive)
REMARK    1  A    between atoms: N_3  and  C_13
REMARK    2  A    between atoms: C_9  and  C_14
REMARK    3  A    between atoms: C_13  and  C_15
REMARK    4  A    between atoms: C_20  and  C_28
REMARK    5  A    between atoms: C_21  and  C_24
REMARK    6  A    between atoms: C_26  and  C_33
REMARK                            x       y       z     vdW  Elec       q    Type
REMARK                         _______ _______ _______ _____ _____    ______ ____
ROOT
ATOM      1  O   UNL     1      13.428   6.780   7.271  0.00  0.00    -0.336 OA
ATOM      6  N   UNL     1      13.008   7.329   5.140  0.00  0.00    -0.190 NA
ATOM      7  N   UNL     1      14.674   7.002   6.673  0.00  0.00    -0.056 NA
ATOM     14  C   UNL     1      12.501   6.994   6.300  0.00  0.00    +0.245 A 
ATOM     21  C   UNL     1      14.343   7.321   5.418  0.00  0.00    +0.202 A 
ENDROOT
BRANCH  21  24
ATOM      2  O   UNL     1      23.938   8.080   4.587  0.00  0.00    -0.276 OA
ATOM      4  N   UNL     1      18.903   8.222   4.136  0.00  0.00    -0.312 N 
ATOM      5  N   UNL     1      21.685   8.580   4.852  0.00  0.00    -0.299 N 
ATOM      8  N   UNL     1      17.232   8.241   2.467  0.00  0.00    -0.240 NA
ATOM     16  C   UNL     1      19.272   8.703   5.469  0.00  0.00    +0.125 C 
ATOM     17  C   UNL     1      19.978   7.855   3.210  0.00  0.00    +0.125 C 
ATOM     18  C   UNL     1      20.627   9.409   5.436  0.00  0.00    +0.126 C 
ATOM     19  C   UNL     1      21.250   7.495   3.975  0.00  0.00    +0.126 C 
ATOM     23  C   UNL     1      17.567   8.079   3.766  0.00  0.00    +0.122 A 
ATOM     24  C   UNL     1      15.323   7.635   4.417  0.00  0.00    +0.027 A 
ATOM     25  C   UNL     1      16.660   7.778   4.770  0.00  0.00    +0.055 A 
ATOM     26  C   UNL     1      23.047   8.778   5.078  0.00  0.00    +0.213 C 
ATOM     30  C   UNL     1      14.939   7.793   3.089  0.00  0.00    +0.031 A 
ATOM     32  C   UNL     1      15.923   8.093   2.162  0.00  0.00    +0.113 A 
ATOM     33  C   UNL     1      23.412   9.923   5.990  0.00  0.00    +0.109 C 
ENDBRANCH  21  24
BRANCH  14   9
ATOM      3  N   UNL     1      10.340   5.850   5.840  0.00  0.00    -0.287 NA
ATOM      9  C   UNL     1      11.051   6.817   6.699  0.00  0.00    +0.146 C 
ATOM     10  C   UNL     1      10.890   6.265   8.128  0.00  0.00    +0.030 C 
ATOM     11  C   UNL     1      10.025   5.021   7.978  0.00  0.00    +0.017 C 
ATOM     12  C   UNL     1       9.294   5.251   6.670  0.00  0.00    +0.085 C 
BRANCH   3  13
ATOM     13  C   UNL     1       9.801   6.447   4.626  0.00  0.00    +0.120 C 
BRANCH  13  15
ATOM     15  C   UNL     1      10.254   5.715   3.391  0.00  0.00    -0.030 A 
ATOM     20  C   UNL     1      10.069   6.265   2.123  0.00  0.00    -0.046 A 
ATOM     22  C   UNL     1      10.867   4.470   3.530  0.00  0.00    +0.005 A 
ATOM     27  C   UNL     1      10.497   5.569   0.992  0.00  0.00    +0.003 A 
ATOM     28  C   UNL     1       9.414   7.596   1.949  0.00  0.00    +0.044 C 
ATOM     29  C   UNL     1      11.296   3.775   2.399  0.00  0.00    +0.000 A 
ATOM     31  C   UNL     1      11.110   4.324   1.130  0.00  0.00    +0.000 A 
ENDBRANCH  13  15
ENDBRANCH   3  13
ENDBRANCH  14   9
TORSDOF 4
ENDMDL
MODEL 8
REMARK VINA RESULT:      -7.1     23.666     26.790
REMARK  Name = 51136828
REMARK  6 active torsions:
REMARK  status: ('A' for Active; 'I' for Inactive)
REMARK    1  A    between atoms: N_3  and  C_13
REMARK    2  A    between atoms: C_9  and  C_14
REMARK    3  A    between atoms: C_13  and  C_15
REMARK    4  A    between atoms: C_20  and  C_28
REMARK    5  A    between atoms: C_21  and  C_24
REMARK    6  A    between atoms: C_26  and  C_33
REMARK                            x       y       z     vdW  Elec       q    Type
REMARK                         _______ _______ _______ _____ _____    ______ ____
ROOT
ATOM      1  O   UNL     1      -7.034  -9.808   7.863  0.00  0.00    -0.336 OA
ATOM      6  N   UNL     1      -6.674  -8.595   9.711  0.00  0.00    -0.190 NA
ATOM      7  N   UNL     1      -5.920 -10.378   8.491  0.00  0.00    -0.056 NA
ATOM     14  C   UNL     1      -7.416  -8.765   8.646  0.00  0.00    +0.245 A 
ATOM     21  C   UNL     1      -5.769  -9.607   9.573  0.00  0.00    +0.202 A 
ENDROOT
BRANCH  21  24
ATOM      2  O   UNL     1      -4.752 -12.635  18.691  0.00  0.00    -0.276 OA
ATOM      4  N   UNL     1      -4.329 -10.668  14.050  0.00  0.00    -0.312 N 
ATOM      5  N   UNL     1      -4.961 -11.293  16.805  0.00  0.00    -0.299 N 
ATOM      8  N   UNL     1      -2.691 -10.242  12.404  0.00  0.00    -0.240 NA
ATOM     16  C   UNL     1      -5.574 -10.189  14.655  0.00  0.00    +0.125 C 
ATOM     17  C   UNL     1      -3.457 -11.532  14.852  0.00  0.00    +0.125 C 
ATOM     18  C   UNL     1      -5.426 -10.057  16.171  0.00  0.00    +0.126 C 
ATOM     19  C   UNL     1      -4.256 -12.239  15.944  0.00  0.00    +0.126 C 
ATOM     23  C   UNL     1      -3.997 -10.345  12.736  0.00  0.00    +0.122 A 
ATOM     24  C   UNL     1      -4.725  -9.821  10.534  0.00  0.00    +0.027 A 
ATOM     25  C   UNL     1      -5.041 -10.146  11.848  0.00  0.00    +0.055 A 
ATOM     26  C   UNL     1      -5.143 -11.594  18.155  0.00  0.00    +0.213 C 
ATOM     30  C   UNL     1      -3.392  -9.707  10.153  0.00  0.00    +0.031 A 
ATOM     32  C   UNL     1      -2.422  -9.925  11.117  0.00  0.00    +0.113 A 
ATOM     33  C   UNL     1      -5.874 -10.561  18.976  0.00  0.00    +0.109 C 
ENDBRANCH  21  24
BRANCH  14   9
ATOM      3  N   UNL     1      -9.559  -7.668   9.274  0.00  0.00    -0.287 NA
ATOM      9  C   UNL     1      -8.620  -7.974   8.178  0.00  0.00    +0.146 C 
ATOM     10  C   UNL     1      -8.237  -6.601   7.594  0.00  0.00    +0.030 C 
ATOM     11  C   UNL     1      -9.057  -5.591   8.385  0.00  0.00    +0.017 C 
ATOM     12  C   UNL     1     -10.217  -6.411   8.916  0.00  0.00    +0.085 C 
BRANCH   3  13
ATOM     13  C   UNL     1     -10.518  -8.736   9.524  0.00  0.00    +0.120 C 
BRANCH  13  15
ATOM     15  C   UNL     1     -10.594  -9.092  10.984  0.00  0.00    -0.030 A 
ATOM     20  C   UNL     1     -11.702  -8.737  11.753  0.00  0.00    -0.046 A 
ATOM     22  C   UNL     1      -9.535  -9.787  11.567  0.00  0.00    +0.005 A 
ATOM     27  C   UNL     1     -11.752  -9.077  13.105  0.00  0.00    +0.003 A 
ATOM     28  C   UNL     1     -12.848  -7.992  11.151  0.00  0.00    +0.044 C 
ATOM     29  C   UNL     1      -9.584 -10.128  12.919  0.00  0.00    +0.000 A 
ATOM     31  C   UNL     1     -10.692  -9.772  13.688  0.00  0.00    +0.000 A 
ENDBRANCH  13  15
ENDBRANCH   3  13
ENDBRANCH  14   9
TORSDOF 4
ENDMDL
MODEL 9
REMARK VINA RESULT:      -6.9     21.135     23.613
REMARK  Name = 51136828
REMARK  6 active torsions:
REMARK  status: ('A' for Active; 'I' for Inactive)
REMARK    1  A    between atoms: N_3  and  C_13
REMARK    2  A    between atoms: C_9  and  C_14
REMARK    3  A    between atoms: C_13  and  C_15
REMARK    4  A    between atoms: C_20  and  C_28
REMARK    5  A    between atoms: C_21  and  C_24
REMARK    6  A    between atoms: C_26  and  C_33
REMARK                            x       y       z     vdW  Elec       q    Type
REMARK                         _______ _______ _______ _____ _____    ______ ____
ROOT
ATOM      1  O   UNL     1     -13.223  -6.520  12.609  0.00  0.00    -0.336 OA
ATOM      6  N   UNL     1     -11.904  -5.636  14.190  0.00  0.00    -0.190 NA
ATOM      7  N   UNL     1     -12.778  -7.594  13.391  0.00  0.00    -0.056 NA
ATOM     14  C   UNL     1     -12.663  -5.405  13.148  0.00  0.00    +0.245 A 
ATOM     21  C   UNL     1     -12.006  -6.992  14.301  0.00  0.00    +0.202 A 
ENDROOT
BRANCH  21  24
ATOM      2  O   UNL     1      -3.344 -10.954  15.914  0.00  0.00    -0.276 OA
ATOM      4  N   UNL     1      -8.181  -9.478  15.861  0.00  0.00    -0.312 N 
ATOM      5  N   UNL     1      -5.581 -10.652  15.367  0.00  0.00    -0.299 N 
ATOM      8  N   UNL     1      -9.985  -9.127  17.344  0.00  0.00    -0.240 NA
ATOM     16  C   UNL     1      -7.802  -9.906  14.513  0.00  0.00    +0.125 C 
ATOM     17  C   UNL     1      -7.182  -9.589  16.929  0.00  0.00    +0.125 C 
ATOM     18  C   UNL     1      -6.755 -11.018  14.570  0.00  0.00    +0.126 C 
ATOM     19  C   UNL     1      -5.770  -9.587  16.349  0.00  0.00    +0.126 C 
ATOM     23  C   UNL     1      -9.442  -8.944  16.120  0.00  0.00    +0.122 A 
ATOM     24  C   UNL     1     -11.321  -7.718  15.333  0.00  0.00    +0.027 A 
ATOM     25  C   UNL     1     -10.062  -8.255  15.090  0.00  0.00    +0.055 A 
ATOM     26  C   UNL     1      -4.333 -11.261  15.244  0.00  0.00    +0.213 C 
ATOM     30  C   UNL     1     -11.913  -7.884  16.580  0.00  0.00    +0.031 A 
ATOM     32  C   UNL     1     -11.211  -8.590  17.543  0.00  0.00    +0.113 A 
ATOM     33  C   UNL     1      -4.224 -12.357  14.212  0.00  0.00    +0.109 C 
ENDBRANCH  21  24
BRANCH  14   9
ATOM      3  N   UNL     1     -13.154  -4.223  11.014  0.00  0.00    -0.287 NA
ATOM      9  C   UNL     1     -12.993  -4.089  12.475  0.00  0.00    +0.146 C 
ATOM     10  C   UNL     1     -14.325  -3.491  12.963  0.00  0.00    +0.030 C 
ATOM     11  C   UNL     1     -15.146  -3.267  11.700  0.00  0.00    +0.017 C 
ATOM     12  C   UNL     1     -14.101  -3.186  10.605  0.00  0.00    +0.085 C 
BRANCH   3  13
ATOM     13  C   UNL     1     -11.894  -4.133  10.287  0.00  0.00    +0.120 C 
BRANCH  13  15
ATOM     15  C   UNL     1     -11.808  -5.155   9.185  0.00  0.00    -0.030 A 
ATOM     20  C   UNL     1     -10.635  -5.320   8.450  0.00  0.00    -0.046 A 
ATOM     22  C   UNL     1     -12.925  -5.941   8.903  0.00  0.00    +0.005 A 
ATOM     27  C   UNL     1     -10.577  -6.273   7.432  0.00  0.00    +0.003 A 
ATOM     28  C   UNL     1      -9.427  -4.489   8.733  0.00  0.00    +0.044 C 
ATOM     29  C   UNL     1     -12.868  -6.894   7.886  0.00  0.00    +0.000 A 
ATOM     31  C   UNL     1     -11.694  -7.059   7.150  0.00  0.00    +0.000 A 
ENDBRANCH  13  15
ENDBRANCH   3  13
ENDBRANCH  14   9
TORSDOF 4
ENDMDL
MODEL 10
REMARK VINA RESULT:      -6.9      3.747      5.531
REMARK  Name = 51136828
REMARK  6 active torsions:
REMARK  status: ('A' for Active; 'I' for Inactive)
REMARK    1  A    between atoms: N_3  and  C_13
REMARK    2  A    between atoms: C_9  and  C_14
REMARK    3  A    between atoms: C_13  and  C_15
REMARK    4  A    between atoms: C_20  and  C_28
REMARK    5  A    between atoms: C_21  and  C_24
REMARK    6  A    between atoms: C_26  and  C_33
REMARK                            x       y       z     vdW  Elec       q    Type
REMARK                         _______ _______ _______ _____ _____    ______ ____
ROOT
ATOM      1  O   UNL     1     -12.052   9.567  33.089  0.00  0.00    -0.336 OA
ATOM      6  N   UNL     1     -13.586   8.942  34.597  0.00  0.00    -0.190 NA
ATOM      7  N   UNL     1     -12.218   8.185  32.927  0.00  0.00    -0.056 NA
ATOM     14  C   UNL     1     -12.894   9.932  34.091  0.00  0.00    +0.245 A 
ATOM     21  C   UNL     1     -13.138   7.891  33.851  0.00  0.00    +0.202 A 
ENDROOT
BRANCH  21  24
ATOM      2  O   UNL     1     -15.370   0.063  28.648  0.00  0.00    -0.276 OA
ATOM      4  N   UNL     1     -14.760   3.698  32.113  0.00  0.00    -0.312 N 
ATOM      5  N   UNL     1     -15.514   2.039  29.863  0.00  0.00    -0.299 N 
ATOM      8  N   UNL     1     -14.578   3.959  34.453  0.00  0.00    -0.240 NA
ATOM     16  C   UNL     1     -15.250   4.304  30.873  0.00  0.00    +0.125 C 
ATOM     17  C   UNL     1     -14.591   2.242  32.152  0.00  0.00    +0.125 C 
ATOM     18  C   UNL     1     -16.154   3.333  30.113  0.00  0.00    +0.126 C 
ATOM     19  C   UNL     1     -14.404   1.683  30.744  0.00  0.00    +0.126 C 
ATOM     23  C   UNL     1     -14.428   4.482  33.215  0.00  0.00    +0.122 A 
ATOM     24  C   UNL     1     -13.628   6.558  34.055  0.00  0.00    +0.027 A 
ATOM     25  C   UNL     1     -13.962   5.763  32.965  0.00  0.00    +0.055 A 
ATOM     26  C   UNL     1     -15.909   1.153  28.861  0.00  0.00    +0.213 C 
ATOM     30  C   UNL     1     -13.768   6.055  35.344  0.00  0.00    +0.031 A 
ATOM     32  C   UNL     1     -14.243   4.762  35.488  0.00  0.00    +0.113 A 
ATOM     33  C   UNL     1     -17.067   1.594  28.000  0.00  0.00    +0.109 C 
ENDBRANCH  21  24
BRANCH  14   9
ATOM      3  N   UNL     1     -11.574  11.890  34.874  0.00  0.00    -0.287 NA
ATOM      9  C   UNL     1     -12.904  11.399  34.465  0.00  0.00    +0.146 C 
ATOM     10  C   UNL     1     -13.314  12.308  33.292  0.00  0.00    +0.030 C 
ATOM     11  C   UNL     1     -12.181  13.316  33.155  0.00  0.00    +0.017 C 
ATOM     12  C   UNL     1     -11.532  13.311  34.525  0.00  0.00    +0.085 C 
BRANCH   3  13
ATOM     13  C   UNL     1     -11.287  11.664  36.284  0.00  0.00    +0.120 C 
BRANCH  13  15
ATOM     15  C   UNL     1     -10.393  10.470  36.490  0.00  0.00    -0.030 A 
ATOM     20  C   UNL     1     -10.840   9.353  37.196  0.00  0.00    -0.046 A 
ATOM     22  C   UNL     1      -9.102  10.492  35.963  0.00  0.00    +0.005 A 
ATOM     27  C   UNL     1      -9.994   8.257  37.375  0.00  0.00    +0.003 A 
ATOM     28  C   UNL     1     -12.217   9.306  37.770  0.00  0.00    +0.044 C 
ATOM     29  C   UNL     1      -8.257   9.397  36.141  0.00  0.00    +0.000 A 
ATOM     31  C   UNL     1      -8.704   8.280  36.848  0.00  0.00    +0.000 A 
ENDBRANCH  13  15
ENDBRANCH   3  13
ENDBRANCH  14   9
TORSDOF 4
ENDMDL
