REMARK  Name = 51136673
REMARK  8 active torsions:
REMARK  status: ('A' for Active; 'I' for Inactive)
REMARK    1  A    between atoms: O_1  and  C_18
REMARK    2  A    between atoms: O_4  and  C_25
REMARK    3  A    between atoms: O_4  and  C_31
REMARK    4  A    between atoms: N_7  and  C_26
REMARK    5  A    between atoms: C_8  and  C_12
REMARK    6  A    between atoms: C_9  and  C_14
REMARK    7  A    between atoms: C_12  and  C_15
REMARK    8  A    between atoms: C_14  and  C_18
REMARK                            x       y       z     vdW  Elec       q    Type
REMARK                         _______ _______ _______ _____ _____    ______ ____
ROOT
ATOM      2  O   UNL     1      -0.617   3.745  -0.267  0.00  0.00    -0.252 OA
ATOM      5  N   UNL     1      -1.826   2.023   0.690  0.00  0.00    -0.285 N 
ATOM      7  N   UNL     1       0.501   2.186   1.037  0.00  0.00    -0.269 N 
ATOM      8  C   UNL     1      -2.536  -0.352   0.729  0.00  0.00    +0.016 C 
ATOM      9  C   UNL     1      -3.866   0.072   0.052  0.00  0.00    +0.006 C 
ATOM     10  C   UNL     1      -3.709   1.376  -0.752  0.00  0.00    +0.023 C 
ATOM     11  C   UNL     1      -1.971   0.829   1.536  0.00  0.00    +0.113 C 
ATOM     13  C   UNL     1      -3.081   2.483   0.093  0.00  0.00    +0.109 C 
ATOM     16  C   UNL     1      -0.634   2.736   0.443  0.00  0.00    +0.306 C 
ATOM     33  H   UNL     1       0.391   1.663   1.898  0.00  0.00    +0.156 HD
ENDROOT
BRANCH   7  26
ATOM     26  C   UNL     1       1.836   2.252   0.566  0.00  0.00    +0.035 A 
ATOM     27  C   UNL     1       2.861   1.642   1.289  0.00  0.00    +0.023 A 
ATOM     28  C   UNL     1       2.124   2.927  -0.620  0.00  0.00    +0.023 A 
ATOM     29  C   UNL     1       4.175   1.707   0.826  0.00  0.00    +0.002 A 
ATOM     30  C   UNL     1       3.438   2.993  -1.083  0.00  0.00    +0.002 A 
ATOM     32  C   UNL     1       4.464   2.382  -0.360  0.00  0.00    +0.000 A 
ENDBRANCH   7  26
BRANCH   8  12
ATOM     12  C   UNL     1      -1.482  -0.888  -0.247  0.00  0.00    +0.061 C 
BRANCH  12  15
ATOM      6  N   UNL     1      -0.863  -2.339   1.565  0.00  0.00    -0.287 NA
ATOM     15  C   UNL     1      -0.469  -1.722   0.500  0.00  0.00    +0.044 C 
ATOM     17  C   UNL     1       0.922  -1.789  -0.016  0.00  0.00    -0.001 A 
ATOM     19  C   UNL     1       1.906  -2.231   0.877  0.00  0.00    -0.033 A 
ATOM     20  C   UNL     1       1.501  -2.588   2.276  0.00  0.00    +0.059 C 
ATOM     21  C   UNL     1       0.105  -3.197   2.256  0.00  0.00    +0.146 C 
ATOM     22  C   UNL     1       1.263  -1.421  -1.319  0.00  0.00    +0.013 A 
ATOM     23  C   UNL     1       3.241  -2.278   0.466  0.00  0.00    +0.050 A 
ATOM     24  C   UNL     1       2.596  -1.486  -1.726  0.00  0.00    +0.046 A 
ATOM     25  C   UNL     1       3.583  -1.910  -0.835  0.00  0.00    +0.120 A 
BRANCH  25   4
ATOM      4  O   UNL     1       4.883  -1.964  -1.237  0.00  0.00    -0.495 OA
ATOM     31  C   UNL     1       5.163  -1.571  -2.580  0.00  0.00    +0.277 C 
ENDBRANCH  25   4
ENDBRANCH  12  15
ENDBRANCH   8  12
BRANCH   9  14
ATOM     14  C   UNL     1      -4.474  -1.028  -0.819  0.00  0.00    +0.124 C 
BRANCH  14  18
ATOM      3  O   UNL     1      -6.631   0.075  -0.551  0.00  0.00    -0.251 OA
ATOM     18  C   UNL     1      -5.953  -0.833  -1.008  0.00  0.00    +0.305 C 
BRANCH  18   1
ATOM      1  O   UNL     1      -6.451  -1.832  -1.781  0.00  0.00    -0.481 OA
ATOM     34  H   UNL     1      -7.417  -1.735  -1.925  0.00  0.00    +0.295 HD
ENDBRANCH  18   1
ENDBRANCH  14  18
ENDBRANCH   9  14
TORSDOF 7
