REMARK  Name = 75368458
REMARK  5 active torsions:
REMARK  status: ('A' for Active; 'I' for Inactive)
REMARK    1  A    between atoms: O_5  and  C_28
REMARK    2  A    between atoms: O_5  and  C_30
REMARK    3  A    between atoms: N_7  and  C_15
REMARK    4  A    between atoms: C_15  and  C_17
REMARK    5  A    between atoms: C_16  and  C_18
REMARK                            x       y       z     vdW  Elec       q    Type
REMARK                         _______ _______ _______ _____ _____    ______ ____
ROOT
ATOM      1  O   UNL     1       2.662  -3.186   0.864  0.00  0.00    -0.252 OA
ATOM      2  O   UNL     1      -3.717  -2.375  -1.867  0.00  0.00    -0.270 OA
ATOM      6  N   UNL     1       0.562  -2.231   0.419  0.00  0.00    -0.278 N 
ATOM      7  N   UNL     1       2.095  -0.984   1.488  0.00  0.00    -0.279 N 
ATOM      8  N   UNL     1      -1.684  -1.546  -1.067  0.00  0.00    -0.294 N 
ATOM      9  C   UNL     1      -0.136  -1.002   0.756  0.00  0.00    +0.112 C 
ATOM     10  C   UNL     1       0.968  -0.090   1.284  0.00  0.00    +0.133 C 
ATOM     11  C   UNL     1      -0.879  -0.466  -0.463  0.00  0.00    +0.132 C 
ATOM     12  C   UNL     1      -0.145  -3.299  -0.267  0.00  0.00    +0.128 C 
ATOM     13  C   UNL     1      -0.916  -2.736  -1.459  0.00  0.00    +0.127 C 
ATOM     14  C   UNL     1       1.871  -2.253   0.919  0.00  0.00    +0.306 C 
ATOM     16  C   UNL     1      -3.055  -1.492  -1.324  0.00  0.00    +0.247 C 
ENDROOT
BRANCH  16  18
ATOM      3  O   UNL     1      -5.657   1.147   1.907  0.00  0.00    -0.453 OA
ATOM      4  O   UNL     1      -5.870   3.003   0.386  0.00  0.00    -0.453 OA
ATOM     18  C   UNL     1      -3.791  -0.291  -0.906  0.00  0.00    +0.041 A 
ATOM     21  C   UNL     1      -4.359  -0.235   0.368  0.00  0.00    +0.062 A 
ATOM     22  C   UNL     1      -3.915   0.792  -1.794  0.00  0.00    +0.017 A 
ATOM     23  C   UNL     1      -5.040   0.913   0.716  0.00  0.00    +0.167 A 
ATOM     26  C   UNL     1      -4.610   1.944  -1.417  0.00  0.00    +0.050 A 
ATOM     27  C   UNL     1      -5.162   1.974  -0.152  0.00  0.00    +0.166 A 
ATOM     29  C   UNL     1      -6.180   2.473   1.690  0.00  0.00    +0.466 C 
ENDBRANCH  16  18
BRANCH   7  15
ATOM     15  C   UNL     1       3.330  -0.532   2.088  0.00  0.00    +0.144 C 
BRANCH  15  17
ATOM     17  C   UNL     1       4.216   0.164   1.096  0.00  0.00    -0.030 A 
ATOM     19  C   UNL     1       4.331   1.554   1.120  0.00  0.00    +0.009 A 
ATOM     20  C   UNL     1       4.923  -0.578   0.150  0.00  0.00    +0.009 A 
ATOM     24  C   UNL     1       5.154   2.201   0.198  0.00  0.00    +0.046 A 
ATOM     25  C   UNL     1       5.746   0.069  -0.771  0.00  0.00    +0.046 A 
ATOM     28  C   UNL     1       5.861   1.459  -0.747  0.00  0.00    +0.120 A 
BRANCH  28   5
ATOM      5  O   UNL     1       6.663   2.091  -1.647  0.00  0.00    -0.495 OA
ATOM     30  C   UNL     1       6.735   3.514  -1.566  0.00  0.00    +0.277 C 
ENDBRANCH  28   5
ENDBRANCH  15  17
ENDBRANCH   7  15
TORSDOF 4
