MODEL 1
REMARK VINA RESULT:      -6.6      0.000      0.000
REMARK  Name = 45361501
REMARK  12 active torsions:
REMARK  status: ('A' for Active; 'I' for Inactive)
REMARK    1  A    between atoms: O_2  and  C_11
REMARK    2  A    between atoms: O_5  and  C_24
REMARK    3  A    between atoms: O_5  and  C_27
REMARK    4  A    between atoms: N_6  and  C_15
REMARK    5  A    between atoms: N_7  and  C_25
REMARK    6  A    between atoms: C_8  and  C_18
REMARK    7  A    between atoms: C_10  and  C_20
REMARK    8  A    between atoms: C_14  and  C_19
REMARK    9  A    between atoms: C_19  and  C_21
REMARK   10  A    between atoms: C_19  and  C_22
REMARK   11  A    between atoms: C_23  and  C_24
REMARK   12  A    between atoms: C_25  and  C_26
REMARK                            x       y       z     vdW  Elec       q    Type
REMARK                         _______ _______ _______ _____ _____    ______ ____
ROOT
ATOM      8  C   UNL     1      -3.349 -10.734  11.002  0.00  0.00    -0.027 C 
ATOM      9  C   UNL     1      -4.665 -10.337  11.749  0.00  0.00    +0.028 C 
ATOM     10  C   UNL     1      -5.446  -9.228  10.954  0.00  0.00    +0.012 C 
ATOM     11  C   UNL     1      -4.390 -10.016  13.245  0.00  0.00    +0.122 C 
ATOM     12  C   UNL     1      -2.664 -11.902  11.750  0.00  0.00    +0.007 C 
ATOM     13  C   UNL     1      -3.704 -11.228   9.581  0.00  0.00    +0.009 C 
ATOM     14  C   UNL     1      -3.612 -11.144  13.962  0.00  0.00    +0.029 C 
ATOM     15  C   UNL     1      -5.733  -9.708   9.503  0.00  0.00    +0.076 C 
ATOM     16  C   UNL     1      -2.357 -11.577  13.206  0.00  0.00    +0.007 C 
ATOM     17  C   UNL     1      -4.486 -10.205   8.770  0.00  0.00    +0.023 C 
ATOM     18  C   UNL     1      -2.347  -9.555  10.895  0.00  0.00    +0.011 C 
ATOM     20  C   UNL     1      -6.769  -8.810  11.619  0.00  0.00    +0.010 C 
ENDROOT
BRANCH  15   6
ATOM      4  O   UNL     1      -8.315  -9.802   8.204  0.00  0.00    -0.273 OA
ATOM      6  N   UNL     1      -6.349  -8.668   8.707  0.00  0.00    -0.310 N 
ATOM     23  C   UNL     1      -7.596  -8.809   8.123  0.00  0.00    +0.239 C 
ATOM     33  H   UNL     1      -5.810  -7.826   8.521  0.00  0.00    +0.149 HD
BRANCH  23  24
ATOM     24  C   UNL     1      -7.995  -7.570   7.351  0.00  0.00    +0.255 C 
BRANCH  24   5
ATOM      5  O   UNL     1      -8.269  -6.501   8.231  0.00  0.00    -0.374 OA
ATOM     27  C   UNL     1      -9.603  -6.549   8.727  0.00  0.00    +0.194 C 
ENDBRANCH  24   5
ENDBRANCH  23  24
ENDBRANCH  15   6
BRANCH  11   2
ATOM      2  O   UNL     1      -5.630  -9.870  13.939  0.00  0.00    -0.391 OA
ATOM     34  H   UNL     1      -6.336  -9.767  13.277  0.00  0.00    +0.210 HD
ENDBRANCH  11   2
BRANCH  14  19
ATOM     19  C   UNL     1      -3.237 -10.754  15.398  0.00  0.00    +0.077 C 
ATOM     21  C   UNL     1      -1.765 -11.057  15.655  0.00  0.00    +0.017 C 
BRANCH  19  22
ATOM      3  O   UNL     1      -4.363 -12.693  16.311  0.00  0.00    -0.276 OA
ATOM      7  N   UNL     1      -4.656 -10.645  17.360  0.00  0.00    -0.311 N 
ATOM     22  C   UNL     1      -4.137 -11.488  16.387  0.00  0.00    +0.216 C 
ATOM     35  H   UNL     1      -4.377  -9.670  17.385  0.00  0.00    +0.149 HD
BRANCH   7  25
ATOM     25  C   UNL     1      -5.536 -11.110  18.406  0.00  0.00    +0.141 C 
BRANCH  25  26
ATOM      1 CL   UNL     1      -7.796 -12.539  19.948  0.00  0.00    -0.083 Cl
ATOM     26  C   UNL     1      -6.940 -10.613  18.221  0.00  0.00    -0.012 A 
ATOM     28  C   UNL     1      -8.020 -11.203  18.879  0.00  0.00    +0.046 A 
ATOM     29  C   UNL     1      -7.152  -9.533  17.363  0.00  0.00    +0.006 A 
ATOM     30  C   UNL     1      -9.309 -10.712  18.682  0.00  0.00    +0.020 A 
ATOM     31  C   UNL     1      -8.443  -9.043  17.165  0.00  0.00    +0.000 A 
ATOM     32  C   UNL     1      -9.522  -9.633  17.823  0.00  0.00    +0.001 A 
ENDBRANCH  25  26
ENDBRANCH   7  25
ENDBRANCH  19  22
ENDBRANCH  14  19
TORSDOF 8
ENDMDL
MODEL 2
REMARK VINA RESULT:      -6.5      3.331      7.946
REMARK  Name = 45361501
REMARK  12 active torsions:
REMARK  status: ('A' for Active; 'I' for Inactive)
REMARK    1  A    between atoms: O_2  and  C_11
REMARK    2  A    between atoms: O_5  and  C_24
REMARK    3  A    between atoms: O_5  and  C_27
REMARK    4  A    between atoms: N_6  and  C_15
REMARK    5  A    between atoms: N_7  and  C_25
REMARK    6  A    between atoms: C_8  and  C_18
REMARK    7  A    between atoms: C_10  and  C_20
REMARK    8  A    between atoms: C_14  and  C_19
REMARK    9  A    between atoms: C_19  and  C_21
REMARK   10  A    between atoms: C_19  and  C_22
REMARK   11  A    between atoms: C_23  and  C_24
REMARK   12  A    between atoms: C_25  and  C_26
REMARK                            x       y       z     vdW  Elec       q    Type
REMARK                         _______ _______ _______ _____ _____    ______ ____
ROOT
ATOM      8  C   UNL     1      -4.743 -11.041  16.856  0.00  0.00    -0.027 C 
ATOM      9  C   UNL     1      -5.510 -10.466  15.619  0.00  0.00    +0.028 C 
ATOM     10  C   UNL     1      -7.063 -10.608  15.810  0.00  0.00    +0.012 C 
ATOM     11  C   UNL     1      -4.945 -11.041  14.289  0.00  0.00    +0.122 C 
ATOM     12  C   UNL     1      -3.226 -10.785  16.687  0.00  0.00    +0.007 C 
ATOM     13  C   UNL     1      -5.206 -10.296  18.128  0.00  0.00    +0.009 C 
ATOM     14  C   UNL     1      -3.412 -10.876  14.172  0.00  0.00    +0.029 C 
ATOM     15  C   UNL     1      -7.508  -9.918  17.131  0.00  0.00    +0.076 C 
ATOM     16  C   UNL     1      -2.662 -11.381  15.403  0.00  0.00    +0.007 C 
ATOM     17  C   UNL     1      -6.710 -10.376  18.353  0.00  0.00    +0.023 C 
ATOM     18  C   UNL     1      -4.973 -12.563  17.044  0.00  0.00    +0.011 C 
ATOM     20  C   UNL     1      -7.881 -10.035  14.641  0.00  0.00    +0.010 C 
ENDROOT
BRANCH  15   6
ATOM      4  O   UNL     1      -9.549  -7.892  17.436  0.00  0.00    -0.273 OA
ATOM      6  N   UNL     1      -8.915 -10.129  17.398  0.00  0.00    -0.310 N 
ATOM     23  C   UNL     1      -9.817  -9.087  17.527  0.00  0.00    +0.239 C 
ATOM     33  H   UNL     1      -9.234 -11.080  17.557  0.00  0.00    +0.149 HD
BRANCH  23  24
ATOM     24  C   UNL     1     -11.217  -9.593  17.801  0.00  0.00    +0.255 C 
BRANCH  24   5
ATOM      5  O   UNL     1     -11.213 -10.521  18.864  0.00  0.00    -0.374 OA
ATOM     27  C   UNL     1     -11.618  -9.924  20.093  0.00  0.00    +0.194 C 
ENDBRANCH  24   5
ENDBRANCH  23  24
ENDBRANCH  15   6
BRANCH  11   2
ATOM      2  O   UNL     1      -5.518 -10.338  13.185  0.00  0.00    -0.391 OA
ATOM     34  H   UNL     1      -5.768 -10.990  12.507  0.00  0.00    +0.210 HD
ENDBRANCH  11   2
BRANCH  14  19
ATOM     19  C   UNL     1      -2.859 -11.563  12.917  0.00  0.00    +0.077 C 
ATOM     21  C   UNL     1      -1.633 -12.397  13.273  0.00  0.00    +0.017 C 
BRANCH  19  22
ATOM      3  O   UNL     1      -1.457  -9.922  11.819  0.00  0.00    -0.276 OA
ATOM      7  N   UNL     1      -3.571 -10.329  10.955  0.00  0.00    -0.311 N 
ATOM     22  C   UNL     1      -2.531 -10.518  11.854  0.00  0.00    +0.216 C 
ATOM     35  H   UNL     1      -4.407 -10.901  11.021  0.00  0.00    +0.149 HD
BRANCH   7  25
ATOM     25  C   UNL     1      -3.496  -9.390   9.861  0.00  0.00    +0.141 C 
BRANCH  25  26
ATOM      1 CL   UNL     1      -4.456 -11.416   7.740  0.00  0.00    -0.083 Cl
ATOM     26  C   UNL     1      -4.836  -9.162   9.223  0.00  0.00    -0.012 A 
ATOM     28  C   UNL     1      -5.344 -10.030   8.256  0.00  0.00    +0.046 A 
ATOM     29  C   UNL     1      -5.577  -8.050   9.621  0.00  0.00    +0.006 A 
ATOM     30  C   UNL     1      -6.593  -9.785   7.687  0.00  0.00    +0.020 A 
ATOM     31  C   UNL     1      -6.827  -7.804   9.051  0.00  0.00    +0.000 A 
ATOM     32  C   UNL     1      -7.334  -8.671   8.084  0.00  0.00    +0.001 A 
ENDBRANCH  25  26
ENDBRANCH   7  25
ENDBRANCH  19  22
ENDBRANCH  14  19
TORSDOF 8
ENDMDL
MODEL 3
REMARK VINA RESULT:      -6.3     23.469     25.829
REMARK  Name = 45361501
REMARK  12 active torsions:
REMARK  status: ('A' for Active; 'I' for Inactive)
REMARK    1  A    between atoms: O_2  and  C_11
REMARK    2  A    between atoms: O_5  and  C_24
REMARK    3  A    between atoms: O_5  and  C_27
REMARK    4  A    between atoms: N_6  and  C_15
REMARK    5  A    between atoms: N_7  and  C_25
REMARK    6  A    between atoms: C_8  and  C_18
REMARK    7  A    between atoms: C_10  and  C_20
REMARK    8  A    between atoms: C_14  and  C_19
REMARK    9  A    between atoms: C_19  and  C_21
REMARK   10  A    between atoms: C_19  and  C_22
REMARK   11  A    between atoms: C_23  and  C_24
REMARK   12  A    between atoms: C_25  and  C_26
REMARK                            x       y       z     vdW  Elec       q    Type
REMARK                         _______ _______ _______ _____ _____    ______ ____
ROOT
ATOM      8  C   UNL     1      12.747   4.572   0.228  0.00  0.00    -0.027 C 
ATOM      9  C   UNL     1      11.315   5.152  -0.016  0.00  0.00    +0.028 C 
ATOM     10  C   UNL     1      10.912   5.028  -1.530  0.00  0.00    +0.012 C 
ATOM     11  C   UNL     1      11.170   6.574   0.598  0.00  0.00    +0.122 C 
ATOM     12  C   UNL     1      13.067   4.607   1.742  0.00  0.00    +0.007 C 
ATOM     13  C   UNL     1      12.777   3.094  -0.225  0.00  0.00    +0.009 C 
ATOM     14  C   UNL     1      11.591   6.625   2.086  0.00  0.00    +0.029 C 
ATOM     15  C   UNL     1      11.017   3.547  -1.995  0.00  0.00    +0.076 C 
ATOM     16  C   UNL     1      12.964   6.005   2.339  0.00  0.00    +0.007 C 
ATOM     17  C   UNL     1      12.370   2.907  -1.680  0.00  0.00    +0.023 C 
ATOM     18  C   UNL     1      13.846   5.360  -0.531  0.00  0.00    +0.011 C 
ATOM     20  C   UNL     1       9.500   5.554  -1.837  0.00  0.00    +0.010 C 
ENDROOT
BRANCH  15   6
ATOM      4  O   UNL     1       9.196   1.702  -3.276  0.00  0.00    -0.273 OA
ATOM      6  N   UNL     1      10.766   3.412  -3.413  0.00  0.00    -0.310 N 
ATOM     23  C   UNL     1       9.870   2.493  -3.932  0.00  0.00    +0.239 C 
ATOM     33  H   UNL     1      11.319   3.975  -4.053  0.00  0.00    +0.149 HD
BRANCH  23  24
ATOM     24  C   UNL     1       9.803   2.569  -5.442  0.00  0.00    +0.255 C 
BRANCH  24   5
ATOM      5  O   UNL     1       9.432   3.866  -5.860  0.00  0.00    -0.374 OA
ATOM     27  C   UNL     1       8.879   3.864  -7.172  0.00  0.00    +0.194 C 
ENDBRANCH  24   5
ENDBRANCH  23  24
ENDBRANCH  15   6
BRANCH  11   2
ATOM      2  O   UNL     1       9.801   6.979   0.547  0.00  0.00    -0.391 OA
ATOM     34  H   UNL     1       9.732   7.863   0.945  0.00  0.00    +0.210 HD
ENDBRANCH  11   2
BRANCH  14  19
ATOM     19  C   UNL     1      11.565   8.056   2.636  0.00  0.00    +0.077 C 
ATOM     21  C   UNL     1      12.931   8.423   3.206  0.00  0.00    +0.017 C 
BRANCH  19  22
ATOM      3  O   UNL     1      10.419   9.128   4.480  0.00  0.00    -0.276 OA
ATOM      7  N   UNL     1       9.562   7.140   3.648  0.00  0.00    -0.311 N 
ATOM     22  C   UNL     1      10.470   8.188   3.690  0.00  0.00    +0.216 C 
ATOM     35  H   UNL     1       9.644   6.428   2.928  0.00  0.00    +0.149 HD
BRANCH   7  25
ATOM     25  C   UNL     1       8.437   7.044   4.548  0.00  0.00    +0.141 C 
BRANCH  25  26
ATOM      1 CL   UNL     1       9.996   4.392   4.795  0.00  0.00    -0.083 Cl
ATOM     26  C   UNL     1       8.853   6.596   5.919  0.00  0.00    -0.012 A 
ATOM     28  C   UNL     1       9.559   5.409   6.119  0.00  0.00    +0.046 A 
ATOM     29  C   UNL     1       8.514   7.397   7.009  0.00  0.00    +0.006 A 
ATOM     30  C   UNL     1       9.928   5.027   7.408  0.00  0.00    +0.020 A 
ATOM     31  C   UNL     1       8.882   7.014   8.299  0.00  0.00    +0.000 A 
ATOM     32  C   UNL     1       9.589   5.828   8.498  0.00  0.00    +0.001 A 
ENDBRANCH  25  26
ENDBRANCH   7  25
ENDBRANCH  19  22
ENDBRANCH  14  19
TORSDOF 8
ENDMDL
MODEL 4
REMARK VINA RESULT:      -6.3     24.147     27.438
REMARK  Name = 45361501
REMARK  12 active torsions:
REMARK  status: ('A' for Active; 'I' for Inactive)
REMARK    1  A    between atoms: O_2  and  C_11
REMARK    2  A    between atoms: O_5  and  C_24
REMARK    3  A    between atoms: O_5  and  C_27
REMARK    4  A    between atoms: N_6  and  C_15
REMARK    5  A    between atoms: N_7  and  C_25
REMARK    6  A    between atoms: C_8  and  C_18
REMARK    7  A    between atoms: C_10  and  C_20
REMARK    8  A    between atoms: C_14  and  C_19
REMARK    9  A    between atoms: C_19  and  C_21
REMARK   10  A    between atoms: C_19  and  C_22
REMARK   11  A    between atoms: C_23  and  C_24
REMARK   12  A    between atoms: C_25  and  C_26
REMARK                            x       y       z     vdW  Elec       q    Type
REMARK                         _______ _______ _______ _____ _____    ______ ____
ROOT
ATOM      8  C   UNL     1       9.412   6.334   6.308  0.00  0.00    -0.027 C 
ATOM      9  C   UNL     1      10.459   7.382   5.803  0.00  0.00    +0.028 C 
ATOM     10  C   UNL     1      10.024   8.840   6.195  0.00  0.00    +0.012 C 
ATOM     11  C   UNL     1      10.792   7.166   4.299  0.00  0.00    +0.122 C 
ATOM     12  C   UNL     1       9.924   4.906   6.005  0.00  0.00    +0.007 C 
ATOM     13  C   UNL     1       9.264   6.466   7.841  0.00  0.00    +0.009 C 
ATOM     14  C   UNL     1      11.204   5.710   3.984  0.00  0.00    +0.029 C 
ATOM     15  C   UNL     1       9.806   8.941   7.732  0.00  0.00    +0.076 C 
ATOM     16  C   UNL     1      10.215   4.679   4.527  0.00  0.00    +0.007 C 
ATOM     17  C   UNL     1       8.869   7.867   8.284  0.00  0.00    +0.023 C 
ATOM     18  C   UNL     1       8.022   6.515   5.644  0.00  0.00    +0.011 C 
ATOM     20  C   UNL     1      11.025   9.921   5.754  0.00  0.00    +0.010 C 
ENDROOT
BRANCH  15   6
ATOM      4  O   UNL     1      11.060  10.864   9.491  0.00  0.00    -0.273 OA
ATOM      6  N   UNL     1       9.293  10.239   8.115  0.00  0.00    -0.310 N 
ATOM     23  C   UNL     1       9.972  11.092   8.968  0.00  0.00    +0.239 C 
ATOM     33  H   UNL     1       8.366  10.502   7.791  0.00  0.00    +0.149 HD
BRANCH  23  24
ATOM     24  C   UNL     1       9.208  12.379   9.196  0.00  0.00    +0.255 C 
BRANCH  24   5
ATOM      5  O   UNL     1       9.777  13.434   8.450  0.00  0.00    -0.374 OA
ATOM     27  C   UNL     1      10.413  14.395   9.288  0.00  0.00    +0.194 C 
ENDBRANCH  24   5
ENDBRANCH  23  24
ENDBRANCH  15   6
BRANCH  11   2
ATOM      2  O   UNL     1      11.899   7.992   3.933  0.00  0.00    -0.391 OA
ATOM     34  H   UNL     1      12.071   7.865   2.984  0.00  0.00    +0.210 HD
ENDBRANCH  11   2
BRANCH  14  19
ATOM     19  C   UNL     1      11.403   5.486   2.479  0.00  0.00    +0.077 C 
ATOM     21  C   UNL     1      10.584   4.287   2.015  0.00  0.00    +0.017 C 
BRANCH  19  22
ATOM      3  O   UNL     1      13.702   6.214   2.263  0.00  0.00    -0.276 OA
ATOM      7  N   UNL     1      13.190   4.002   1.788  0.00  0.00    -0.311 N 
ATOM     22  C   UNL     1      12.885   5.300   2.173  0.00  0.00    +0.216 C 
ATOM     35  H   UNL     1      12.466   3.290   1.790  0.00  0.00    +0.149 HD
BRANCH   7  25
ATOM     25  C   UNL     1      14.528   3.582   1.446  0.00  0.00    +0.141 C 
BRANCH  25  26
ATOM      1 CL   UNL     1      12.564   3.069  -0.879  0.00  0.00    -0.083 Cl
ATOM     26  C   UNL     1      14.927   4.039   0.073  0.00  0.00    -0.012 A 
ATOM     28  C   UNL     1      14.098   3.846  -1.033  0.00  0.00    +0.046 A 
ATOM     29  C   UNL     1      16.160   4.671  -0.083  0.00  0.00    +0.006 A 
ATOM     30  C   UNL     1      14.502   4.285  -2.293  0.00  0.00    +0.020 A 
ATOM     31  C   UNL     1      16.565   5.110  -1.344  0.00  0.00    +0.000 A 
ATOM     32  C   UNL     1      15.736   4.916  -2.449  0.00  0.00    +0.001 A 
ENDBRANCH  25  26
ENDBRANCH   7  25
ENDBRANCH  19  22
ENDBRANCH  14  19
TORSDOF 8
ENDMDL
MODEL 5
REMARK VINA RESULT:      -6.3     22.563     26.798
REMARK  Name = 45361501
REMARK  12 active torsions:
REMARK  status: ('A' for Active; 'I' for Inactive)
REMARK    1  A    between atoms: O_2  and  C_11
REMARK    2  A    between atoms: O_5  and  C_24
REMARK    3  A    between atoms: O_5  and  C_27
REMARK    4  A    between atoms: N_6  and  C_15
REMARK    5  A    between atoms: N_7  and  C_25
REMARK    6  A    between atoms: C_8  and  C_18
REMARK    7  A    between atoms: C_10  and  C_20
REMARK    8  A    between atoms: C_14  and  C_19
REMARK    9  A    between atoms: C_19  and  C_21
REMARK   10  A    between atoms: C_19  and  C_22
REMARK   11  A    between atoms: C_23  and  C_24
REMARK   12  A    between atoms: C_25  and  C_26
REMARK                            x       y       z     vdW  Elec       q    Type
REMARK                         _______ _______ _______ _____ _____    ______ ____
ROOT
ATOM      8  C   UNL     1     -16.062   6.150  32.611  0.00  0.00    -0.027 C 
ATOM      9  C   UNL     1     -14.620   5.844  32.086  0.00  0.00    +0.028 C 
ATOM     10  C   UNL     1     -14.314   4.305  32.160  0.00  0.00    +0.012 C 
ATOM     11  C   UNL     1     -13.567   6.767  32.761  0.00  0.00    +0.122 C 
ATOM     12  C   UNL     1     -16.372   7.654  32.420  0.00  0.00    +0.007 C 
ATOM     13  C   UNL     1     -17.085   5.349  31.774  0.00  0.00    +0.009 C 
ATOM     14  C   UNL     1     -13.935   8.266  32.657  0.00  0.00    +0.029 C 
ATOM     15  C   UNL     1     -15.392   3.503  31.375  0.00  0.00    +0.076 C 
ATOM     16  C   UNL     1     -15.364   8.561  33.113  0.00  0.00    +0.007 C 
ATOM     17  C   UNL     1     -16.823   3.849  31.785  0.00  0.00    +0.023 C 
ATOM     18  C   UNL     1     -16.238   5.792  34.109  0.00  0.00    +0.011 C 
ATOM     20  C   UNL     1     -12.919   3.928  31.630  0.00  0.00    +0.010 C 
ENDROOT
BRANCH  15   6
ATOM      4  O   UNL     1     -15.935   1.465  29.396  0.00  0.00    -0.273 OA
ATOM      6  N   UNL     1     -15.206   2.075  31.519  0.00  0.00    -0.310 N 
ATOM     23  C   UNL     1     -15.497   1.175  30.507  0.00  0.00    +0.239 C 
ATOM     33  H   UNL     1     -14.910   1.719  32.424  0.00  0.00    +0.149 HD
BRANCH  23  24
ATOM     24  C   UNL     1     -15.208  -0.250  30.927  0.00  0.00    +0.255 C 
BRANCH  24   5
ATOM      5  O   UNL     1     -14.762  -1.013  29.827  0.00  0.00    -0.374 OA
ATOM     27  C   UNL     1     -13.372  -0.824  29.578  0.00  0.00    +0.194 C 
ENDBRANCH  24   5
ENDBRANCH  23  24
ENDBRANCH  15   6
BRANCH  11   2
ATOM      2  O   UNL     1     -12.306   6.611  32.107  0.00  0.00    -0.391 OA
ATOM     34  H   UNL     1     -12.361   5.831  31.527  0.00  0.00    +0.210 HD
ENDBRANCH  11   2
BRANCH  14  19
ATOM     19  C   UNL     1     -12.955   9.149  33.439  0.00  0.00    +0.077 C 
ATOM     21  C   UNL     1     -13.714  10.031  34.424  0.00  0.00    +0.017 C 
BRANCH  19  22
ATOM      3  O   UNL     1     -11.363  10.875  32.846  0.00  0.00    -0.276 OA
ATOM      7  N   UNL     1     -12.328   9.626  31.146  0.00  0.00    -0.311 N 
ATOM     22  C   UNL     1     -12.123   9.985  32.471  0.00  0.00    +0.216 C 
ATOM     35  H   UNL     1     -12.934   8.843  30.923  0.00  0.00    +0.149 HD
BRANCH   7  25
ATOM     25  C   UNL     1     -11.653  10.276  30.048  0.00  0.00    +0.141 C 
BRANCH  25  26
ATOM      1 CL   UNL     1     -10.328   9.863  27.291  0.00  0.00    -0.083 Cl
ATOM     26  C   UNL     1     -12.523  10.363  28.827  0.00  0.00    -0.012 A 
ATOM     28  C   UNL     1     -12.004  10.190  27.544  0.00  0.00    +0.046 A 
ATOM     29  C   UNL     1     -13.882  10.625  29.000  0.00  0.00    +0.006 A 
ATOM     30  C   UNL     1     -12.843  10.277  26.434  0.00  0.00    +0.020 A 
ATOM     31  C   UNL     1     -14.722  10.713  27.889  0.00  0.00    +0.000 A 
ATOM     32  C   UNL     1     -14.203  10.540  26.607  0.00  0.00    +0.001 A 
ENDBRANCH  25  26
ENDBRANCH   7  25
ENDBRANCH  19  22
ENDBRANCH  14  19
TORSDOF 8
ENDMDL
MODEL 6
REMARK VINA RESULT:      -6.3      2.797      4.608
REMARK  Name = 45361501
REMARK  12 active torsions:
REMARK  status: ('A' for Active; 'I' for Inactive)
REMARK    1  A    between atoms: O_2  and  C_11
REMARK    2  A    between atoms: O_5  and  C_24
REMARK    3  A    between atoms: O_5  and  C_27
REMARK    4  A    between atoms: N_6  and  C_15
REMARK    5  A    between atoms: N_7  and  C_25
REMARK    6  A    between atoms: C_8  and  C_18
REMARK    7  A    between atoms: C_10  and  C_20
REMARK    8  A    between atoms: C_14  and  C_19
REMARK    9  A    between atoms: C_19  and  C_21
REMARK   10  A    between atoms: C_19  and  C_22
REMARK   11  A    between atoms: C_23  and  C_24
REMARK   12  A    between atoms: C_25  and  C_26
REMARK                            x       y       z     vdW  Elec       q    Type
REMARK                         _______ _______ _______ _____ _____    ______ ____
ROOT
ATOM      8  C   UNL     1      -4.058 -11.842  15.613  0.00  0.00    -0.027 C 
ATOM      9  C   UNL     1      -5.352 -11.096  15.147  0.00  0.00    +0.028 C 
ATOM     10  C   UNL     1      -5.084 -10.284  13.829  0.00  0.00    +0.012 C 
ATOM     11  C   UNL     1      -5.986 -10.285  16.312  0.00  0.00    +0.122 C 
ATOM     12  C   UNL     1      -4.384 -12.718  16.846  0.00  0.00    +0.007 C 
ATOM     13  C   UNL     1      -3.581 -12.781  14.482  0.00  0.00    +0.009 C 
ATOM     14  C   UNL     1      -6.215 -11.143  17.579  0.00  0.00    +0.029 C 
ATOM     15  C   UNL     1      -4.533 -11.225  12.719  0.00  0.00    +0.076 C 
ATOM     16  C   UNL     1      -4.971 -11.921  18.004  0.00  0.00    +0.007 C 
ATOM     17  C   UNL     1      -3.329 -12.053  13.169  0.00  0.00    +0.023 C 
ATOM     18  C   UNL     1      -2.911 -10.868  15.985  0.00  0.00    +0.011 C 
ATOM     20  C   UNL     1      -6.324  -9.547  13.296  0.00  0.00    +0.010 C 
ENDROOT
BRANCH  15   6
ATOM      4  O   UNL     1      -5.371 -11.770  10.005  0.00  0.00    -0.273 OA
ATOM      6  N   UNL     1      -4.166 -10.491  11.527  0.00  0.00    -0.310 N 
ATOM     23  C   UNL     1      -4.621 -10.832  10.266  0.00  0.00    +0.239 C 
ATOM     33  H   UNL     1      -3.495  -9.733  11.621  0.00  0.00    +0.149 HD
BRANCH  23  24
ATOM     24  C   UNL     1      -4.083  -9.896   9.205  0.00  0.00    +0.255 C 
BRANCH  24   5
ATOM      5  O   UNL     1      -4.514  -8.573   9.443  0.00  0.00    -0.374 OA
ATOM     27  C   UNL     1      -5.912  -8.420   9.215  0.00  0.00    +0.194 C 
ENDBRANCH  24   5
ENDBRANCH  23  24
ENDBRANCH  15   6
BRANCH  11   2
ATOM      2  O   UNL     1      -7.269  -9.798  15.912  0.00  0.00    -0.391 OA
ATOM     34  H   UNL     1      -7.453  -8.984  16.411  0.00  0.00    +0.210 HD
ENDBRANCH  11   2
BRANCH  14  19
ATOM     19  C   UNL     1      -6.719 -10.298  18.756  0.00  0.00    +0.077 C 
ATOM     21  C   UNL     1      -5.896 -10.596  20.005  0.00  0.00    +0.017 C 
BRANCH  19  22
ATOM      3  O   UNL     1      -8.606 -11.435  19.761  0.00  0.00    -0.276 OA
ATOM      7  N   UNL     1      -9.019  -9.731  18.243  0.00  0.00    -0.311 N 
ATOM     22  C   UNL     1      -8.202 -10.567  18.990  0.00  0.00    +0.216 C 
ATOM     35  H   UNL     1      -8.607  -9.002  17.669  0.00  0.00    +0.149 HD
BRANCH   7  25
ATOM     25  C   UNL     1     -10.460  -9.796  18.295  0.00  0.00    +0.141 C 
BRANCH  25  26
ATOM      1 CL   UNL     1     -13.435 -10.126  17.541  0.00  0.00    -0.083 Cl
ATOM     26  C   UNL     1     -11.102  -8.720  17.469  0.00  0.00    -0.012 A 
ATOM     28  C   UNL     1     -12.441  -8.792  17.084  0.00  0.00    +0.046 A 
ATOM     29  C   UNL     1     -10.324  -7.628  17.084  0.00  0.00    +0.006 A 
ATOM     30  C   UNL     1     -13.001  -7.771  16.317  0.00  0.00    +0.020 A 
ATOM     31  C   UNL     1     -10.884  -6.608  16.316  0.00  0.00    +0.000 A 
ATOM     32  C   UNL     1     -12.223  -6.680  15.932  0.00  0.00    +0.001 A 
ENDBRANCH  25  26
ENDBRANCH   7  25
ENDBRANCH  19  22
ENDBRANCH  14  19
TORSDOF 8
ENDMDL
MODEL 7
REMARK VINA RESULT:      -6.2      3.751      8.734
REMARK  Name = 45361501
REMARK  12 active torsions:
REMARK  status: ('A' for Active; 'I' for Inactive)
REMARK    1  A    between atoms: O_2  and  C_11
REMARK    2  A    between atoms: O_5  and  C_24
REMARK    3  A    between atoms: O_5  and  C_27
REMARK    4  A    between atoms: N_6  and  C_15
REMARK    5  A    between atoms: N_7  and  C_25
REMARK    6  A    between atoms: C_8  and  C_18
REMARK    7  A    between atoms: C_10  and  C_20
REMARK    8  A    between atoms: C_14  and  C_19
REMARK    9  A    between atoms: C_19  and  C_21
REMARK   10  A    between atoms: C_19  and  C_22
REMARK   11  A    between atoms: C_23  and  C_24
REMARK   12  A    between atoms: C_25  and  C_26
REMARK                            x       y       z     vdW  Elec       q    Type
REMARK                         _______ _______ _______ _____ _____    ______ ____
ROOT
ATOM      8  C   UNL     1      -5.310 -11.299  17.926  0.00  0.00    -0.027 C 
ATOM      9  C   UNL     1      -5.633 -12.377  16.839  0.00  0.00    +0.028 C 
ATOM     10  C   UNL     1      -6.360 -13.615  17.478  0.00  0.00    +0.012 C 
ATOM     11  C   UNL     1      -4.377 -12.709  15.983  0.00  0.00    +0.122 C 
ATOM     12  C   UNL     1      -4.699 -10.050  17.248  0.00  0.00    +0.007 C 
ATOM     13  C   UNL     1      -6.625 -10.866  18.613  0.00  0.00    +0.009 C 
ATOM     14  C   UNL     1      -3.709 -11.445  15.393  0.00  0.00    +0.029 C 
ATOM     15  C   UNL     1      -7.642 -13.158  18.230  0.00  0.00    +0.076 C 
ATOM     16  C   UNL     1      -3.446 -10.365  16.440  0.00  0.00    +0.007 C 
ATOM     17  C   UNL     1      -7.389 -12.029  19.229  0.00  0.00    +0.023 C 
ATOM     18  C   UNL     1      -4.320 -11.817  19.001  0.00  0.00    +0.011 C 
ATOM     20  C   UNL     1      -6.733 -14.704  16.458  0.00  0.00    +0.010 C 
ENDROOT
BRANCH  15   6
ATOM      4  O   UNL     1     -10.477 -13.580  18.617  0.00  0.00    -0.273 OA
ATOM      6  N   UNL     1      -8.274 -14.256  18.928  0.00  0.00    -0.310 N 
ATOM     23  C   UNL     1      -9.647 -14.370  19.061  0.00  0.00    +0.239 C 
ATOM     33  H   UNL     1      -7.676 -14.935  19.392  0.00  0.00    +0.149 HD
BRANCH  23  24
ATOM     24  C   UNL     1     -10.032 -15.613  19.834  0.00  0.00    +0.255 C 
BRANCH  24   5
ATOM      5  O   UNL     1      -9.456 -15.597  21.123  0.00  0.00    -0.374 OA
ATOM     27  C   UNL     1     -10.173 -14.749  22.015  0.00  0.00    +0.194 C 
ENDBRANCH  24   5
ENDBRANCH  23  24
ENDBRANCH  15   6
BRANCH  11   2
ATOM      2  O   UNL     1      -4.758 -13.526  14.874  0.00  0.00    -0.391 OA
ATOM     34  H   UNL     1      -3.948 -13.867  14.458  0.00  0.00    +0.210 HD
ENDBRANCH  11   2
BRANCH  14  19
ATOM     19  C   UNL     1      -2.402 -11.780  14.662  0.00  0.00    +0.077 C 
ATOM     21  C   UNL     1      -1.222 -11.130  15.376  0.00  0.00    +0.017 C 
BRANCH  19  22
ATOM      3  O   UNL     1      -1.794 -10.425  12.750  0.00  0.00    -0.276 OA
ATOM      7  N   UNL     1      -3.430 -12.048  12.483  0.00  0.00    -0.311 N 
ATOM     22  C   UNL     1      -2.490 -11.329  13.208  0.00  0.00    +0.216 C 
ATOM     35  H   UNL     1      -3.926 -12.817  12.922  0.00  0.00    +0.149 HD
BRANCH   7  25
ATOM     25  C   UNL     1      -3.693 -11.802  11.085  0.00  0.00    +0.141 C 
BRANCH  25  26
ATOM      1 CL   UNL     1      -2.965  -8.998  10.021  0.00  0.00    -0.083 Cl
ATOM     26  C   UNL     1      -4.804 -10.812  10.889  0.00  0.00    -0.012 A 
ATOM     28  C   UNL     1      -4.561  -9.523  10.413  0.00  0.00    +0.046 A 
ATOM     29  C   UNL     1      -6.105 -11.208  11.196  0.00  0.00    +0.006 A 
ATOM     30  C   UNL     1      -5.620  -8.632  10.243  0.00  0.00    +0.020 A 
ATOM     31  C   UNL     1      -7.165 -10.316  11.027  0.00  0.00    +0.000 A 
ATOM     32  C   UNL     1      -6.922  -9.028  10.551  0.00  0.00    +0.001 A 
ENDBRANCH  25  26
ENDBRANCH   7  25
ENDBRANCH  19  22
ENDBRANCH  14  19
TORSDOF 8
ENDMDL
MODEL 8
REMARK VINA RESULT:      -6.2      3.261      7.147
REMARK  Name = 45361501
REMARK  12 active torsions:
REMARK  status: ('A' for Active; 'I' for Inactive)
REMARK    1  A    between atoms: O_2  and  C_11
REMARK    2  A    between atoms: O_5  and  C_24
REMARK    3  A    between atoms: O_5  and  C_27
REMARK    4  A    between atoms: N_6  and  C_15
REMARK    5  A    between atoms: N_7  and  C_25
REMARK    6  A    between atoms: C_8  and  C_18
REMARK    7  A    between atoms: C_10  and  C_20
REMARK    8  A    between atoms: C_14  and  C_19
REMARK    9  A    between atoms: C_19  and  C_21
REMARK   10  A    between atoms: C_19  and  C_22
REMARK   11  A    between atoms: C_23  and  C_24
REMARK   12  A    between atoms: C_25  and  C_26
REMARK                            x       y       z     vdW  Elec       q    Type
REMARK                         _______ _______ _______ _____ _____    ______ ____
ROOT
ATOM      8  C   UNL     1      -6.212 -11.449  18.360  0.00  0.00    -0.027 C 
ATOM      9  C   UNL     1      -6.180 -10.526  17.097  0.00  0.00    +0.028 C 
ATOM     10  C   UNL     1      -7.577 -10.515  16.377  0.00  0.00    +0.012 C 
ATOM     11  C   UNL     1      -4.963 -10.858  16.186  0.00  0.00    +0.122 C 
ATOM     12  C   UNL     1      -4.860 -11.350  19.105  0.00  0.00    +0.007 C 
ATOM     13  C   UNL     1      -7.317 -10.952  19.320  0.00  0.00    +0.009 C 
ATOM     14  C   UNL     1      -3.624 -10.859  16.960  0.00  0.00    +0.029 C 
ATOM     15  C   UNL     1      -8.692 -10.085  17.373  0.00  0.00    +0.076 C 
ATOM     16  C   UNL     1      -3.669 -11.711  18.228  0.00  0.00    +0.007 C 
ATOM     17  C   UNL     1      -8.692 -10.895  18.669  0.00  0.00    +0.023 C 
ATOM     18  C   UNL     1      -6.476 -12.935  18.004  0.00  0.00    +0.011 C 
ATOM     20  C   UNL     1      -7.625  -9.602  15.140  0.00  0.00    +0.010 C 
ENDROOT
BRANCH  15   6
ATOM      4  O   UNL     1     -10.753  -8.057  17.377  0.00  0.00    -0.273 OA
ATOM      6  N   UNL     1     -10.007 -10.175  16.775  0.00  0.00    -0.310 N 
ATOM     23  C   UNL     1     -10.929  -9.144  16.832  0.00  0.00    +0.239 C 
ATOM     33  H   UNL     1     -10.281 -11.058  16.354  0.00  0.00    +0.149 HD
BRANCH  23  24
ATOM     24  C   UNL     1     -12.217  -9.507  16.125  0.00  0.00    +0.255 C 
BRANCH  24   5
ATOM      5  O   UNL     1     -11.958  -9.934  14.805  0.00  0.00    -0.374 OA
ATOM     27  C   UNL     1     -11.915  -8.842  13.892  0.00  0.00    +0.194 C 
ENDBRANCH  24   5
ENDBRANCH  23  24
ENDBRANCH  15   6
BRANCH  11   2
ATOM      2  O   UNL     1      -4.845  -9.864  15.167  0.00  0.00    -0.391 OA
ATOM     34  H   UNL     1      -5.735  -9.674  14.824  0.00  0.00    +0.210 HD
ENDBRANCH  11   2
BRANCH  14  19
ATOM     19  C   UNL     1      -2.456 -11.314  16.077  0.00  0.00    +0.077 C 
ATOM     21  C   UNL     1      -1.595 -10.117  15.688  0.00  0.00    +0.017 C 
BRANCH  19  22
ATOM      3  O   UNL     1      -3.605 -13.101  14.915  0.00  0.00    -0.276 OA
ATOM      7  N   UNL     1      -2.695 -11.372  13.665  0.00  0.00    -0.311 N 
ATOM     22  C   UNL     1      -2.988 -12.041  14.845  0.00  0.00    +0.216 C 
ATOM     35  H   UNL     1      -2.227 -10.472  13.697  0.00  0.00    +0.149 HD
BRANCH   7  25
ATOM     25  C   UNL     1      -3.095 -11.865  12.369  0.00  0.00    +0.141 C 
BRANCH  25  26
ATOM      1 CL   UNL     1      -6.164 -11.582  12.524  0.00  0.00    -0.083 Cl
ATOM     26  C   UNL     1      -3.748 -10.797  11.539  0.00  0.00    -0.012 A 
ATOM     28  C   UNL     1      -5.130 -10.603  11.550  0.00  0.00    +0.046 A 
ATOM     29  C   UNL     1      -2.937  -9.990  10.742  0.00  0.00    +0.006 A 
ATOM     30  C   UNL     1      -5.699  -9.601  10.766  0.00  0.00    +0.020 A 
ATOM     31  C   UNL     1      -3.507  -8.987   9.957  0.00  0.00    +0.000 A 
ATOM     32  C   UNL     1      -4.888  -8.793   9.969  0.00  0.00    +0.001 A 
ENDBRANCH  25  26
ENDBRANCH   7  25
ENDBRANCH  19  22
ENDBRANCH  14  19
TORSDOF 8
ENDMDL
MODEL 9
REMARK VINA RESULT:      -6.2     29.425     32.333
REMARK  Name = 45361501
REMARK  12 active torsions:
REMARK  status: ('A' for Active; 'I' for Inactive)
REMARK    1  A    between atoms: O_2  and  C_11
REMARK    2  A    between atoms: O_5  and  C_24
REMARK    3  A    between atoms: O_5  and  C_27
REMARK    4  A    between atoms: N_6  and  C_15
REMARK    5  A    between atoms: N_7  and  C_25
REMARK    6  A    between atoms: C_8  and  C_18
REMARK    7  A    between atoms: C_10  and  C_20
REMARK    8  A    between atoms: C_14  and  C_19
REMARK    9  A    between atoms: C_19  and  C_21
REMARK   10  A    between atoms: C_19  and  C_22
REMARK   11  A    between atoms: C_23  and  C_24
REMARK   12  A    between atoms: C_25  and  C_26
REMARK                            x       y       z     vdW  Elec       q    Type
REMARK                         _______ _______ _______ _____ _____    ______ ____
ROOT
ATOM      8  C   UNL     1      24.642   2.348  21.787  0.00  0.00    -0.027 C 
ATOM      9  C   UNL     1      23.467   2.932  22.640  0.00  0.00    +0.028 C 
ATOM     10  C   UNL     1      23.397   4.495  22.499  0.00  0.00    +0.012 C 
ATOM     11  C   UNL     1      23.508   2.395  24.099  0.00  0.00    +0.122 C 
ATOM     12  C   UNL     1      24.613   0.803  21.858  0.00  0.00    +0.007 C 
ATOM     13  C   UNL     1      24.442   2.755  20.309  0.00  0.00    +0.009 C 
ATOM     14  C   UNL     1      23.585   0.851  24.162  0.00  0.00    +0.029 C 
ATOM     15  C   UNL     1      23.271   4.895  21.001  0.00  0.00    +0.076 C 
ATOM     16  C   UNL     1      24.693   0.272  23.284  0.00  0.00    +0.007 C 
ATOM     17  C   UNL     1      24.341   4.261  20.112  0.00  0.00    +0.023 C 
ATOM     18  C   UNL     1      26.029   2.843  22.269  0.00  0.00    +0.011 C 
ATOM     20  C   UNL     1      22.243   5.134  23.291  0.00  0.00    +0.010 C 
ENDROOT
BRANCH  15   6
ATOM      4  O   UNL     1      21.086   6.639  20.258  0.00  0.00    -0.273 OA
ATOM      6  N   UNL     1      23.320   6.331  20.824  0.00  0.00    -0.310 N 
ATOM     23  C   UNL     1      22.214   7.081  20.465  0.00  0.00    +0.239 C 
ATOM     33  H   UNL     1      24.222   6.792  20.907  0.00  0.00    +0.149 HD
BRANCH  23  24
ATOM     24  C   UNL     1      22.549   8.552  20.353  0.00  0.00    +0.255 C 
BRANCH  24   5
ATOM      5  O   UNL     1      22.854   8.894  19.017  0.00  0.00    -0.374 OA
ATOM     27  C   UNL     1      24.215   9.285  18.867  0.00  0.00    +0.194 C 
ENDBRANCH  24   5
ENDBRANCH  23  24
ENDBRANCH  15   6
BRANCH  11   2
ATOM      2  O   UNL     1      22.311   2.773  24.780  0.00  0.00    -0.391 OA
ATOM     34  H   UNL     1      21.559   2.605  24.187  0.00  0.00    +0.210 HD
ENDBRANCH  11   2
BRANCH  14  19
ATOM     19  C   UNL     1      23.756   0.348  25.601  0.00  0.00    +0.077 C 
ATOM     21  C   UNL     1      25.232   0.345  25.984  0.00  0.00    +0.017 C 
BRANCH  19  22
ATOM      3  O   UNL     1      23.812  -2.040  25.995  0.00  0.00    -0.276 OA
ATOM      7  N   UNL     1      21.767  -1.038  25.554  0.00  0.00    -0.311 N 
ATOM     22  C   UNL     1      23.142  -1.041  25.742  0.00  0.00    +0.216 C 
ATOM     35  H   UNL     1      21.280  -0.160  25.402  0.00  0.00    +0.149 HD
BRANCH   7  25
ATOM     25  C   UNL     1      20.965  -2.235  25.637  0.00  0.00    +0.141 C 
BRANCH  25  26
ATOM      1 CL   UNL     1      20.176  -4.658  23.896  0.00  0.00    -0.083 Cl
ATOM     26  C   UNL     1      19.716  -2.132  24.809  0.00  0.00    -0.012 A 
ATOM     28  C   UNL     1      19.289  -3.181  23.994  0.00  0.00    +0.046 A 
ATOM     29  C   UNL     1      18.978  -0.951  24.868  0.00  0.00    +0.006 A 
ATOM     30  C   UNL     1      18.124  -3.049  23.241  0.00  0.00    +0.020 A 
ATOM     31  C   UNL     1      17.812  -0.818  24.114  0.00  0.00    +0.000 A 
ATOM     32  C   UNL     1      17.386  -1.866  23.300  0.00  0.00    +0.001 A 
ENDBRANCH  25  26
ENDBRANCH   7  25
ENDBRANCH  19  22
ENDBRANCH  14  19
TORSDOF 8
ENDMDL
MODEL 10
REMARK VINA RESULT:      -6.2     23.616     26.136
REMARK  Name = 45361501
REMARK  12 active torsions:
REMARK  status: ('A' for Active; 'I' for Inactive)
REMARK    1  A    between atoms: O_2  and  C_11
REMARK    2  A    between atoms: O_5  and  C_24
REMARK    3  A    between atoms: O_5  and  C_27
REMARK    4  A    between atoms: N_6  and  C_15
REMARK    5  A    between atoms: N_7  and  C_25
REMARK    6  A    between atoms: C_8  and  C_18
REMARK    7  A    between atoms: C_10  and  C_20
REMARK    8  A    between atoms: C_14  and  C_19
REMARK    9  A    between atoms: C_19  and  C_21
REMARK   10  A    between atoms: C_19  and  C_22
REMARK   11  A    between atoms: C_23  and  C_24
REMARK   12  A    between atoms: C_25  and  C_26
REMARK                            x       y       z     vdW  Elec       q    Type
REMARK                         _______ _______ _______ _____ _____    ______ ____
ROOT
ATOM      8  C   UNL     1       9.789   6.403   6.476  0.00  0.00    -0.027 C 
ATOM      9  C   UNL     1      10.202   7.359   5.307  0.00  0.00    +0.028 C 
ATOM     10  C   UNL     1      11.265   6.674   4.375  0.00  0.00    +0.012 C 
ATOM     11  C   UNL     1      10.592   8.767   5.842  0.00  0.00    +0.122 C 
ATOM     12  C   UNL     1       8.663   7.063   7.307  0.00  0.00    +0.007 C 
ATOM     13  C   UNL     1       9.228   5.092   5.880  0.00  0.00    +0.009 C 
ATOM     14  C   UNL     1       9.506   9.377   6.758  0.00  0.00    +0.029 C 
ATOM     15  C   UNL     1      10.719   5.319   3.841  0.00  0.00    +0.076 C 
ATOM     16  C   UNL     1       9.055   8.425   7.865  0.00  0.00    +0.007 C 
ATOM     17  C   UNL     1      10.206   4.394   4.945  0.00  0.00    +0.023 C 
ATOM     18  C   UNL     1      10.974   6.070   7.419  0.00  0.00    +0.011 C 
ATOM     20  C   UNL     1      11.696   7.549   3.186  0.00  0.00    +0.010 C 
ENDROOT
BRANCH  15   6
ATOM      4  O   UNL     1      10.334   3.962   1.316  0.00  0.00    -0.273 OA
ATOM      6  N   UNL     1      11.716   4.605   3.072  0.00  0.00    -0.310 N 
ATOM     23  C   UNL     1      11.431   3.985   1.867  0.00  0.00    +0.239 C 
ATOM     33  H   UNL     1      12.646   4.506   3.470  0.00  0.00    +0.149 HD
BRANCH  23  24
ATOM     24  C   UNL     1      12.656   3.317   1.280  0.00  0.00    +0.255 C 
BRANCH  24   5
ATOM      5  O   UNL     1      13.817   3.694   1.989  0.00  0.00    -0.374 OA
ATOM     27  C   UNL     1      14.972   3.696   1.155  0.00  0.00    +0.194 C 
ENDBRANCH  24   5
ENDBRANCH  23  24
ENDBRANCH  15   6
BRANCH  11   2
ATOM      2  O   UNL     1      10.753   9.666   4.743  0.00  0.00    -0.391 OA
ATOM     34  H   UNL     1       9.893   9.755   4.297  0.00  0.00    +0.210 HD
ENDBRANCH  11   2
BRANCH  14  19
ATOM     19  C   UNL     1       9.963  10.704   7.377  0.00  0.00    +0.077 C 
ATOM     21  C   UNL     1       9.898  10.622   8.898  0.00  0.00    +0.017 C 
BRANCH  19  22
ATOM      3  O   UNL     1       9.081  12.959   7.371  0.00  0.00    -0.276 OA
ATOM      7  N   UNL     1       8.373  11.487   5.723  0.00  0.00    -0.311 N 
ATOM     22  C   UNL     1       9.105  11.848   6.845  0.00  0.00    +0.216 C 
ATOM     35  H   UNL     1       8.490  10.564   5.318  0.00  0.00    +0.149 HD
BRANCH   7  25
ATOM     25  C   UNL     1       7.487  12.401   5.042  0.00  0.00    +0.141 C 
BRANCH  25  26
ATOM      1 CL   UNL     1       4.543  13.321   5.131  0.00  0.00    -0.083 Cl
ATOM     26  C   UNL     1       6.497  11.681   4.174  0.00  0.00    -0.012 A 
ATOM     28  C   UNL     1       5.147  12.033   4.155  0.00  0.00    +0.046 A 
ATOM     29  C   UNL     1       6.956  10.636   3.373  0.00  0.00    +0.006 A 
ATOM     30  C   UNL     1       4.257  11.341   3.334  0.00  0.00    +0.020 A 
ATOM     31  C   UNL     1       6.065   9.942   2.552  0.00  0.00    +0.000 A 
ATOM     32  C   UNL     1       4.716  10.295   2.534  0.00  0.00    +0.001 A 
ENDBRANCH  25  26
ENDBRANCH   7  25
ENDBRANCH  19  22
ENDBRANCH  14  19
TORSDOF 8
ENDMDL
