MODEL 1
REMARK VINA RESULT:      -6.2      0.000      0.000
REMARK  Name = 25389777
REMARK  8 active torsions:
REMARK  status: ('A' for Active; 'I' for Inactive)
REMARK    1  A    between atoms: O_2  and  C_19
REMARK    2  A    between atoms: O_2  and  C_32
REMARK    3  A    between atoms: N_5  and  C_10
REMARK    4  A    between atoms: N_5  and  C_20
REMARK    5  A    between atoms: C_8  and  C_16
REMARK    6  A    between atoms: C_12  and  C_19
REMARK    7  A    between atoms: C_20  and  C_25
REMARK    8  A    between atoms: C_20  and  C_26
REMARK                            x       y       z     vdW  Elec       q    Type
REMARK                         _______ _______ _______ _____ _____    ______ ____
ROOT
ATOM      4  N   UNL     1      -4.503 -10.332  12.380  0.00  0.00    -0.274 NA
ATOM      6  N   UNL     1      -6.667  -9.659  15.393  0.00  0.00    -0.356 N 
ATOM      7  C   UNL     1      -5.603  -9.589  13.062  0.00  0.00    +0.106 C 
ATOM      8  C   UNL     1      -4.863 -11.679  11.868  0.00  0.00    +0.090 C 
ATOM      9  C   UNL     1      -6.936  -9.763  12.325  0.00  0.00    +0.044 C 
ATOM     10  C   UNL     1      -7.394 -11.222  12.227  0.00  0.00    +0.058 C 
ATOM     11  C   UNL     1      -6.229 -12.209  12.357  0.00  0.00    +0.042 C 
ATOM     12  C   UNL     1      -3.252 -10.267  13.179  0.00  0.00    +0.172 C 
ATOM     13  C   UNL     1      -5.650  -9.932  14.524  0.00  0.00    +0.038 A 
ATOM     14  C   UNL     1      -3.362 -10.952  14.561  0.00  0.00    +0.068 C 
ATOM     15  C   UNL     1      -4.630 -10.541  15.230  0.00  0.00    -0.016 A 
ATOM     17  C   UNL     1      -5.057 -10.671  16.579  0.00  0.00    +0.003 A 
ATOM     18  C   UNL     1      -6.339 -10.112  16.653  0.00  0.00    +0.047 A 
ATOM     23  C   UNL     1      -4.485 -11.208  17.748  0.00  0.00    +0.010 A 
ATOM     24  C   UNL     1      -7.071 -10.064  17.845  0.00  0.00    +0.026 A 
ATOM     27  C   UNL     1      -5.208 -11.168  18.946  0.00  0.00    +0.001 A 
ATOM     30  C   UNL     1      -6.481 -10.605  18.991  0.00  0.00    +0.002 A 
ATOM     34  H   UNL     1      -7.537  -9.201  15.154  0.00  0.00    +0.166 HD
ENDROOT
BRANCH   8  16
ATOM      1  F   UNL     1      -4.379 -12.075   6.245  0.00  0.00    -0.205 F 
ATOM     16  C   UNL     1      -4.732 -11.786  10.349  0.00  0.00    -0.030 A 
ATOM     21  C   UNL     1      -4.921 -10.658   9.551  0.00  0.00    +0.008 A 
ATOM     22  C   UNL     1      -4.424 -13.013   9.759  0.00  0.00    +0.008 A 
ATOM     28  C   UNL     1      -4.802 -10.755   8.165  0.00  0.00    +0.038 A 
ATOM     29  C   UNL     1      -4.305 -13.110   8.373  0.00  0.00    +0.038 A 
ATOM     31  C   UNL     1      -4.494 -11.981   7.576  0.00  0.00    +0.123 A 
ENDBRANCH   8  16
BRANCH  12  19
ATOM      3  O   UNL     1      -1.484 -11.814  12.660  0.00  0.00    -0.249 OA
ATOM     19  C   UNL     1      -2.110 -10.803  12.373  0.00  0.00    +0.325 C 
BRANCH  19   2
ATOM      2  O   UNL     1      -1.893  -9.996  11.296  0.00  0.00    -0.467 OA
ATOM     32  C   UNL     1      -0.783  -9.100  11.412  0.00  0.00    +0.280 C 
ENDBRANCH  19   2
ENDBRANCH  12  19
BRANCH  10   5
ATOM      5  N   UNL     1      -8.149 -11.418  10.988  0.00  0.00    -0.311 NA
ATOM     33  H   UNL     1      -7.707 -10.918  10.218  0.00  0.00    +0.122 HD
BRANCH   5  20
ATOM     20  C   UNL     1      -8.252 -12.833  10.665  0.00  0.00    +0.048 C 
ATOM     25  C   UNL     1      -9.597 -13.367  11.147  0.00  0.00    +0.023 C 
ATOM     26  C   UNL     1      -8.083 -13.047   9.163  0.00  0.00    +0.023 C 
ENDBRANCH   5  20
ENDBRANCH  10   5
TORSDOF 5
ENDMDL
MODEL 2
REMARK VINA RESULT:      -6.1     22.751     26.573
REMARK  Name = 25389777
REMARK  8 active torsions:
REMARK  status: ('A' for Active; 'I' for Inactive)
REMARK    1  A    between atoms: O_2  and  C_19
REMARK    2  A    between atoms: O_2  and  C_32
REMARK    3  A    between atoms: N_5  and  C_10
REMARK    4  A    between atoms: N_5  and  C_20
REMARK    5  A    between atoms: C_8  and  C_16
REMARK    6  A    between atoms: C_12  and  C_19
REMARK    7  A    between atoms: C_20  and  C_25
REMARK    8  A    between atoms: C_20  and  C_26
REMARK                            x       y       z     vdW  Elec       q    Type
REMARK                         _______ _______ _______ _____ _____    ______ ____
ROOT
ATOM      4  N   UNL     1       9.663   7.664   6.071  0.00  0.00    -0.274 NA
ATOM      6  N   UNL     1       9.327   7.050   2.366  0.00  0.00    -0.356 N 
ATOM      7  C   UNL     1       8.956   7.857   4.771  0.00  0.00    +0.106 C 
ATOM      8  C   UNL     1      10.870   8.506   6.272  0.00  0.00    +0.090 C 
ATOM      9  C   UNL     1       8.892   9.339   4.384  0.00  0.00    +0.044 C 
ATOM     10  C   UNL     1      10.270   9.989   4.228  0.00  0.00    +0.058 C 
ATOM     11  C   UNL     1      11.359   9.244   5.006  0.00  0.00    +0.042 C 
ATOM     12  C   UNL     1       9.837   6.218   6.364  0.00  0.00    +0.172 C 
ATOM     13  C   UNL     1       9.534   6.960   3.713  0.00  0.00    +0.038 A 
ATOM     14  C   UNL     1      10.734   5.482   5.342  0.00  0.00    +0.068 C 
ATOM     15  C   UNL     1      10.336   5.861   3.954  0.00  0.00    -0.016 A 
ATOM     17  C   UNL     1      10.655   5.276   2.700  0.00  0.00    +0.003 A 
ATOM     18  C   UNL     1      10.011   6.042   1.721  0.00  0.00    +0.047 A 
ATOM     23  C   UNL     1      11.426   4.169   2.295  0.00  0.00    +0.010 A 
ATOM     24  C   UNL     1      10.103   5.749   0.355  0.00  0.00    +0.026 A 
ATOM     27  C   UNL     1      11.528   3.868   0.931  0.00  0.00    +0.001 A 
ATOM     30  C   UNL     1      10.875   4.647  -0.021  0.00  0.00    +0.002 A 
ATOM     34  H   UNL     1       8.765   7.752   1.904  0.00  0.00    +0.166 HD
ENDROOT
BRANCH   8  16
ATOM      1  F   UNL     1      10.356  12.039  10.661  0.00  0.00    -0.205 F 
ATOM     16  C   UNL     1      10.731   9.461   7.459  0.00  0.00    -0.030 A 
ATOM     21  C   UNL     1       9.513   9.568   8.129  0.00  0.00    +0.008 A 
ATOM     22  C   UNL     1      11.823  10.226   7.871  0.00  0.00    +0.008 A 
ATOM     28  C   UNL     1       9.386  10.439   9.210  0.00  0.00    +0.038 A 
ATOM     29  C   UNL     1      11.696  11.096   8.952  0.00  0.00    +0.038 A 
ATOM     31  C   UNL     1      10.477  11.204   9.623  0.00  0.00    +0.123 A 
ENDBRANCH   8  16
BRANCH  12  19
ATOM      3  O   UNL     1      11.499   5.885   8.073  0.00  0.00    -0.249 OA
ATOM     19  C   UNL     1      10.324   6.043   7.770  0.00  0.00    +0.325 C 
BRANCH  19   2
ATOM      2  O   UNL     1       9.267   6.090   8.627  0.00  0.00    -0.467 OA
ATOM     32  C   UNL     1       9.171   4.998   9.548  0.00  0.00    +0.280 C 
ENDBRANCH  19   2
ENDBRANCH  12  19
BRANCH  10   5
ATOM      5  N   UNL     1      10.191  11.403   4.603  0.00  0.00    -0.311 NA
ATOM     33  H   UNL     1      10.620  11.986   3.885  0.00  0.00    +0.122 HD
BRANCH   5  20
ATOM     20  C   UNL     1       8.808  11.806   4.805  0.00  0.00    +0.048 C 
ATOM     25  C   UNL     1       8.674  12.496   6.159  0.00  0.00    +0.023 C 
ATOM     26  C   UNL     1       8.353  12.724   3.674  0.00  0.00    +0.023 C 
ENDBRANCH   5  20
ENDBRANCH  10   5
TORSDOF 5
ENDMDL
MODEL 3
REMARK VINA RESULT:      -6.0     25.912     28.206
REMARK  Name = 25389777
REMARK  8 active torsions:
REMARK  status: ('A' for Active; 'I' for Inactive)
REMARK    1  A    between atoms: O_2  and  C_19
REMARK    2  A    between atoms: O_2  and  C_32
REMARK    3  A    between atoms: N_5  and  C_10
REMARK    4  A    between atoms: N_5  and  C_20
REMARK    5  A    between atoms: C_8  and  C_16
REMARK    6  A    between atoms: C_12  and  C_19
REMARK    7  A    between atoms: C_20  and  C_25
REMARK    8  A    between atoms: C_20  and  C_26
REMARK                            x       y       z     vdW  Elec       q    Type
REMARK                         _______ _______ _______ _____ _____    ______ ____
ROOT
ATOM      4  N   UNL     1      -7.842  -8.048  40.505  0.00  0.00    -0.274 NA
ATOM      6  N   UNL     1      -7.917  -4.356  41.264  0.00  0.00    -0.356 N 
ATOM      7  C   UNL     1      -7.478  -6.880  41.359  0.00  0.00    +0.106 C 
ATOM      8  C   UNL     1      -7.011  -8.233  39.288  0.00  0.00    +0.090 C 
ATOM      9  C   UNL     1      -5.958  -6.725  41.477  0.00  0.00    +0.044 C 
ATOM     10  C   UNL     1      -5.259  -6.512  40.130  0.00  0.00    +0.058 C 
ATOM     11  C   UNL     1      -6.085  -7.042  38.954  0.00  0.00    +0.042 C 
ATOM     12  C   UNL     1      -9.311  -8.103  40.288  0.00  0.00    +0.172 C 
ATOM     13  C   UNL     1      -8.197  -5.642  40.902  0.00  0.00    +0.038 A 
ATOM     14  C   UNL     1      -9.869  -6.888  39.512  0.00  0.00    +0.068 C 
ATOM     15  C   UNL     1      -9.301  -5.626  40.071  0.00  0.00    -0.016 A 
ATOM     17  C   UNL     1      -9.690  -4.271  39.896  0.00  0.00    +0.003 A 
ATOM     18  C   UNL     1      -8.804  -3.496  40.654  0.00  0.00    +0.047 A 
ATOM     23  C   UNL     1     -10.706  -3.621  39.169  0.00  0.00    +0.010 A 
ATOM     24  C   UNL     1      -8.892  -2.100  40.719  0.00  0.00    +0.026 A 
ATOM     27  C   UNL     1     -10.804  -2.226  39.225  0.00  0.00    +0.001 A 
ATOM     30  C   UNL     1      -9.910  -1.479  39.988  0.00  0.00    +0.002 A 
ATOM     34  H   UNL     1      -7.169  -4.070  41.881  0.00  0.00    +0.166 HD
ENDROOT
BRANCH   8  16
ATOM      1  F   UNL     1      -4.168 -13.125  39.312  0.00  0.00    -0.205 F 
ATOM     16  C   UNL     1      -6.243  -9.555  39.294  0.00  0.00    -0.030 A 
ATOM     21  C   UNL     1      -5.627  -9.999  40.465  0.00  0.00    +0.008 A 
ATOM     22  C   UNL     1      -6.157 -10.319  38.129  0.00  0.00    +0.008 A 
ATOM     28  C   UNL     1      -4.927 -11.204  40.471  0.00  0.00    +0.038 A 
ATOM     29  C   UNL     1      -5.456 -11.523  38.136  0.00  0.00    +0.038 A 
ATOM     31  C   UNL     1      -4.840 -11.967  39.306  0.00  0.00    +0.123 A 
ENDBRANCH   8  16
BRANCH  12  19
ATOM      3  O   UNL     1      -9.463 -10.500  40.136  0.00  0.00    -0.249 OA
ATOM     19  C   UNL     1      -9.678  -9.402  39.641  0.00  0.00    +0.325 C 
BRANCH  19   2
ATOM      2  O   UNL     1     -10.276  -9.160  38.441  0.00  0.00    -0.467 OA
ATOM     32  C   UNL     1      -9.846  -9.992  37.359  0.00  0.00    +0.280 C 
ENDBRANCH  19   2
ENDBRANCH  12  19
BRANCH  10   5
ATOM      5  N   UNL     1      -3.918  -7.097  40.174  0.00  0.00    -0.311 NA
ATOM     33  H   UNL     1      -3.702  -7.558  39.291  0.00  0.00    +0.122 HD
BRANCH   5  20
ATOM     20  C   UNL     1      -2.920  -6.077  40.457  0.00  0.00    +0.048 C 
ATOM     25  C   UNL     1      -1.833  -6.666  41.352  0.00  0.00    +0.023 C 
ATOM     26  C   UNL     1      -2.328  -5.540  39.157  0.00  0.00    +0.023 C 
ENDBRANCH   5  20
ENDBRANCH  10   5
TORSDOF 5
ENDMDL
MODEL 4
REMARK VINA RESULT:      -5.8      3.036      6.880
REMARK  Name = 25389777
REMARK  8 active torsions:
REMARK  status: ('A' for Active; 'I' for Inactive)
REMARK    1  A    between atoms: O_2  and  C_19
REMARK    2  A    between atoms: O_2  and  C_32
REMARK    3  A    between atoms: N_5  and  C_10
REMARK    4  A    between atoms: N_5  and  C_20
REMARK    5  A    between atoms: C_8  and  C_16
REMARK    6  A    between atoms: C_12  and  C_19
REMARK    7  A    between atoms: C_20  and  C_25
REMARK    8  A    between atoms: C_20  and  C_26
REMARK                            x       y       z     vdW  Elec       q    Type
REMARK                         _______ _______ _______ _____ _____    ______ ____
ROOT
ATOM      4  N   UNL     1      -4.822 -12.133  13.617  0.00  0.00    -0.274 NA
ATOM      6  N   UNL     1      -6.974 -11.841  10.536  0.00  0.00    -0.356 N 
ATOM      7  C   UNL     1      -5.977 -12.572  12.781  0.00  0.00    +0.106 C 
ATOM      8  C   UNL     1      -5.052 -10.915  14.435  0.00  0.00    +0.090 C 
ATOM      9  C   UNL     1      -7.301 -12.436  13.541  0.00  0.00    +0.044 C 
ATOM     10  C   UNL     1      -7.607 -11.001  13.983  0.00  0.00    +0.058 C 
ATOM     11  C   UNL     1      -6.344 -10.141  14.088  0.00  0.00    +0.042 C 
ATOM     12  C   UNL     1      -3.566 -12.141  12.824  0.00  0.00    +0.172 C 
ATOM     13  C   UNL     1      -5.954 -11.891  11.442  0.00  0.00    +0.038 A 
ATOM     14  C   UNL     1      -3.572 -11.141  11.644  0.00  0.00    +0.068 C 
ATOM     15  C   UNL     1      -4.860 -11.245  10.898  0.00  0.00    -0.016 A 
ATOM     17  C   UNL     1      -5.240 -10.755   9.620  0.00  0.00    +0.003 A 
ATOM     18  C   UNL     1      -6.570 -11.142   9.418  0.00  0.00    +0.047 A 
ATOM     23  C   UNL     1      -4.587 -10.022   8.610  0.00  0.00    +0.010 A 
ATOM     24  C   UNL     1      -7.276 -10.828   8.250  0.00  0.00    +0.026 A 
ATOM     27  C   UNL     1      -5.283  -9.700   7.439  0.00  0.00    +0.001 A 
ATOM     30  C   UNL     1      -6.606 -10.098   7.264  0.00  0.00    +0.002 A 
ATOM     34  H   UNL     1      -7.891 -12.247  10.660  0.00  0.00    +0.166 HD
ENDROOT
BRANCH   8  16
ATOM      1  F   UNL     1      -4.660 -11.911  19.991  0.00  0.00    -0.205 F 
ATOM     16  C   UNL     1      -4.946 -11.184  15.936  0.00  0.00    -0.030 A 
ATOM     21  C   UNL     1      -4.943 -12.495  16.412  0.00  0.00    +0.008 A 
ATOM     22  C   UNL     1      -4.852 -10.118  16.832  0.00  0.00    +0.008 A 
ATOM     28  C   UNL     1      -4.847 -12.741  17.780  0.00  0.00    +0.038 A 
ATOM     29  C   UNL     1      -4.756 -10.364  18.201  0.00  0.00    +0.038 A 
ATOM     31  C   UNL     1      -4.754 -11.675  18.676  0.00  0.00    +0.123 A 
ENDBRANCH   8  16
BRANCH  12  19
ATOM      3  O   UNL     1      -1.928 -12.803  14.458  0.00  0.00    -0.249 OA
ATOM     19  C   UNL     1      -2.393 -11.935  13.731  0.00  0.00    +0.325 C 
BRANCH  19   2
ATOM      2  O   UNL     1      -1.944 -10.654  13.612  0.00  0.00    -0.467 OA
ATOM     32  C   UNL     1      -1.392 -10.083  14.802  0.00  0.00    +0.280 C 
ENDBRANCH  19   2
ENDBRANCH  12  19
BRANCH  10   5
ATOM      5  N   UNL     1      -8.367 -11.024  15.235  0.00  0.00    -0.311 NA
ATOM     33  H   UNL     1      -7.937 -11.665  15.900  0.00  0.00    +0.122 HD
BRANCH   5  20
ATOM     20  C   UNL     1      -8.448  -9.691  15.813  0.00  0.00    +0.048 C 
ATOM     25  C   UNL     1      -9.687  -8.980  15.277  0.00  0.00    +0.023 C 
ATOM     26  C   UNL     1      -8.480  -9.776  17.336  0.00  0.00    +0.023 C 
ENDBRANCH   5  20
ENDBRANCH  10   5
TORSDOF 5
ENDMDL
MODEL 5
REMARK VINA RESULT:      -5.8     21.487     24.096
REMARK  Name = 25389777
REMARK  8 active torsions:
REMARK  status: ('A' for Active; 'I' for Inactive)
REMARK    1  A    between atoms: O_2  and  C_19
REMARK    2  A    between atoms: O_2  and  C_32
REMARK    3  A    between atoms: N_5  and  C_10
REMARK    4  A    between atoms: N_5  and  C_20
REMARK    5  A    between atoms: C_8  and  C_16
REMARK    6  A    between atoms: C_12  and  C_19
REMARK    7  A    between atoms: C_20  and  C_25
REMARK    8  A    between atoms: C_20  and  C_26
REMARK                            x       y       z     vdW  Elec       q    Type
REMARK                         _______ _______ _______ _____ _____    ______ ____
ROOT
ATOM      4  N   UNL     1      -1.774  11.009   3.995  0.00  0.00    -0.274 NA
ATOM      6  N   UNL     1       0.699  13.061   5.966  0.00  0.00    -0.356 N 
ATOM      7  C   UNL     1      -1.454  12.103   4.958  0.00  0.00    +0.106 C 
ATOM      8  C   UNL     1      -1.760   9.636   4.560  0.00  0.00    +0.090 C 
ATOM      9  C   UNL     1      -2.117  11.861   6.319  0.00  0.00    +0.044 C 
ATOM     10  C   UNL     1      -1.680  10.553   6.987  0.00  0.00    +0.058 C 
ATOM     11  C   UNL     1      -1.154   9.529   5.977  0.00  0.00    +0.042 C 
ATOM     12  C   UNL     1      -1.017  11.186   2.729  0.00  0.00    +0.172 C 
ATOM     13  C   UNL     1       0.028  12.340   5.020  0.00  0.00    +0.038 A 
ATOM     14  C   UNL     1       0.517  11.088   2.905  0.00  0.00    +0.068 C 
ATOM     15  C   UNL     1       0.943  11.898   4.084  0.00  0.00    -0.016 A 
ATOM     17  C   UNL     1       2.229  12.343   4.493  0.00  0.00    +0.003 A 
ATOM     18  C   UNL     1       2.048  13.068   5.677  0.00  0.00    +0.047 A 
ATOM     23  C   UNL     1       3.532  12.203   3.978  0.00  0.00    +0.010 A 
ATOM     24  C   UNL     1       3.111  13.662   6.366  0.00  0.00    +0.026 A 
ATOM     27  C   UNL     1       4.605  12.791   4.659  0.00  0.00    +0.001 A 
ATOM     30  C   UNL     1       4.395  13.508   5.835  0.00  0.00    +0.002 A 
ATOM     34  H   UNL     1       0.279  13.517   6.764  0.00  0.00    +0.166 HD
ENDROOT
BRANCH   8  16
ATOM      1  F   UNL     1      -6.813   7.107   4.272  0.00  0.00    -0.205 F 
ATOM     16  C   UNL     1      -3.126   8.952   4.482  0.00  0.00    -0.030 A 
ATOM     21  C   UNL     1      -4.177   9.569   3.805  0.00  0.00    +0.008 A 
ATOM     22  C   UNL     1      -3.321   7.711   5.089  0.00  0.00    +0.008 A 
ATOM     28  C   UNL     1      -5.422   8.947   3.733  0.00  0.00    +0.038 A 
ATOM     29  C   UNL     1      -4.566   7.089   5.018  0.00  0.00    +0.038 A 
ATOM     31  C   UNL     1      -5.618   7.706   4.340  0.00  0.00    +0.123 A 
ENDBRANCH   8  16
BRANCH  12  19
ATOM      3  O   UNL     1      -0.948   9.203   1.366  0.00  0.00    -0.249 OA
ATOM     19  C   UNL     1      -1.527  10.229   1.697  0.00  0.00    +0.325 C 
BRANCH  19   2
ATOM      2  O   UNL     1      -2.714  10.682   1.203  0.00  0.00    -0.467 OA
ATOM     32  C   UNL     1      -3.264   9.917   0.126  0.00  0.00    +0.280 C 
ENDBRANCH  19   2
ENDBRANCH  12  19
BRANCH  10   5
ATOM      5  N   UNL     1      -2.782  10.022   7.792  0.00  0.00    -0.311 NA
ATOM     33  H   UNL     1      -2.460   9.798   8.733  0.00  0.00    +0.122 HD
BRANCH   5  20
ATOM     20  C   UNL     1      -3.879  10.975   7.859  0.00  0.00    +0.048 C 
ATOM     25  C   UNL     1      -5.147  10.328   7.310  0.00  0.00    +0.023 C 
ATOM     26  C   UNL     1      -4.082  11.449   9.295  0.00  0.00    +0.023 C 
ENDBRANCH   5  20
ENDBRANCH  10   5
TORSDOF 5
ENDMDL
MODEL 6
REMARK VINA RESULT:      -5.7     13.102     17.518
REMARK  Name = 25389777
REMARK  8 active torsions:
REMARK  status: ('A' for Active; 'I' for Inactive)
REMARK    1  A    between atoms: O_2  and  C_19
REMARK    2  A    between atoms: O_2  and  C_32
REMARK    3  A    between atoms: N_5  and  C_10
REMARK    4  A    between atoms: N_5  and  C_20
REMARK    5  A    between atoms: C_8  and  C_16
REMARK    6  A    between atoms: C_12  and  C_19
REMARK    7  A    between atoms: C_20  and  C_25
REMARK    8  A    between atoms: C_20  and  C_26
REMARK                            x       y       z     vdW  Elec       q    Type
REMARK                         _______ _______ _______ _____ _____    ______ ____
ROOT
ATOM      4  N   UNL     1       0.739 -14.985  -3.360  0.00  0.00    -0.274 NA
ATOM      6  N   UNL     1      -3.029 -15.009  -3.271  0.00  0.00    -0.356 N 
ATOM      7  C   UNL     1      -0.560 -15.677  -3.112  0.00  0.00    +0.106 C 
ATOM      8  C   UNL     1       1.202 -14.086  -2.273  0.00  0.00    +0.090 C 
ATOM      9  C   UNL     1      -0.667 -16.161  -1.662  0.00  0.00    +0.044 C 
ATOM     10  C   UNL     1      -0.574 -15.030  -0.632  0.00  0.00    +0.058 C 
ATOM     11  C   UNL     1       0.146 -13.796  -1.184  0.00  0.00    +0.042 C 
ATOM     12  C   UNL     1       0.772 -14.403  -4.727  0.00  0.00    +0.172 C 
ATOM     13  C   UNL     1      -1.710 -14.827  -3.573  0.00  0.00    +0.038 A 
ATOM     14  C   UNL     1      -0.286 -13.298  -4.955  0.00  0.00    +0.068 C 
ATOM     15  C   UNL     1      -1.608 -13.746  -4.427  0.00  0.00    -0.016 A 
ATOM     17  C   UNL     1      -2.916 -13.230  -4.629  0.00  0.00    +0.003 A 
ATOM     18  C   UNL     1      -3.788 -14.039  -3.892  0.00  0.00    +0.047 A 
ATOM     23  C   UNL     1      -3.450 -12.154  -5.365  0.00  0.00    +0.010 A 
ATOM     24  C   UNL     1      -5.170 -13.822  -3.860  0.00  0.00    +0.026 A 
ATOM     27  C   UNL     1      -4.831 -11.926  -5.340  0.00  0.00    +0.001 A 
ATOM     30  C   UNL     1      -5.676 -12.748  -4.598  0.00  0.00    +0.002 A 
ATOM     34  H   UNL     1      -3.401 -15.738  -2.677  0.00  0.00    +0.166 HD
ENDROOT
BRANCH   8  16
ATOM      1  F   UNL     1       6.110 -15.753  -0.004  0.00  0.00    -0.205 F 
ATOM     16  C   UNL     1       2.529 -14.537  -1.660  0.00  0.00    -0.030 A 
ATOM     21  C   UNL     1       3.317 -13.627  -0.955  0.00  0.00    +0.008 A 
ATOM     22  C   UNL     1       2.952 -15.859  -1.805  0.00  0.00    +0.008 A 
ATOM     28  C   UNL     1       4.525 -14.037  -0.396  0.00  0.00    +0.038 A 
ATOM     29  C   UNL     1       4.161 -16.269  -1.246  0.00  0.00    +0.038 A 
ATOM     31  C   UNL     1       4.949 -15.358  -0.541  0.00  0.00    +0.123 A 
ENDBRANCH   8  16
BRANCH  12  19
ATOM      3  O   UNL     1       3.129 -14.669  -5.134  0.00  0.00    -0.249 OA
ATOM     19  C   UNL     1       2.157 -13.931  -5.042  0.00  0.00    +0.325 C 
BRANCH  19   2
ATOM      2  O   UNL     1       2.151 -12.578  -5.206  0.00  0.00    -0.467 OA
ATOM     32  C   UNL     1       2.714 -12.104  -6.434  0.00  0.00    +0.280 C 
ENDBRANCH  19   2
ENDBRANCH  12  19
BRANCH  10   5
ATOM      5  N   UNL     1       0.050 -15.533   0.594  0.00  0.00    -0.311 NA
ATOM     33  H   UNL     1       0.866 -16.100   0.371  0.00  0.00    +0.122 HD
BRANCH   5  20
ATOM     20  C   UNL     1       0.434 -14.433   1.465  0.00  0.00    +0.048 C 
ATOM     25  C   UNL     1      -0.682 -14.169   2.471  0.00  0.00    +0.023 C 
ATOM     26  C   UNL     1       1.748 -14.753   2.173  0.00  0.00    +0.023 C 
ENDBRANCH   5  20
ENDBRANCH  10   5
TORSDOF 5
ENDMDL
MODEL 7
REMARK VINA RESULT:      -5.7     31.724     32.962
REMARK  Name = 25389777
REMARK  8 active torsions:
REMARK  status: ('A' for Active; 'I' for Inactive)
REMARK    1  A    between atoms: O_2  and  C_19
REMARK    2  A    between atoms: O_2  and  C_32
REMARK    3  A    between atoms: N_5  and  C_10
REMARK    4  A    between atoms: N_5  and  C_20
REMARK    5  A    between atoms: C_8  and  C_16
REMARK    6  A    between atoms: C_12  and  C_19
REMARK    7  A    between atoms: C_20  and  C_25
REMARK    8  A    between atoms: C_20  and  C_26
REMARK                            x       y       z     vdW  Elec       q    Type
REMARK                         _______ _______ _______ _____ _____    ______ ____
ROOT
ATOM      4  N   UNL     1      -2.683  11.075  37.954  0.00  0.00    -0.274 NA
ATOM      6  N   UNL     1      -3.179   8.002  40.082  0.00  0.00    -0.356 N 
ATOM      7  C   UNL     1      -3.311  10.371  39.110  0.00  0.00    +0.106 C 
ATOM      8  C   UNL     1      -3.294  10.799  36.629  0.00  0.00    +0.090 C 
ATOM      9  C   UNL     1      -4.839  10.359  38.994  0.00  0.00    +0.044 C 
ATOM     10  C   UNL     1      -5.351   9.660  37.731  0.00  0.00    +0.058 C 
ATOM     11  C   UNL     1      -4.301   9.627  36.616  0.00  0.00    +0.042 C 
ATOM     12  C   UNL     1      -1.202  10.958  38.010  0.00  0.00    +0.172 C 
ATOM     13  C   UNL     1      -2.691   9.016  39.309  0.00  0.00    +0.038 A 
ATOM     14  C   UNL     1      -0.690   9.504  37.882  0.00  0.00    +0.068 C 
ATOM     15  C   UNL     1      -1.486   8.607  38.769  0.00  0.00    -0.016 A 
ATOM     17  C   UNL     1      -1.247   7.277  39.207  0.00  0.00    +0.003 A 
ATOM     18  C   UNL     1      -2.324   6.922  40.028  0.00  0.00    +0.047 A 
ATOM     23  C   UNL     1      -0.222   6.336  38.991  0.00  0.00    +0.010 A 
ATOM     24  C   UNL     1      -2.420   5.668  40.642  0.00  0.00    +0.026 A 
ATOM     27  C   UNL     1      -0.307   5.078  39.599  0.00  0.00    +0.001 A 
ATOM     30  C   UNL     1      -1.390   4.751  40.411  0.00  0.00    +0.002 A 
ATOM     34  H   UNL     1      -4.040   8.029  40.611  0.00  0.00    +0.166 HD
ENDROOT
BRANCH   8  16
ATOM      1  F   UNL     1      -5.481  15.434  34.232  0.00  0.00    -0.205 F 
ATOM     16  C   UNL     1      -3.886  12.052  35.981  0.00  0.00    -0.030 A 
ATOM     21  C   UNL     1      -4.149  13.181  36.757  0.00  0.00    +0.008 A 
ATOM     22  C   UNL     1      -4.162  12.066  34.614  0.00  0.00    +0.008 A 
ATOM     28  C   UNL     1      -4.687  14.323  36.167  0.00  0.00    +0.038 A 
ATOM     29  C   UNL     1      -4.701  13.209  34.024  0.00  0.00    +0.038 A 
ATOM     31  C   UNL     1      -4.964  14.337  34.800  0.00  0.00    +0.123 A 
ENDBRANCH   8  16
BRANCH  12  19
ATOM      3  O   UNL     1      -0.654  13.086  37.028  0.00  0.00    -0.249 OA
ATOM     19  C   UNL     1      -0.585  11.865  36.991  0.00  0.00    +0.325 C 
BRANCH  19   2
ATOM      2  O   UNL     1       0.049  11.120  36.042  0.00  0.00    -0.467 OA
ATOM     32  C   UNL     1       0.038  11.668  34.720  0.00  0.00    +0.280 C 
ENDBRANCH  19   2
ENDBRANCH  12  19
BRANCH  10   5
ATOM      5  N   UNL     1      -6.601  10.286  37.295  0.00  0.00    -0.311 NA
ATOM     33  H   UNL     1      -6.446  11.265  37.060  0.00  0.00    +0.122 HD
BRANCH   5  20
ATOM     20  C   UNL     1      -7.156   9.584  36.148  0.00  0.00    +0.048 C 
ATOM     25  C   UNL     1      -8.251   8.631  36.617  0.00  0.00    +0.023 C 
ATOM     26  C   UNL     1      -7.698  10.582  35.128  0.00  0.00    +0.023 C 
ENDBRANCH   5  20
ENDBRANCH  10   5
TORSDOF 5
ENDMDL
MODEL 8
REMARK VINA RESULT:      -5.6     24.444     26.734
REMARK  Name = 25389777
REMARK  8 active torsions:
REMARK  status: ('A' for Active; 'I' for Inactive)
REMARK    1  A    between atoms: O_2  and  C_19
REMARK    2  A    between atoms: O_2  and  C_32
REMARK    3  A    between atoms: N_5  and  C_10
REMARK    4  A    between atoms: N_5  and  C_20
REMARK    5  A    between atoms: C_8  and  C_16
REMARK    6  A    between atoms: C_12  and  C_19
REMARK    7  A    between atoms: C_20  and  C_25
REMARK    8  A    between atoms: C_20  and  C_26
REMARK                            x       y       z     vdW  Elec       q    Type
REMARK                         _______ _______ _______ _____ _____    ______ ____
ROOT
ATOM      4  N   UNL     1      11.063   7.586   2.040  0.00  0.00    -0.274 NA
ATOM      6  N   UNL     1       8.512   9.672   0.211  0.00  0.00    -0.356 N 
ATOM      7  C   UNL     1      10.694   8.570   0.981  0.00  0.00    +0.106 C 
ATOM      8  C   UNL     1      10.787   6.163   1.715  0.00  0.00    +0.090 C 
ATOM      9  C   UNL     1      11.056   8.051  -0.415  0.00  0.00    +0.044 C 
ATOM     10  C   UNL     1      10.356   6.738  -0.779  0.00  0.00    +0.058 C 
ATOM     11  C   UNL     1       9.917   5.948   0.457  0.00  0.00    +0.042 C 
ATOM     12  C   UNL     1      10.583   8.041   3.371  0.00  0.00    +0.172 C 
ATOM     13  C   UNL     1       9.263   9.002   1.133  0.00  0.00    +0.038 A 
ATOM     14  C   UNL     1       9.042   8.136   3.474  0.00  0.00    +0.068 C 
ATOM     15  C   UNL     1       8.496   8.827   2.270  0.00  0.00    -0.016 A 
ATOM     17  C   UNL     1       7.216   9.387   2.017  0.00  0.00    +0.003 A 
ATOM     18  C   UNL     1       7.252   9.909   0.718  0.00  0.00    +0.047 A 
ATOM     23  C   UNL     1       6.026   9.506   2.761  0.00  0.00    +0.010 A 
ATOM     24  C   UNL     1       6.151  10.545   0.132  0.00  0.00    +0.026 A 
ATOM     27  C   UNL     1       4.917  10.138   2.185  0.00  0.00    +0.001 A 
ATOM     30  C   UNL     1       4.982  10.649   0.891  0.00  0.00    +0.002 A 
ATOM     34  H   UNL     1       8.823   9.950  -0.710  0.00  0.00    +0.166 HD
ENDROOT
BRANCH   8  16
ATOM      1  F   UNL     1      15.484   3.013   1.550  0.00  0.00    -0.205 F 
ATOM     16  C   UNL     1      12.056   5.312   1.670  0.00  0.00    -0.030 A 
ATOM     21  C   UNL     1      13.303   5.924   1.540  0.00  0.00    +0.008 A 
ATOM     22  C   UNL     1      11.969   3.922   1.760  0.00  0.00    +0.008 A 
ATOM     28  C   UNL     1      14.460   5.148   1.499  0.00  0.00    +0.038 A 
ATOM     29  C   UNL     1      13.126   3.146   1.719  0.00  0.00    +0.038 A 
ATOM     31  C   UNL     1      14.373   3.759   1.588  0.00  0.00    +0.123 A 
ENDBRANCH   8  16
BRANCH  12  19
ATOM      3  O   UNL     1      12.364   7.095   4.684  0.00  0.00    -0.249 OA
ATOM     19  C   UNL     1      11.167   7.174   4.443  0.00  0.00    +0.325 C 
BRANCH  19   2
ATOM      2  O   UNL     1      10.167   6.508   5.086  0.00  0.00    -0.467 OA
ATOM     32  C   UNL     1      10.339   5.091   5.191  0.00  0.00    +0.280 C 
ENDBRANCH  19   2
ENDBRANCH  12  19
BRANCH  10   5
ATOM      5  N   UNL     1      11.218   5.950  -1.663  0.00  0.00    -0.311 NA
ATOM     33  H   UNL     1      12.181   5.968  -1.329  0.00  0.00    +0.122 HD
BRANCH   5  20
ATOM     20  C   UNL     1      10.750   4.575  -1.748  0.00  0.00    +0.048 C 
ATOM     25  C   UNL     1       9.806   4.433  -2.938  0.00  0.00    +0.023 C 
ATOM     26  C   UNL     1      11.934   3.619  -1.870  0.00  0.00    +0.023 C 
ENDBRANCH   5  20
ENDBRANCH  10   5
TORSDOF 5
ENDMDL
MODEL 9
REMARK VINA RESULT:      -5.5     25.604     27.768
REMARK  Name = 25389777
REMARK  8 active torsions:
REMARK  status: ('A' for Active; 'I' for Inactive)
REMARK    1  A    between atoms: O_2  and  C_19
REMARK    2  A    between atoms: O_2  and  C_32
REMARK    3  A    between atoms: N_5  and  C_10
REMARK    4  A    between atoms: N_5  and  C_20
REMARK    5  A    between atoms: C_8  and  C_16
REMARK    6  A    between atoms: C_12  and  C_19
REMARK    7  A    between atoms: C_20  and  C_25
REMARK    8  A    between atoms: C_20  and  C_26
REMARK                            x       y       z     vdW  Elec       q    Type
REMARK                         _______ _______ _______ _____ _____    ______ ____
ROOT
ATOM      4  N   UNL     1      10.811   8.761   4.289  0.00  0.00    -0.274 NA
ATOM      6  N   UNL     1      13.745   6.974   2.735  0.00  0.00    -0.356 N 
ATOM      7  C   UNL     1      12.170   8.767   3.672  0.00  0.00    +0.106 C 
ATOM      8  C   UNL     1      10.762   8.369   5.720  0.00  0.00    +0.090 C 
ATOM      9  C   UNL     1      13.216   9.347   4.629  0.00  0.00    +0.044 C 
ATOM     10  C   UNL     1      13.340   8.568   5.943  0.00  0.00    +0.058 C 
ATOM     11  C   UNL     1      12.075   7.769   6.269  0.00  0.00    +0.042 C 
ATOM     12  C   UNL     1       9.836   8.072   3.405  0.00  0.00    +0.172 C 
ATOM     13  C   UNL     1      12.510   7.410   3.123  0.00  0.00    +0.038 A 
ATOM     14  C   UNL     1      10.149   6.574   3.184  0.00  0.00    +0.068 C 
ATOM     15  C   UNL     1      11.600   6.400   2.879  0.00  0.00    -0.016 A 
ATOM     17  C   UNL     1      12.315   5.293   2.348  0.00  0.00    +0.003 A 
ATOM     18  C   UNL     1      13.658   5.680   2.270  0.00  0.00    +0.047 A 
ATOM     23  C   UNL     1      11.957   3.998   1.925  0.00  0.00    +0.010 A 
ATOM     24  C   UNL     1      14.659   4.829   1.785  0.00  0.00    +0.026 A 
ATOM     27  C   UNL     1      12.949   3.138   1.439  0.00  0.00    +0.001 A 
ATOM     30  C   UNL     1      14.278   3.549   1.372  0.00  0.00    +0.002 A 
ATOM     34  H   UNL     1      14.600   7.512   2.785  0.00  0.00    +0.166 HD
ENDROOT
BRANCH   8  16
ATOM      1  F   UNL     1       8.826  12.514   9.050  0.00  0.00    -0.205 F 
ATOM     16  C   UNL     1      10.239   9.489   6.621  0.00  0.00    -0.030 A 
ATOM     21  C   UNL     1       9.976  10.750   6.084  0.00  0.00    +0.008 A 
ATOM     22  C   UNL     1      10.023   9.251   7.979  0.00  0.00    +0.008 A 
ATOM     28  C   UNL     1       9.499  11.771   6.904  0.00  0.00    +0.038 A 
ATOM     29  C   UNL     1       9.547  10.272   8.798  0.00  0.00    +0.038 A 
ATOM     31  C   UNL     1       9.285  11.533   8.262  0.00  0.00    +0.123 A 
ENDBRANCH   8  16
BRANCH  12  19
ATOM      3  O   UNL     1       7.819   7.457   4.565  0.00  0.00    -0.249 OA
ATOM     19  C   UNL     1       8.447   8.287   3.921  0.00  0.00    +0.325 C 
BRANCH  19   2
ATOM      2  O   UNL     1       8.014   9.529   3.562  0.00  0.00    -0.467 OA
ATOM     32  C   UNL     1       6.598   9.728   3.621  0.00  0.00    +0.280 C 
ENDBRANCH  19   2
ENDBRANCH  12  19
BRANCH  10   5
ATOM      5  N   UNL     1      13.711   9.484   7.024  0.00  0.00    -0.311 NA
ATOM     33  H   UNL     1      14.470   9.092   7.579  0.00  0.00    +0.122 HD
BRANCH   5  20
ATOM     20  C   UNL     1      14.106  10.779   6.490  0.00  0.00    +0.048 C 
ATOM     25  C   UNL     1      13.298  11.878   7.174  0.00  0.00    +0.023 C 
ATOM     26  C   UNL     1      15.604  10.997   6.685  0.00  0.00    +0.023 C 
ENDBRANCH   5  20
ENDBRANCH  10   5
TORSDOF 5
ENDMDL
MODEL 10
REMARK VINA RESULT:      -5.5     22.607     25.803
REMARK  Name = 25389777
REMARK  8 active torsions:
REMARK  status: ('A' for Active; 'I' for Inactive)
REMARK    1  A    between atoms: O_2  and  C_19
REMARK    2  A    between atoms: O_2  and  C_32
REMARK    3  A    between atoms: N_5  and  C_10
REMARK    4  A    between atoms: N_5  and  C_20
REMARK    5  A    between atoms: C_8  and  C_16
REMARK    6  A    between atoms: C_12  and  C_19
REMARK    7  A    between atoms: C_20  and  C_25
REMARK    8  A    between atoms: C_20  and  C_26
REMARK                            x       y       z     vdW  Elec       q    Type
REMARK                         _______ _______ _______ _____ _____    ______ ____
ROOT
ATOM      4  N   UNL     1      10.958   7.781   3.403  0.00  0.00    -0.274 NA
ATOM      6  N   UNL     1       9.805   7.780   6.992  0.00  0.00    -0.356 N 
ATOM      7  C   UNL     1      10.713   8.479   4.699  0.00  0.00    +0.106 C 
ATOM      8  C   UNL     1       9.758   7.574   2.553  0.00  0.00    +0.090 C 
ATOM      9  C   UNL     1       9.721   9.635   4.534  0.00  0.00    +0.044 C 
ATOM     10  C   UNL     1       8.349   9.193   4.013  0.00  0.00    +0.058 C 
ATOM     11  C   UNL     1       8.413   7.863   3.255  0.00  0.00    +0.042 C 
ATOM     12  C   UNL     1      11.812   6.582   3.605  0.00  0.00    +0.172 C 
ATOM     13  C   UNL     1      10.348   7.493   5.773  0.00  0.00    +0.038 A 
ATOM     14  C   UNL     1      11.157   5.497   4.492  0.00  0.00    +0.068 C 
ATOM     15  C   UNL     1      10.557   6.129   5.703  0.00  0.00    -0.016 A 
ATOM     17  C   UNL     1      10.094   5.558   6.919  0.00  0.00    +0.003 A 
ATOM     18  C   UNL     1       9.627   6.615   7.709  0.00  0.00    +0.047 A 
ATOM     23  C   UNL     1      10.025   4.248   7.432  0.00  0.00    +0.010 A 
ATOM     24  C   UNL     1       9.095   6.420   8.989  0.00  0.00    +0.026 A 
ATOM     27  C   UNL     1       9.494   4.040   8.710  0.00  0.00    +0.001 A 
ATOM     30  C   UNL     1       9.037   5.111   9.475  0.00  0.00    +0.002 A 
ATOM     34  H   UNL     1       9.562   8.703   7.324  0.00  0.00    +0.166 HD
ENDROOT
BRANCH   8  16
ATOM      1  F   UNL     1      10.118  10.256  -2.416  0.00  0.00    -0.205 F 
ATOM     16  C   UNL     1       9.855   8.299   1.210  0.00  0.00    -0.030 A 
ATOM     21  C   UNL     1      10.615   9.463   1.099  0.00  0.00    +0.008 A 
ATOM     22  C   UNL     1       9.184   7.796   0.094  0.00  0.00    +0.008 A 
ATOM     28  C   UNL     1      10.705  10.124  -0.126  0.00  0.00    +0.038 A 
ATOM     29  C   UNL     1       9.273   8.458  -1.129  0.00  0.00    +0.038 A 
ATOM     31  C   UNL     1      10.033   9.622  -1.240  0.00  0.00    +0.123 A 
ENDBRANCH   8  16
BRANCH  12  19
ATOM      3  O   UNL     1      13.003   6.621   1.514  0.00  0.00    -0.249 OA
ATOM     19  C   UNL     1      12.243   6.040   2.277  0.00  0.00    +0.325 C 
BRANCH  19   2
ATOM      2  O   UNL     1      11.664   4.824   2.072  0.00  0.00    -0.467 OA
ATOM     32  C   UNL     1      11.563   4.414   0.705  0.00  0.00    +0.280 C 
ENDBRANCH  19   2
ENDBRANCH  12  19
BRANCH  10   5
ATOM      5  N   UNL     1       7.763  10.264   3.204  0.00  0.00    -0.311 NA
ATOM     33  H   UNL     1       8.460  10.657   2.575  0.00  0.00    +0.122 HD
BRANCH   5  20
ATOM     20  C   UNL     1       6.629   9.768   2.438  0.00  0.00    +0.048 C 
ATOM     25  C   UNL     1       5.332  10.159   3.142  0.00  0.00    +0.023 C 
ATOM     26  C   UNL     1       6.669  10.320   1.016  0.00  0.00    +0.023 C 
ENDBRANCH   5  20
ENDBRANCH  10   5
TORSDOF 5
ENDMDL
