MODEL 1
REMARK VINA RESULT:      -6.1      0.000      0.000
REMARK  Name = 7662574
REMARK  12 active torsions:
REMARK  status: ('A' for Active; 'I' for Inactive)
REMARK    1  A    between atoms: O_5  and  C_27
REMARK    2  A    between atoms: O_5  and  C_34
REMARK    3  A    between atoms: N_6  and  C_18
REMARK    4  A    between atoms: N_10  and  C_33
REMARK    5  A    between atoms: N_10  and  C_35
REMARK    6  A    between atoms: N_10  and  C_36
REMARK    7  A    between atoms: C_11  and  C_14
REMARK    8  A    between atoms: C_14  and  C_18
REMARK    9  A    between atoms: C_18  and  C_24
REMARK   10  A    between atoms: C_19  and  C_21
REMARK   11  A    between atoms: C_25  and  C_27
REMARK   12  A    between atoms: C_26  and  C_28
REMARK                            x       y       z     vdW  Elec       q    Type
REMARK                         _______ _______ _______ _____ _____    ______ ____
ROOT
ATOM      3  O   UNL     1      -3.333 -15.221  15.643  0.00  0.00    -0.273 OA
ATOM      4  O   UNL     1      -1.976  -9.948  11.497  0.00  0.00    -0.270 OA
ATOM      7  N   UNL     1      -3.950 -13.660  14.032  0.00  0.00    -0.285 N 
ATOM      8  N   UNL     1      -3.207 -11.884  11.939  0.00  0.00    -0.294 N 
ATOM     19  C   UNL     1      -2.652 -12.973  14.086  0.00  0.00    +0.179 C 
ATOM     20  C   UNL     1      -2.148 -12.522  12.716  0.00  0.00    +0.140 C 
ATOM     22  C   UNL     1      -4.977 -13.058  13.161  0.00  0.00    +0.127 C 
ATOM     23  C   UNL     1      -4.414 -12.701  11.792  0.00  0.00    +0.127 C 
ATOM     25  C   UNL     1      -4.192 -14.719  14.915  0.00  0.00    +0.242 C 
ATOM     26  C   UNL     1      -2.993 -10.628  11.369  0.00  0.00    +0.247 C 
ENDROOT
BRANCH  26  28
ATOM     28  C   UNL     1      -4.069 -10.043  10.559  0.00  0.00    +0.037 A 
ATOM     29  C   UNL     1      -4.082 -10.229   9.178  0.00  0.00    +0.015 A 
ATOM     30  C   UNL     1      -5.079  -9.302  11.173  0.00  0.00    +0.015 A 
ATOM     31  C   UNL     1      -5.105  -9.674   8.408  0.00  0.00    +0.024 A 
ATOM     32  C   UNL     1      -6.103  -8.746  10.404  0.00  0.00    +0.024 A 
ATOM     33  C   UNL     1      -6.115  -8.933   9.022  0.00  0.00    +0.029 A 
BRANCH  33  10
ATOM     10  N   UNL     1      -7.151  -8.373   8.245  0.00  0.00    -0.336 N 
ATOM     35  C   UNL     1      -7.343  -8.789   6.869  0.00  0.00    +0.129 C 
ATOM     36  C   UNL     1      -8.045  -7.385   8.815  0.00  0.00    +0.129 C 
ENDBRANCH  33  10
ENDBRANCH  26  28
BRANCH  19  21
ATOM      1  O   UNL     1      -2.330 -10.712  14.787  0.00  0.00    -0.274 OA
ATOM      6  N   UNL     1      -3.562 -12.146  16.144  0.00  0.00    -0.302 N 
ATOM     21  C   UNL     1      -2.824 -11.811  15.022  0.00  0.00    +0.236 C 
ATOM     37  H   UNL     1      -3.867 -13.107  16.268  0.00  0.00    +0.150 HD
BRANCH   6  18
ATOM     18  C   UNL     1      -3.851 -11.212  17.209  0.00  0.00    +0.159 C 
BRANCH  18  24
ATOM      2  O   UNL     1      -5.033 -11.415  19.322  0.00  0.00    -0.274 OA
ATOM      9  N   UNL     1      -4.457 -13.335  18.200  0.00  0.00    -0.328 N 
ATOM     24  C   UNL     1      -4.518 -11.966  18.351  0.00  0.00    +0.231 C 
ATOM     38  H   UNL     1      -4.859 -13.953  18.897  0.00  0.00    +0.145 HD
ATOM     39  H   UNL     1      -4.012 -13.777  17.402  0.00  0.00    +0.145 HD
ENDBRANCH  18  24
BRANCH  18  14
ATOM     14  C   UNL     1      -4.677 -10.018  16.723  0.00  0.00    +0.035 C 
BRANCH  14  11
ATOM     11  C   UNL     1      -6.016 -10.397  16.091  0.00  0.00    -0.009 C 
ATOM     12  C   UNL     1      -6.076  -9.933  14.629  0.00  0.00    +0.003 C 
ATOM     13  C   UNL     1      -7.182  -9.813  16.899  0.00  0.00    +0.003 C 
ATOM     15  C   UNL     1      -7.425 -10.254  13.991  0.00  0.00    +0.000 C 
ATOM     16  C   UNL     1      -8.529 -10.134  16.257  0.00  0.00    +0.000 C 
ATOM     17  C   UNL     1      -8.582  -9.679  14.802  0.00  0.00    +0.000 C 
ENDBRANCH  14  11
ENDBRANCH  18  14
ENDBRANCH   6  18
ENDBRANCH  19  21
BRANCH  25  27
ATOM     27  C   UNL     1      -5.599 -15.260  14.951  0.00  0.00    +0.255 C 
BRANCH  27   5
ATOM      5  O   UNL     1      -6.165 -14.827  16.165  0.00  0.00    -0.374 OA
ATOM     34  C   UNL     1      -7.236 -13.909  15.960  0.00  0.00    +0.194 C 
ENDBRANCH  27   5
ENDBRANCH  25  27
TORSDOF 9
ENDMDL
MODEL 2
REMARK VINA RESULT:      -5.9      3.441      8.210
REMARK  Name = 7662574
REMARK  12 active torsions:
REMARK  status: ('A' for Active; 'I' for Inactive)
REMARK    1  A    between atoms: O_5  and  C_27
REMARK    2  A    between atoms: O_5  and  C_34
REMARK    3  A    between atoms: N_6  and  C_18
REMARK    4  A    between atoms: N_10  and  C_33
REMARK    5  A    between atoms: N_10  and  C_35
REMARK    6  A    between atoms: N_10  and  C_36
REMARK    7  A    between atoms: C_11  and  C_14
REMARK    8  A    between atoms: C_14  and  C_18
REMARK    9  A    between atoms: C_18  and  C_24
REMARK   10  A    between atoms: C_19  and  C_21
REMARK   11  A    between atoms: C_25  and  C_27
REMARK   12  A    between atoms: C_26  and  C_28
REMARK                            x       y       z     vdW  Elec       q    Type
REMARK                         _______ _______ _______ _____ _____    ______ ____
ROOT
ATOM      3  O   UNL     1      -6.390  -9.274  12.752  0.00  0.00    -0.273 OA
ATOM      4  O   UNL     1      -6.543 -10.290  19.519  0.00  0.00    -0.270 OA
ATOM      7  N   UNL     1      -7.248 -10.292  14.660  0.00  0.00    -0.285 N 
ATOM      8  N   UNL     1      -7.670 -10.251  17.472  0.00  0.00    -0.294 N 
ATOM     19  C   UNL     1      -6.245  -9.673  15.538  0.00  0.00    +0.179 C 
ATOM     20  C   UNL     1      -6.812  -9.225  16.885  0.00  0.00    +0.140 C 
ATOM     22  C   UNL     1      -8.175 -11.250  15.292  0.00  0.00    +0.127 C 
ATOM     23  C   UNL     1      -8.750 -10.702  16.592  0.00  0.00    +0.127 C 
ATOM     25  C   UNL     1      -7.165 -10.075  13.280  0.00  0.00    +0.242 C 
ATOM     26  C   UNL     1      -7.452 -10.674  18.785  0.00  0.00    +0.247 C 
ENDROOT
BRANCH  26  28
ATOM     28  C   UNL     1      -8.366 -11.674  19.350  0.00  0.00    +0.037 A 
ATOM     29  C   UNL     1      -7.992 -13.017  19.388  0.00  0.00    +0.015 A 
ATOM     30  C   UNL     1      -9.607 -11.281  19.849  0.00  0.00    +0.015 A 
ATOM     31  C   UNL     1      -8.860 -13.968  19.926  0.00  0.00    +0.024 A 
ATOM     32  C   UNL     1     -10.477 -12.231  20.387  0.00  0.00    +0.024 A 
ATOM     33  C   UNL     1     -10.102 -13.575  20.424  0.00  0.00    +0.029 A 
BRANCH  33  10
ATOM     10  N   UNL     1     -10.980 -14.535  20.970  0.00  0.00    -0.336 N 
ATOM     35  C   UNL     1     -11.912 -14.165  22.017  0.00  0.00    +0.129 C 
ATOM     36  C   UNL     1     -10.972 -15.899  20.481  0.00  0.00    +0.129 C 
ENDBRANCH  33  10
ENDBRANCH  26  28
BRANCH  19  21
ATOM      1  O   UNL     1      -5.207 -11.567  16.561  0.00  0.00    -0.274 OA
ATOM      6  N   UNL     1      -4.101 -10.477  14.827  0.00  0.00    -0.302 N 
ATOM     21  C   UNL     1      -5.148 -10.685  15.709  0.00  0.00    +0.236 C 
ATOM     37  H   UNL     1      -4.128  -9.674  14.206  0.00  0.00    +0.150 HD
BRANCH   6  18
ATOM     18  C   UNL     1      -2.913 -11.300  14.802  0.00  0.00    +0.159 C 
BRANCH  18  24
ATOM      2  O   UNL     1      -1.051  -9.816  15.287  0.00  0.00    -0.274 OA
ATOM      9  N   UNL     1      -1.869 -11.137  16.980  0.00  0.00    -0.328 N 
ATOM     24  C   UNL     1      -1.854 -10.656  15.687  0.00  0.00    +0.231 C 
ATOM     38  H   UNL     1      -1.208 -10.794  17.669  0.00  0.00    +0.145 HD
ATOM     39  H   UNL     1      -2.526 -11.845  17.292  0.00  0.00    +0.145 HD
ENDBRANCH  18  24
BRANCH  18  14
ATOM     14  C   UNL     1      -2.417 -11.558  13.376  0.00  0.00    +0.035 C 
BRANCH  14  11
ATOM     11  C   UNL     1      -3.240 -10.865  12.291  0.00  0.00    -0.009 C 
ATOM     12  C   UNL     1      -4.025 -11.893  11.466  0.00  0.00    +0.003 C 
ATOM     13  C   UNL     1      -2.339 -10.013  11.389  0.00  0.00    +0.003 C 
ATOM     15  C   UNL     1      -4.815 -11.229  10.341  0.00  0.00    +0.000 C 
ATOM     16  C   UNL     1      -3.131  -9.352  10.263  0.00  0.00    +0.000 C 
ATOM     17  C   UNL     1      -3.917 -10.376   9.451  0.00  0.00    +0.000 C 
ENDBRANCH  14  11
ENDBRANCH  18  14
ENDBRANCH   6  18
ENDBRANCH  19  21
BRANCH  25  27
ATOM     27  C   UNL     1      -8.096 -10.882  12.411  0.00  0.00    +0.255 C 
BRANCH  27   5
ATOM      5  O   UNL     1      -8.977  -9.966  11.807  0.00  0.00    -0.374 OA
ATOM     34  C   UNL     1     -10.274  -9.999  12.399  0.00  0.00    +0.194 C 
ENDBRANCH  27   5
ENDBRANCH  25  27
TORSDOF 9
ENDMDL
MODEL 3
REMARK VINA RESULT:      -5.6     23.427     26.437
REMARK  Name = 7662574
REMARK  12 active torsions:
REMARK  status: ('A' for Active; 'I' for Inactive)
REMARK    1  A    between atoms: O_5  and  C_27
REMARK    2  A    between atoms: O_5  and  C_34
REMARK    3  A    between atoms: N_6  and  C_18
REMARK    4  A    between atoms: N_10  and  C_33
REMARK    5  A    between atoms: N_10  and  C_35
REMARK    6  A    between atoms: N_10  and  C_36
REMARK    7  A    between atoms: C_11  and  C_14
REMARK    8  A    between atoms: C_14  and  C_18
REMARK    9  A    between atoms: C_18  and  C_24
REMARK   10  A    between atoms: C_19  and  C_21
REMARK   11  A    between atoms: C_25  and  C_27
REMARK   12  A    between atoms: C_26  and  C_28
REMARK                            x       y       z     vdW  Elec       q    Type
REMARK                         _______ _______ _______ _____ _____    ______ ____
ROOT
ATOM      3  O   UNL     1       9.870   3.680   7.811  0.00  0.00    -0.273 OA
ATOM      4  O   UNL     1       8.005   8.240   3.060  0.00  0.00    -0.270 OA
ATOM      7  N   UNL     1       9.517   5.861   7.080  0.00  0.00    -0.285 N 
ATOM      8  N   UNL     1       8.203   7.663   5.316  0.00  0.00    -0.294 N 
ATOM     19  C   UNL     1       9.190   5.433   5.712  0.00  0.00    +0.179 C 
ATOM     20  C   UNL     1       8.046   6.229   5.085  0.00  0.00    +0.140 C 
ATOM     22  C   UNL     1       9.569   7.315   7.320  0.00  0.00    +0.127 C 
ATOM     23  C   UNL     1       8.362   8.028   6.726  0.00  0.00    +0.127 C 
ATOM     25  C   UNL     1       9.915   4.896   8.013  0.00  0.00    +0.242 C 
ATOM     26  C   UNL     1       8.139   8.552   4.242  0.00  0.00    +0.247 C 
ENDROOT
BRANCH  26  28
ATOM     28  C   UNL     1       8.257   9.988   4.525  0.00  0.00    +0.037 A 
ATOM     29  C   UNL     1       9.517  10.571   4.665  0.00  0.00    +0.015 A 
ATOM     30  C   UNL     1       7.109  10.770   4.654  0.00  0.00    +0.015 A 
ATOM     31  C   UNL     1       9.629  11.935   4.933  0.00  0.00    +0.024 A 
ATOM     32  C   UNL     1       7.220  12.135   4.922  0.00  0.00    +0.024 A 
ATOM     33  C   UNL     1       8.481  12.717   5.062  0.00  0.00    +0.029 A 
BRANCH  33  10
ATOM     10  N   UNL     1       8.593  14.097   5.332  0.00  0.00    -0.336 N 
ATOM     35  C   UNL     1       8.367  14.602   6.672  0.00  0.00    +0.129 C 
ATOM     36  C   UNL     1       8.950  15.025   4.277  0.00  0.00    +0.129 C 
ENDBRANCH  33  10
ENDBRANCH  26  28
BRANCH  19  21
ATOM      1  O   UNL     1      11.477   6.043   5.392  0.00  0.00    -0.274 OA
ATOM      6  N   UNL     1      10.305   5.100   3.617  0.00  0.00    -0.302 N 
ATOM     21  C   UNL     1      10.455   5.560   4.914  0.00  0.00    +0.236 C 
ATOM     37  H   UNL     1       9.392   4.780   3.307  0.00  0.00    +0.150 HD
BRANCH   6  18
ATOM     18  C   UNL     1      11.368   5.133   2.638  0.00  0.00    +0.159 C 
BRANCH  18  24
ATOM      2  O   UNL     1      12.371   7.229   1.926  0.00  0.00    -0.274 OA
ATOM      9  N   UNL     1      10.150   6.864   1.464  0.00  0.00    -0.328 N 
ATOM     24  C   UNL     1      11.379   6.505   1.975  0.00  0.00    +0.231 C 
ATOM     38  H   UNL     1      10.021   7.759   1.003  0.00  0.00    +0.145 HD
ATOM     39  H   UNL     1       9.335   6.264   1.529  0.00  0.00    +0.145 HD
ENDBRANCH  18  24
BRANCH  18  14
ATOM     14  C   UNL     1      11.261   3.987   1.627  0.00  0.00    +0.035 C 
BRANCH  14  11
ATOM     11  C   UNL     1      12.593   3.573   1.005  0.00  0.00    -0.009 C 
ATOM     12  C   UNL     1      13.760   3.930   1.935  0.00  0.00    +0.003 C 
ATOM     13  C   UNL     1      12.774   4.223  -0.373  0.00  0.00    +0.003 C 
ATOM     15  C   UNL     1      15.107   3.574   1.312  0.00  0.00    +0.000 C 
ATOM     16  C   UNL     1      14.123   3.867  -0.992  0.00  0.00    +0.000 C 
ATOM     17  C   UNL     1      15.280   4.215  -0.061  0.00  0.00    +0.000 C 
ENDBRANCH  14  11
ENDBRANCH  18  14
ENDBRANCH   6  18
ENDBRANCH  19  21
BRANCH  25  27
ATOM     27  C   UNL     1      10.421   5.406   9.338  0.00  0.00    +0.255 C 
BRANCH  27   5
ATOM      5  O   UNL     1      10.026   4.466  10.308  0.00  0.00    -0.374 OA
ATOM     34  C   UNL     1       8.646   4.591  10.644  0.00  0.00    +0.194 C 
ENDBRANCH  27   5
ENDBRANCH  25  27
TORSDOF 9
ENDMDL
MODEL 4
REMARK VINA RESULT:      -5.5      2.131      3.059
REMARK  Name = 7662574
REMARK  12 active torsions:
REMARK  status: ('A' for Active; 'I' for Inactive)
REMARK    1  A    between atoms: O_5  and  C_27
REMARK    2  A    between atoms: O_5  and  C_34
REMARK    3  A    between atoms: N_6  and  C_18
REMARK    4  A    between atoms: N_10  and  C_33
REMARK    5  A    between atoms: N_10  and  C_35
REMARK    6  A    between atoms: N_10  and  C_36
REMARK    7  A    between atoms: C_11  and  C_14
REMARK    8  A    between atoms: C_14  and  C_18
REMARK    9  A    between atoms: C_18  and  C_24
REMARK   10  A    between atoms: C_19  and  C_21
REMARK   11  A    between atoms: C_25  and  C_27
REMARK   12  A    between atoms: C_26  and  C_28
REMARK                            x       y       z     vdW  Elec       q    Type
REMARK                         _______ _______ _______ _____ _____    ______ ____
ROOT
ATOM      3  O   UNL     1      -4.264 -14.785  13.644  0.00  0.00    -0.273 OA
ATOM      4  O   UNL     1      -3.415  -9.421   9.479  0.00  0.00    -0.270 OA
ATOM      7  N   UNL     1      -5.071 -13.190  12.154  0.00  0.00    -0.285 N 
ATOM      8  N   UNL     1      -4.585 -11.369  10.025  0.00  0.00    -0.294 N 
ATOM     19  C   UNL     1      -3.775 -12.503  12.065  0.00  0.00    +0.179 C 
ATOM     20  C   UNL     1      -3.440 -12.021  10.654  0.00  0.00    +0.140 C 
ATOM     22  C   UNL     1      -6.195 -12.572  11.426  0.00  0.00    +0.127 C 
ATOM     23  C   UNL     1      -5.801 -12.184  10.007  0.00  0.00    +0.127 C 
ATOM     25  C   UNL     1      -5.205 -14.268  13.036  0.00  0.00    +0.242 C 
ATOM     26  C   UNL     1      -4.441 -10.100   9.461  0.00  0.00    +0.247 C 
ENDROOT
BRANCH  26  28
ATOM     28  C   UNL     1      -5.606  -9.501   8.799  0.00  0.00    +0.037 A 
ATOM     29  C   UNL     1      -6.458  -8.659   9.514  0.00  0.00    +0.015 A 
ATOM     30  C   UNL     1      -5.861  -9.773   7.455  0.00  0.00    +0.015 A 
ATOM     31  C   UNL     1      -7.566  -8.090   8.885  0.00  0.00    +0.024 A 
ATOM     32  C   UNL     1      -6.969  -9.203   6.825  0.00  0.00    +0.024 A 
ATOM     33  C   UNL     1      -7.821  -8.362   7.541  0.00  0.00    +0.029 A 
BRANCH  33  10
ATOM     10  N   UNL     1      -8.939  -7.785   6.904  0.00  0.00    -0.336 N 
ATOM     35  C   UNL     1      -8.860  -7.371   5.517  0.00  0.00    +0.129 C 
ATOM     36  C   UNL     1     -10.185  -7.610   7.624  0.00  0.00    +0.129 C 
ENDBRANCH  33  10
ENDBRANCH  26  28
BRANCH  19  21
ATOM      1  O   UNL     1      -4.303 -10.270  12.732  0.00  0.00    -0.274 OA
ATOM      6  N   UNL     1      -3.283 -11.691  14.266  0.00  0.00    -0.302 N 
ATOM     21  C   UNL     1      -3.832 -11.361  13.040  0.00  0.00    +0.236 C 
ATOM     37  H   UNL     1      -2.861 -12.607  14.391  0.00  0.00    +0.150 HD
BRANCH   6  18
ATOM     18  C   UNL     1      -3.196 -10.761  15.370  0.00  0.00    +0.159 C 
BRANCH  18  24
ATOM      2  O   UNL     1      -1.170  -9.578  14.738  0.00  0.00    -0.274 OA
ATOM      9  N   UNL     1      -1.133 -10.881  16.629  0.00  0.00    -0.328 N 
ATOM     24  C   UNL     1      -1.745 -10.324  15.526  0.00  0.00    +0.231 C 
ATOM     38  H   UNL     1      -0.162 -10.676  16.843  0.00  0.00    +0.145 HD
ATOM     39  H   UNL     1      -1.614 -11.512  17.261  0.00  0.00    +0.145 HD
ENDBRANCH  18  24
BRANCH  18  14
ATOM     14  C   UNL     1      -3.784 -11.338  16.661  0.00  0.00    +0.035 C 
BRANCH  14  11
ATOM     11  C   UNL     1      -4.899 -10.492  17.275  0.00  0.00    -0.009 C 
ATOM     12  C   UNL     1      -5.473 -11.174  18.523  0.00  0.00    +0.003 C 
ATOM     13  C   UNL     1      -6.002 -10.219  16.244  0.00  0.00    +0.003 C 
ATOM     15  C   UNL     1      -6.625 -10.373  19.125  0.00  0.00    +0.000 C 
ATOM     16  C   UNL     1      -7.154  -9.420  16.850  0.00  0.00    +0.000 C 
ATOM     17  C   UNL     1      -7.716 -10.097  18.095  0.00  0.00    +0.000 C 
ENDBRANCH  14  11
ENDBRANCH  18  14
ENDBRANCH   6  18
ENDBRANCH  19  21
BRANCH  25  27
ATOM     27  C   UNL     1      -6.597 -14.814  13.230  0.00  0.00    +0.255 C 
BRANCH  27   5
ATOM      5  O   UNL     1      -6.607 -16.102  12.664  0.00  0.00    -0.374 OA
ATOM     34  C   UNL     1      -7.367 -16.152  11.459  0.00  0.00    +0.194 C 
ENDBRANCH  27   5
ENDBRANCH  25  27
TORSDOF 9
ENDMDL
MODEL 5
REMARK VINA RESULT:      -5.5      4.314      7.317
REMARK  Name = 7662574
REMARK  12 active torsions:
REMARK  status: ('A' for Active; 'I' for Inactive)
REMARK    1  A    between atoms: O_5  and  C_27
REMARK    2  A    between atoms: O_5  and  C_34
REMARK    3  A    between atoms: N_6  and  C_18
REMARK    4  A    between atoms: N_10  and  C_33
REMARK    5  A    between atoms: N_10  and  C_35
REMARK    6  A    between atoms: N_10  and  C_36
REMARK    7  A    between atoms: C_11  and  C_14
REMARK    8  A    between atoms: C_14  and  C_18
REMARK    9  A    between atoms: C_18  and  C_24
REMARK   10  A    between atoms: C_19  and  C_21
REMARK   11  A    between atoms: C_25  and  C_27
REMARK   12  A    between atoms: C_26  and  C_28
REMARK                            x       y       z     vdW  Elec       q    Type
REMARK                         _______ _______ _______ _____ _____    ______ ____
ROOT
ATOM      3  O   UNL     1     -12.947  -7.764  15.987  0.00  0.00    -0.273 OA
ATOM      4  O   UNL     1      -8.481 -12.909  15.324  0.00  0.00    -0.270 OA
ATOM      7  N   UNL     1     -10.856  -8.612  15.418  0.00  0.00    -0.285 N 
ATOM      8  N   UNL     1      -9.249 -10.818  14.617  0.00  0.00    -0.294 N 
ATOM     19  C   UNL     1     -11.189  -9.964  15.888  0.00  0.00    +0.179 C 
ATOM     20  C   UNL     1     -10.639 -11.071  14.988  0.00  0.00    +0.140 C 
ATOM     22  C   UNL     1      -9.474  -8.400  14.949  0.00  0.00    +0.127 C 
ATOM     23  C   UNL     1      -9.024  -9.507  14.004  0.00  0.00    +0.127 C 
ATOM     25  C   UNL     1     -11.791  -7.586  15.594  0.00  0.00    +0.242 C 
ATOM     26  C   UNL     1      -8.285 -11.809  14.809  0.00  0.00    +0.247 C 
ENDROOT
BRANCH  26  28
ATOM     28  C   UNL     1      -6.909 -11.528  14.380  0.00  0.00    +0.037 A 
ATOM     29  C   UNL     1      -6.447 -12.011  13.157  0.00  0.00    +0.015 A 
ATOM     30  C   UNL     1      -6.065 -10.777  15.198  0.00  0.00    +0.015 A 
ATOM     31  C   UNL     1      -5.140 -11.743  12.749  0.00  0.00    +0.024 A 
ATOM     32  C   UNL     1      -4.757 -10.508  14.791  0.00  0.00    +0.024 A 
ATOM     33  C   UNL     1      -4.295 -10.992  13.567  0.00  0.00    +0.029 A 
BRANCH  33  10
ATOM     10  N   UNL     1      -2.974 -10.719  13.155  0.00  0.00    -0.336 N 
ATOM     35  C   UNL     1      -2.606 -10.820  11.757  0.00  0.00    +0.129 C 
ATOM     36  C   UNL     1      -1.970 -10.322  14.123  0.00  0.00    +0.129 C 
ENDBRANCH  33  10
ENDBRANCH  26  28
BRANCH  19  21
ATOM      1  O   UNL     1     -10.523  -9.087  18.008  0.00  0.00    -0.274 OA
ATOM      6  N   UNL     1     -10.323 -11.373  17.623  0.00  0.00    -0.302 N 
ATOM     21  C   UNL     1     -10.654 -10.072  17.287  0.00  0.00    +0.236 C 
ATOM     37  H   UNL     1     -10.411 -12.104  16.923  0.00  0.00    +0.150 HD
BRANCH   6  18
ATOM     18  C   UNL     1      -9.765 -11.742  18.905  0.00  0.00    +0.159 C 
BRANCH  18  24
ATOM      2  O   UNL     1     -11.734 -12.566  20.067  0.00  0.00    -0.274 OA
ATOM      9  N   UNL     1     -10.829 -10.561  20.730  0.00  0.00    -0.328 N 
ATOM     24  C   UNL     1     -10.873 -11.697  19.949  0.00  0.00    +0.231 C 
ATOM     38  H   UNL     1     -11.517 -10.406  21.460  0.00  0.00    +0.145 HD
ATOM     39  H   UNL     1     -10.124  -9.842  20.609  0.00  0.00    +0.145 HD
ENDBRANCH  18  24
BRANCH  18  14
ATOM     14  C   UNL     1      -8.559 -10.877  19.282  0.00  0.00    +0.035 C 
BRANCH  14  11
ATOM     11  C   UNL     1      -7.261 -11.271  18.579  0.00  0.00    -0.009 C 
ATOM     12  C   UNL     1      -7.119 -12.798  18.518  0.00  0.00    +0.003 C 
ATOM     13  C   UNL     1      -6.051 -10.637  19.279  0.00  0.00    +0.003 C 
ATOM     15  C   UNL     1      -5.804 -13.217  17.867  0.00  0.00    +0.000 C 
ATOM     16  C   UNL     1      -4.737 -11.061  18.627  0.00  0.00    +0.000 C 
ATOM     17  C   UNL     1      -4.604 -12.579  18.560  0.00  0.00    +0.000 C 
ENDBRANCH  14  11
ENDBRANCH  18  14
ENDBRANCH   6  18
ENDBRANCH  19  21
BRANCH  25  27
ATOM     27  C   UNL     1     -11.328  -6.187  15.273  0.00  0.00    +0.255 C 
BRANCH  27   5
ATOM      5  O   UNL     1     -12.458  -5.487  14.811  0.00  0.00    -0.374 OA
ATOM     34  C   UNL     1     -12.385  -5.211  13.414  0.00  0.00    +0.194 C 
ENDBRANCH  27   5
ENDBRANCH  25  27
TORSDOF 9
ENDMDL
MODEL 6
REMARK VINA RESULT:      -5.4     21.392     23.623
REMARK  Name = 7662574
REMARK  12 active torsions:
REMARK  status: ('A' for Active; 'I' for Inactive)
REMARK    1  A    between atoms: O_5  and  C_27
REMARK    2  A    between atoms: O_5  and  C_34
REMARK    3  A    between atoms: N_6  and  C_18
REMARK    4  A    between atoms: N_10  and  C_33
REMARK    5  A    between atoms: N_10  and  C_35
REMARK    6  A    between atoms: N_10  and  C_36
REMARK    7  A    between atoms: C_11  and  C_14
REMARK    8  A    between atoms: C_14  and  C_18
REMARK    9  A    between atoms: C_18  and  C_24
REMARK   10  A    between atoms: C_19  and  C_21
REMARK   11  A    between atoms: C_25  and  C_27
REMARK   12  A    between atoms: C_26  and  C_28
REMARK                            x       y       z     vdW  Elec       q    Type
REMARK                         _______ _______ _______ _____ _____    ______ ____
ROOT
ATOM      3  O   UNL     1     -15.566   5.592  21.919  0.00  0.00    -0.273 OA
ATOM      4  O   UNL     1     -10.594   9.953  20.159  0.00  0.00    -0.270 OA
ATOM      7  N   UNL     1     -14.512   7.005  20.400  0.00  0.00    -0.285 N 
ATOM      8  N   UNL     1     -12.152   8.330  19.527  0.00  0.00    -0.294 N 
ATOM     19  C   UNL     1     -13.526   7.462  21.389  0.00  0.00    +0.179 C 
ATOM     20  C   UNL     1     -12.121   7.633  20.810  0.00  0.00    +0.140 C 
ATOM     22  C   UNL     1     -14.462   7.649  19.074  0.00  0.00    +0.127 C 
ATOM     23  C   UNL     1     -13.038   7.718  18.535  0.00  0.00    +0.127 C 
ATOM     25  C   UNL     1     -15.525   6.130  20.809  0.00  0.00    +0.242 C 
ATOM     26  C   UNL     1     -11.336   9.444  19.321  0.00  0.00    +0.247 C 
ENDROOT
BRANCH  26  28
ATOM     28  C   UNL     1     -11.366  10.088  18.002  0.00  0.00    +0.037 A 
ATOM     29  C   UNL     1     -10.428   9.736  17.032  0.00  0.00    +0.015 A 
ATOM     30  C   UNL     1     -12.334  11.052  17.719  0.00  0.00    +0.015 A 
ATOM     31  C   UNL     1     -10.457  10.348  15.778  0.00  0.00    +0.024 A 
ATOM     32  C   UNL     1     -12.364  11.664  16.465  0.00  0.00    +0.024 A 
ATOM     33  C   UNL     1     -11.425  11.312  15.495  0.00  0.00    +0.029 A 
BRANCH  33  10
ATOM     10  N   UNL     1     -11.456  11.930  14.227  0.00  0.00    -0.336 N 
ATOM     35  C   UNL     1     -10.903  13.257  14.045  0.00  0.00    +0.129 C 
ATOM     36  C   UNL     1     -12.029  11.240  13.088  0.00  0.00    +0.129 C 
ENDBRANCH  33  10
ENDBRANCH  26  28
BRANCH  19  21
ATOM      1  O   UNL     1     -15.256   8.996  21.992  0.00  0.00    -0.274 OA
ATOM      6  N   UNL     1     -13.039   9.595  22.369  0.00  0.00    -0.302 N 
ATOM     21  C   UNL     1     -14.053   8.752  21.950  0.00  0.00    +0.236 C 
ATOM     37  H   UNL     1     -12.072   9.317  22.226  0.00  0.00    +0.150 HD
BRANCH   6  18
ATOM     18  C   UNL     1     -13.280  10.907  22.926  0.00  0.00    +0.159 C 
BRANCH  18  24
ATOM      2  O   UNL     1     -14.598  12.336  21.469  0.00  0.00    -0.274 OA
ATOM      9  N   UNL     1     -12.333  12.203  21.116  0.00  0.00    -0.328 N 
ATOM     24  C   UNL     1     -13.498  11.890  21.784  0.00  0.00    +0.231 C 
ATOM     38  H   UNL     1     -12.341  12.843  20.328  0.00  0.00    +0.145 HD
ATOM     39  H   UNL     1     -11.432  11.812  21.374  0.00  0.00    +0.145 HD
ENDBRANCH  18  24
BRANCH  18  14
ATOM     14  C   UNL     1     -12.165  11.344  23.881  0.00  0.00    +0.035 C 
BRANCH  14  11
ATOM     11  C   UNL     1     -12.130  10.571  25.199  0.00  0.00    -0.009 C 
ATOM     12  C   UNL     1     -13.244  11.049  26.138  0.00  0.00    +0.003 C 
ATOM     13  C   UNL     1     -10.756  10.703  25.868  0.00  0.00    +0.003 C 
ATOM     15  C   UNL     1     -13.197  10.329  27.483  0.00  0.00    +0.000 C 
ATOM     16  C   UNL     1     -10.712   9.983  27.214  0.00  0.00    +0.000 C 
ATOM     17  C   UNL     1     -11.827  10.456  28.142  0.00  0.00    +0.000 C 
ENDBRANCH  14  11
ENDBRANCH  18  14
ENDBRANCH   6  18
ENDBRANCH  19  21
BRANCH  25  27
ATOM     27  C   UNL     1     -16.617   5.844  19.810  0.00  0.00    +0.255 C 
BRANCH  27   5
ATOM      5  O   UNL     1     -16.859   4.459  19.865  0.00  0.00    -0.374 OA
ATOM     34  C   UNL     1     -18.201   4.135  19.509  0.00  0.00    +0.194 C 
ENDBRANCH  27   5
ENDBRANCH  25  27
TORSDOF 9
ENDMDL
MODEL 7
REMARK VINA RESULT:      -5.3     25.271     28.321
REMARK  Name = 7662574
REMARK  12 active torsions:
REMARK  status: ('A' for Active; 'I' for Inactive)
REMARK    1  A    between atoms: O_5  and  C_27
REMARK    2  A    between atoms: O_5  and  C_34
REMARK    3  A    between atoms: N_6  and  C_18
REMARK    4  A    between atoms: N_10  and  C_33
REMARK    5  A    between atoms: N_10  and  C_35
REMARK    6  A    between atoms: N_10  and  C_36
REMARK    7  A    between atoms: C_11  and  C_14
REMARK    8  A    between atoms: C_14  and  C_18
REMARK    9  A    between atoms: C_18  and  C_24
REMARK   10  A    between atoms: C_19  and  C_21
REMARK   11  A    between atoms: C_25  and  C_27
REMARK   12  A    between atoms: C_26  and  C_28
REMARK                            x       y       z     vdW  Elec       q    Type
REMARK                         _______ _______ _______ _____ _____    ______ ____
ROOT
ATOM      3  O   UNL     1       8.831   6.153   6.847  0.00  0.00    -0.273 OA
ATOM      4  O   UNL     1      13.605   9.162   2.974  0.00  0.00    -0.270 OA
ATOM      7  N   UNL     1      11.029   6.777   6.406  0.00  0.00    -0.285 N 
ATOM      8  N   UNL     1      12.860   8.510   5.091  0.00  0.00    -0.294 N 
ATOM     19  C   UNL     1      10.692   7.325   5.085  0.00  0.00    +0.179 C 
ATOM     20  C   UNL     1      11.442   8.615   4.754  0.00  0.00    +0.140 C 
ATOM     22  C   UNL     1      12.457   6.774   6.773  0.00  0.00    +0.127 C 
ATOM     23  C   UNL     1      13.117   8.115   6.478  0.00  0.00    +0.127 C 
ATOM     25  C   UNL     1      10.025   6.150   7.154  0.00  0.00    +0.242 C 
ATOM     26  C   UNL     1      13.828   8.831   4.137  0.00  0.00    +0.247 C 
ENDROOT
BRANCH  26  28
ATOM     28  C   UNL     1      15.240   8.754   4.533  0.00  0.00    +0.037 A 
ATOM     29  C   UNL     1      16.066   7.775   3.983  0.00  0.00    +0.015 A 
ATOM     30  C   UNL     1      15.754   9.662   5.458  0.00  0.00    +0.015 A 
ATOM     31  C   UNL     1      17.408   7.703   4.359  0.00  0.00    +0.024 A 
ATOM     32  C   UNL     1      17.096   9.592   5.834  0.00  0.00    +0.024 A 
ATOM     33  C   UNL     1      17.923   8.611   5.284  0.00  0.00    +0.029 A 
BRANCH  33  10
ATOM     10  N   UNL     1      19.279   8.540   5.663  0.00  0.00    -0.336 N 
ATOM     35  C   UNL     1      20.254   7.922   4.786  0.00  0.00    +0.129 C 
ATOM     36  C   UNL     1      19.719   9.097   6.927  0.00  0.00    +0.129 C 
ENDBRANCH  33  10
ENDBRANCH  26  28
BRANCH  19  21
ATOM      1  O   UNL     1      10.877   5.052   4.371  0.00  0.00    -0.274 OA
ATOM      6  N   UNL     1      11.407   6.750   2.871  0.00  0.00    -0.302 N 
ATOM     21  C   UNL     1      10.988   6.242   4.088  0.00  0.00    +0.236 C 
ATOM     37  H   UNL     1      11.526   7.753   2.767  0.00  0.00    +0.150 HD
BRANCH   6  18
ATOM     18  C   UNL     1      11.776   5.915   1.749  0.00  0.00    +0.159 C 
BRANCH  18  24
ATOM      2  O   UNL     1       9.794   6.146   0.362  0.00  0.00    -0.274 OA
ATOM      9  N   UNL     1      10.218   4.110   1.338  0.00  0.00    -0.328 N 
ATOM     24  C   UNL     1      10.505   5.430   1.064  0.00  0.00    +0.231 C 
ATOM     38  H   UNL     1       9.393   3.666   0.948  0.00  0.00    +0.145 HD
ATOM     39  H   UNL     1      10.804   3.535   1.935  0.00  0.00    +0.145 HD
ENDBRANCH  18  24
BRANCH  18  14
ATOM     14  C   UNL     1      12.702   4.767   2.162  0.00  0.00    +0.035 C 
BRANCH  14  11
ATOM     11  C   UNL     1      14.147   4.927   1.690  0.00  0.00    -0.009 C 
ATOM     12  C   UNL     1      14.350   6.292   1.019  0.00  0.00    +0.003 C 
ATOM     13  C   UNL     1      14.536   3.787   0.740  0.00  0.00    +0.003 C 
ATOM     15  C   UNL     1      15.773   6.454   0.491  0.00  0.00    +0.000 C 
ATOM     16  C   UNL     1      15.959   3.954   0.212  0.00  0.00    +0.000 C 
ATOM     17  C   UNL     1      16.159   5.315  -0.447  0.00  0.00    +0.000 C 
ENDBRANCH  14  11
ENDBRANCH  18  14
ENDBRANCH   6  18
ENDBRANCH  19  21
BRANCH  25  27
ATOM     27  C   UNL     1      10.462   5.440   8.410  0.00  0.00    +0.255 C 
BRANCH  27   5
ATOM      5  O   UNL     1       9.417   4.565   8.761  0.00  0.00    -0.374 OA
ATOM     34  C   UNL     1       9.040   4.701  10.129  0.00  0.00    +0.194 C 
ENDBRANCH  27   5
ENDBRANCH  25  27
TORSDOF 9
ENDMDL
MODEL 8
REMARK VINA RESULT:      -5.2     24.974     27.906
REMARK  Name = 7662574
REMARK  12 active torsions:
REMARK  status: ('A' for Active; 'I' for Inactive)
REMARK    1  A    between atoms: O_5  and  C_27
REMARK    2  A    between atoms: O_5  and  C_34
REMARK    3  A    between atoms: N_6  and  C_18
REMARK    4  A    between atoms: N_10  and  C_33
REMARK    5  A    between atoms: N_10  and  C_35
REMARK    6  A    between atoms: N_10  and  C_36
REMARK    7  A    between atoms: C_11  and  C_14
REMARK    8  A    between atoms: C_14  and  C_18
REMARK    9  A    between atoms: C_18  and  C_24
REMARK   10  A    between atoms: C_19  and  C_21
REMARK   11  A    between atoms: C_25  and  C_27
REMARK   12  A    between atoms: C_26  and  C_28
REMARK                            x       y       z     vdW  Elec       q    Type
REMARK                         _______ _______ _______ _____ _____    ______ ____
ROOT
ATOM      3  O   UNL     1      16.273   7.459   4.157  0.00  0.00    -0.273 OA
ATOM      4  O   UNL     1      10.359   7.547   7.601  0.00  0.00    -0.270 OA
ATOM      7  N   UNL     1      14.457   8.569   5.097  0.00  0.00    -0.285 N 
ATOM      8  N   UNL     1      12.344   8.623   7.000  0.00  0.00    -0.294 N 
ATOM     19  C   UNL     1      13.788   7.317   5.479  0.00  0.00    +0.179 C 
ATOM     20  C   UNL     1      13.106   7.386   6.845  0.00  0.00    +0.140 C 
ATOM     22  C   UNL     1      13.714   9.817   5.357  0.00  0.00    +0.127 C 
ATOM     23  C   UNL     1      13.124   9.839   6.761  0.00  0.00    +0.127 C 
ATOM     25  C   UNL     1      15.653   8.503   4.374  0.00  0.00    +0.242 C 
ATOM     26  C   UNL     1      11.008   8.572   7.400  0.00  0.00    +0.247 C 
ENDROOT
BRANCH  26  28
ATOM     28  C   UNL     1      10.293   9.841   7.587  0.00  0.00    +0.037 A 
ATOM     29  C   UNL     1       9.693  10.471   6.498  0.00  0.00    +0.015 A 
ATOM     30  C   UNL     1      10.215  10.417   8.856  0.00  0.00    +0.015 A 
ATOM     31  C   UNL     1       9.013  11.676   6.675  0.00  0.00    +0.024 A 
ATOM     32  C   UNL     1       9.536  11.622   9.035  0.00  0.00    +0.024 A 
ATOM     33  C   UNL     1       8.935  12.252   7.944  0.00  0.00    +0.029 A 
BRANCH  33  10
ATOM     10  N   UNL     1       8.247  13.470   8.125  0.00  0.00    -0.336 N 
ATOM     35  C   UNL     1       7.484  13.708   9.335  0.00  0.00    +0.129 C 
ATOM     36  C   UNL     1       8.305  14.504   7.111  0.00  0.00    +0.129 C 
ENDBRANCH  33  10
ENDBRANCH  26  28
BRANCH  19  21
ATOM      1  O   UNL     1      12.942   7.453   3.249  0.00  0.00    -0.274 OA
ATOM      6  N   UNL     1      11.764   6.212   4.826  0.00  0.00    -0.302 N 
ATOM     21  C   UNL     1      12.806   7.009   4.385  0.00  0.00    +0.236 C 
ATOM     37  H   UNL     1      11.717   5.955   5.807  0.00  0.00    +0.150 HD
BRANCH   6  18
ATOM     18  C   UNL     1      10.674   5.791   3.973  0.00  0.00    +0.159 C 
BRANCH  18  24
ATOM      2  O   UNL     1       8.675   7.163   4.138  0.00  0.00    -0.274 OA
ATOM      9  N   UNL     1       9.042   5.563   5.745  0.00  0.00    -0.328 N 
ATOM     24  C   UNL     1       9.363   6.253   4.595  0.00  0.00    +0.231 C 
ATOM     38  H   UNL     1       8.195   5.779   6.261  0.00  0.00    +0.145 HD
ATOM     39  H   UNL     1       9.629   4.826   6.122  0.00  0.00    +0.145 HD
ENDBRANCH  18  24
BRANCH  18  14
ATOM     14  C   UNL     1      10.703   4.285   3.697  0.00  0.00    +0.035 C 
BRANCH  14  11
ATOM     11  C   UNL     1      10.975   3.920   2.239  0.00  0.00    -0.009 C 
ATOM     12  C   UNL     1      12.483   3.793   1.984  0.00  0.00    +0.003 C 
ATOM     13  C   UNL     1      10.345   4.952   1.295  0.00  0.00    +0.003 C 
ATOM     15  C   UNL     1      12.783   3.481   0.520  0.00  0.00    +0.000 C 
ATOM     16  C   UNL     1      10.649   4.638  -0.168  0.00  0.00    +0.000 C 
ATOM     17  C   UNL     1      12.149   4.505  -0.416  0.00  0.00    +0.000 C 
ENDBRANCH  14  11
ENDBRANCH  18  14
ENDBRANCH   6  18
ENDBRANCH  19  21
BRANCH  25  27
ATOM     27  C   UNL     1      16.194   9.806   3.843  0.00  0.00    +0.255 C 
BRANCH  27   5
ATOM      5  O   UNL     1      17.485   9.956   4.385  0.00  0.00    -0.374 OA
ATOM     34  C   UNL     1      17.451  10.465   5.716  0.00  0.00    +0.194 C 
ENDBRANCH  27   5
ENDBRANCH  25  27
TORSDOF 9
ENDMDL
MODEL 9
REMARK VINA RESULT:      -5.2     25.200     28.241
REMARK  Name = 7662574
REMARK  12 active torsions:
REMARK  status: ('A' for Active; 'I' for Inactive)
REMARK    1  A    between atoms: O_5  and  C_27
REMARK    2  A    between atoms: O_5  and  C_34
REMARK    3  A    between atoms: N_6  and  C_18
REMARK    4  A    between atoms: N_10  and  C_33
REMARK    5  A    between atoms: N_10  and  C_35
REMARK    6  A    between atoms: N_10  and  C_36
REMARK    7  A    between atoms: C_11  and  C_14
REMARK    8  A    between atoms: C_14  and  C_18
REMARK    9  A    between atoms: C_18  and  C_24
REMARK   10  A    between atoms: C_19  and  C_21
REMARK   11  A    between atoms: C_25  and  C_27
REMARK   12  A    between atoms: C_26  and  C_28
REMARK                            x       y       z     vdW  Elec       q    Type
REMARK                         _______ _______ _______ _____ _____    ______ ____
ROOT
ATOM      3  O   UNL     1      16.105   8.494   4.031  0.00  0.00    -0.273 OA
ATOM      4  O   UNL     1       9.680   6.139   4.155  0.00  0.00    -0.270 OA
ATOM      7  N   UNL     1      13.817   8.742   3.689  0.00  0.00    -0.285 N 
ATOM      8  N   UNL     1      11.155   7.946   4.296  0.00  0.00    -0.294 N 
ATOM     19  C   UNL     1      13.535   7.339   4.023  0.00  0.00    +0.179 C 
ATOM     20  C   UNL     1      12.257   7.156   4.841  0.00  0.00    +0.140 C 
ATOM     22  C   UNL     1      12.671   9.554   3.238  0.00  0.00    +0.127 C 
ATOM     23  C   UNL     1      11.460   9.370   4.143  0.00  0.00    +0.127 C 
ATOM     25  C   UNL     1      15.147   9.174   3.653  0.00  0.00    +0.242 C 
ATOM     26  C   UNL     1       9.929   7.336   4.023  0.00  0.00    +0.247 C 
ENDROOT
BRANCH  26  28
ATOM     28  C   UNL     1       8.836   8.177   3.518  0.00  0.00    +0.037 A 
ATOM     29  C   UNL     1       8.719   8.421   2.150  0.00  0.00    +0.015 A 
ATOM     30  C   UNL     1       7.916   8.731   4.407  0.00  0.00    +0.015 A 
ATOM     31  C   UNL     1       7.680   9.219   1.670  0.00  0.00    +0.024 A 
ATOM     32  C   UNL     1       6.876   9.529   3.929  0.00  0.00    +0.024 A 
ATOM     33  C   UNL     1       6.759   9.773   2.560  0.00  0.00    +0.029 A 
BRANCH  33  10
ATOM     10  N   UNL     1       5.707  10.579   2.076  0.00  0.00    -0.336 N 
ATOM     35  C   UNL     1       5.819  11.234   0.787  0.00  0.00    +0.129 C 
ATOM     36  C   UNL     1       4.496  10.751   2.853  0.00  0.00    +0.129 C 
ENDBRANCH  33  10
ENDBRANCH  26  28
BRANCH  19  21
ATOM      1  O   UNL     1      14.058   6.992   1.718  0.00  0.00    -0.274 OA
ATOM      6  N   UNL     1      12.667   5.470   2.799  0.00  0.00    -0.302 N 
ATOM     21  C   UNL     1      13.468   6.596   2.720  0.00  0.00    +0.236 C 
ATOM     37  H   UNL     1      12.173   5.273   3.664  0.00  0.00    +0.150 HD
BRANCH   6  18
ATOM     18  C   UNL     1      12.421   4.595   1.675  0.00  0.00    +0.159 C 
BRANCH  18  24
ATOM      2  O   UNL     1      10.222   3.992   0.835  0.00  0.00    -0.274 OA
ATOM      9  N   UNL     1      10.673   3.660   3.063  0.00  0.00    -0.328 N 
ATOM     24  C   UNL     1      11.002   4.051   1.782  0.00  0.00    +0.231 C 
ATOM     38  H   UNL     1       9.752   3.286   3.271  0.00  0.00    +0.145 HD
ATOM     39  H   UNL     1      11.321   3.733   3.841  0.00  0.00    +0.145 HD
ENDBRANCH  18  24
BRANCH  18  14
ATOM     14  C   UNL     1      13.474   3.488   1.561  0.00  0.00    +0.035 C 
BRANCH  14  11
ATOM     11  C   UNL     1      14.268   3.511   0.255  0.00  0.00    -0.009 C 
ATOM     12  C   UNL     1      15.674   4.080   0.486  0.00  0.00    +0.003 C 
ATOM     13  C   UNL     1      13.522   4.312  -0.819  0.00  0.00    +0.003 C 
ATOM     15  C   UNL     1      16.469   4.162  -0.815  0.00  0.00    +0.000 C 
ATOM     16  C   UNL     1      14.321   4.394  -2.117  0.00  0.00    +0.000 C 
ATOM     17  C   UNL     1      15.721   4.953  -1.883  0.00  0.00    +0.000 C 
ENDBRANCH  14  11
ENDBRANCH  18  14
ENDBRANCH   6  18
ENDBRANCH  19  21
BRANCH  25  27
ATOM     27  C   UNL     1      15.394  10.563   3.120  0.00  0.00    +0.255 C 
BRANCH  27   5
ATOM      5  O   UNL     1      16.178  10.415   1.961  0.00  0.00    -0.374 OA
ATOM     34  C   UNL     1      15.389  10.425   0.774  0.00  0.00    +0.194 C 
ENDBRANCH  27   5
ENDBRANCH  25  27
TORSDOF 9
ENDMDL
MODEL 10
REMARK VINA RESULT:      -5.2     23.367     27.803
REMARK  Name = 7662574
REMARK  12 active torsions:
REMARK  status: ('A' for Active; 'I' for Inactive)
REMARK    1  A    between atoms: O_5  and  C_27
REMARK    2  A    between atoms: O_5  and  C_34
REMARK    3  A    between atoms: N_6  and  C_18
REMARK    4  A    between atoms: N_10  and  C_33
REMARK    5  A    between atoms: N_10  and  C_35
REMARK    6  A    between atoms: N_10  and  C_36
REMARK    7  A    between atoms: C_11  and  C_14
REMARK    8  A    between atoms: C_14  and  C_18
REMARK    9  A    between atoms: C_18  and  C_24
REMARK   10  A    between atoms: C_19  and  C_21
REMARK   11  A    between atoms: C_25  and  C_27
REMARK   12  A    between atoms: C_26  and  C_28
REMARK                            x       y       z     vdW  Elec       q    Type
REMARK                         _______ _______ _______ _____ _____    ______ ____
ROOT
ATOM      3  O   UNL     1       6.482 -10.342  38.373  0.00  0.00    -0.273 OA
ATOM      4  O   UNL     1       6.078  -3.709  36.733  0.00  0.00    -0.270 OA
ATOM      7  N   UNL     1       7.113  -8.117  38.632  0.00  0.00    -0.285 N 
ATOM      8  N   UNL     1       6.505  -5.355  38.337  0.00  0.00    -0.294 N 
ATOM     19  C   UNL     1       6.290  -7.670  37.499  0.00  0.00    +0.179 C 
ATOM     20  C   UNL     1       5.593  -6.332  37.748  0.00  0.00    +0.140 C 
ATOM     22  C   UNL     1       7.951  -7.092  39.281  0.00  0.00    +0.127 C 
ATOM     23  C   UNL     1       7.167  -5.816  39.558  0.00  0.00    +0.127 C 
ATOM     25  C   UNL     1       7.184  -9.485  38.917  0.00  0.00    +0.242 C 
ATOM     26  C   UNL     1       6.638  -4.090  37.759  0.00  0.00    +0.247 C 
ENDROOT
BRANCH  26  28
ATOM     28  C   UNL     1       7.532  -3.124  38.410  0.00  0.00    +0.037 A 
ATOM     29  C   UNL     1       8.876  -3.061  38.044  0.00  0.00    +0.015 A 
ATOM     30  C   UNL     1       7.036  -2.269  39.394  0.00  0.00    +0.015 A 
ATOM     31  C   UNL     1       9.725  -2.143  38.661  0.00  0.00    +0.024 A 
ATOM     32  C   UNL     1       7.885  -1.349  40.012  0.00  0.00    +0.024 A 
ATOM     33  C   UNL     1       9.230  -1.287  39.645  0.00  0.00    +0.029 A 
BRANCH  33  10
ATOM     10  N   UNL     1      10.087  -0.357  40.269  0.00  0.00    -0.336 N 
ATOM     35  C   UNL     1       9.555   0.872  40.825  0.00  0.00    +0.129 C 
ATOM     36  C   UNL     1      11.508  -0.624  40.376  0.00  0.00    +0.129 C 
ENDBRANCH  33  10
ENDBRANCH  26  28
BRANCH  19  21
ATOM      1  O   UNL     1       8.273  -8.206  36.281  0.00  0.00    -0.274 OA
ATOM      6  N   UNL     1       6.704  -6.789  35.309  0.00  0.00    -0.302 N 
ATOM     21  C   UNL     1       7.204  -7.604  36.309  0.00  0.00    +0.236 C 
ATOM     37  H   UNL     1       5.836  -6.285  35.467  0.00  0.00    +0.150 HD
BRANCH   6  18
ATOM     18  C   UNL     1       7.403  -6.540  34.068  0.00  0.00    +0.159 C 
BRANCH  18  24
ATOM      2  O   UNL     1       8.890  -4.622  34.185  0.00  0.00    -0.274 OA
ATOM      9  N   UNL     1       6.668  -4.260  33.728  0.00  0.00    -0.328 N 
ATOM     24  C   UNL     1       7.758  -5.061  33.996  0.00  0.00    +0.231 C 
ATOM     38  H   UNL     1       6.768  -3.252  33.661  0.00  0.00    +0.145 HD
ATOM     39  H   UNL     1       5.735  -4.634  33.593  0.00  0.00    +0.145 HD
ENDBRANCH  18  24
BRANCH  18  14
ATOM     14  C   UNL     1       6.609  -7.020  32.850  0.00  0.00    +0.035 C 
BRANCH  14  11
ATOM     11  C   UNL     1       7.066  -8.368  32.294  0.00  0.00    -0.009 C 
ATOM     12  C   UNL     1       6.689  -8.500  30.813  0.00  0.00    +0.003 C 
ATOM     13  C   UNL     1       6.473  -9.521  33.114  0.00  0.00    +0.003 C 
ATOM     15  C   UNL     1       7.089  -9.861  30.248  0.00  0.00    +0.000 C 
ATOM     16  C   UNL     1       6.872 -10.881  32.545  0.00  0.00    +0.000 C 
ATOM     17  C   UNL     1       6.504 -11.005  31.070  0.00  0.00    +0.000 C 
ENDBRANCH  14  11
ENDBRANCH  18  14
ENDBRANCH   6  18
ENDBRANCH  19  21
BRANCH  25  27
ATOM     27  C   UNL     1       8.187  -9.907  39.961  0.00  0.00    +0.255 C 
BRANCH  27   5
ATOM      5  O   UNL     1       7.459 -10.545  40.982  0.00  0.00    -0.374 OA
ATOM     34  C   UNL     1       6.957  -9.617  41.942  0.00  0.00    +0.194 C 
ENDBRANCH  27   5
ENDBRANCH  25  27
TORSDOF 9
ENDMDL
