REMARK  Name = 25338410
REMARK  5 active torsions:
REMARK  status: ('A' for Active; 'I' for Inactive)
REMARK    1  A    between atoms: N_4  and  C_14
REMARK    2  A    between atoms: N_5  and  C_9
REMARK    3  A    between atoms: C_10  and  C_13
REMARK    4  A    between atoms: C_15  and  C_17
REMARK    5  A    between atoms: C_16  and  C_18
REMARK                            x       y       z     vdW  Elec       q    Type
REMARK                         _______ _______ _______ _____ _____    ______ ____
ROOT
ATOM      4  N   UNL     1      -0.953  -2.888   1.183  0.00  0.00    -0.293 NA
ATOM      9  C   UNL     1      -2.642  -2.202  -0.270  0.00  0.00    +0.089 C 
ATOM     10  C   UNL     1      -0.332  -2.990  -0.152  0.00  0.00    +0.147 C 
ATOM     11  C   UNL     1      -1.381  -2.397  -1.113  0.00  0.00    +0.052 C 
ATOM     12  C   UNL     1      -2.394  -3.049   0.969  0.00  0.00    +0.107 C 
ATOM     14  C   UNL     1      -0.432  -3.862   2.135  0.00  0.00    +0.105 C 
ENDROOT
BRANCH  10  13
ATOM      2  O   UNL     1       2.063  -3.057  -0.632  0.00  0.00    -0.336 OA
ATOM      6  N   UNL     1       1.310  -1.040  -0.016  0.00  0.00    -0.190 NA
ATOM      7  N   UNL     1       3.174  -2.205  -0.649  0.00  0.00    -0.056 NA
ATOM     13  C   UNL     1       1.007  -2.292  -0.250  0.00  0.00    +0.245 A 
ATOM     16  C   UNL     1       2.650  -1.034  -0.275  0.00  0.00    +0.202 A 
BRANCH  16  18
ATOM      1 CL   UNL     1       5.904   3.915   0.235  0.00  0.00    -0.084 Cl
ATOM     18  C   UNL     1       3.436   0.159  -0.150  0.00  0.00    +0.023 A 
ATOM     20  C   UNL     1       2.832   1.353   0.243  0.00  0.00    +0.013 A 
ATOM     21  C   UNL     1       4.803   0.127  -0.425  0.00  0.00    +0.013 A 
ATOM     24  C   UNL     1       3.595   2.515   0.363  0.00  0.00    +0.021 A 
ATOM     25  C   UNL     1       5.566   1.288  -0.306  0.00  0.00    +0.021 A 
ATOM     27  C   UNL     1       4.962   2.482   0.088  0.00  0.00    +0.041 A 
ENDBRANCH  16  18
ENDBRANCH  10  13
BRANCH   9   5
ATOM      3  O   UNL     1      -4.189  -0.278  -1.736  0.00  0.00    -0.269 OA
ATOM      5  N   UNL     1      -2.841  -0.814   0.073  0.00  0.00    -0.306 N 
ATOM     15  C   UNL     1      -3.610   0.041  -0.701  0.00  0.00    +0.263 C 
ATOM     28  H   UNL     1      -2.357  -0.443   0.886  0.00  0.00    +0.149 HD
BRANCH  15  17
ATOM      8  N   UNL     1      -3.015   1.724   0.909  0.00  0.00    -0.250 NA
ATOM     17  C   UNL     1      -3.696   1.446  -0.226  0.00  0.00    +0.125 A 
ATOM     19  C   UNL     1      -4.440   2.378  -0.932  0.00  0.00    +0.033 A 
ATOM     22  C   UNL     1      -4.489   3.678  -0.441  0.00  0.00    +0.004 A 
ATOM     23  C   UNL     1      -3.086   2.998   1.355  0.00  0.00    +0.111 A 
ATOM     26  C   UNL     1      -3.802   4.002   0.723  0.00  0.00    +0.020 A 
ENDBRANCH  15  17
ENDBRANCH   9   5
TORSDOF 4
