MODEL 1
REMARK VINA RESULT:      -6.1      0.000      0.000
REMARK  Name = 51137462
REMARK  8 active torsions:
REMARK  status: ('A' for Active; 'I' for Inactive)
REMARK    1  A    between atoms: O_2  and  C_17
REMARK    2  A    between atoms: O_2  and  C_22
REMARK    3  A    between atoms: N_3  and  C_10
REMARK    4  A    between atoms: C_6  and  C_12
REMARK    5  A    between atoms: C_10  and  C_11
REMARK    6  A    between atoms: C_11  and  C_13
REMARK    7  A    between atoms: C_11  and  C_14
REMARK    8  A    between atoms: C_15  and  C_16
REMARK                            x       y       z     vdW  Elec       q    Type
REMARK                         _______ _______ _______ _____ _____    ______ ____
ROOT
ATOM      1  O   UNL     1      -3.271 -11.471  15.128  0.00  0.00    -0.420 OA
ATOM      4  N   UNL     1      -1.127 -10.881  15.374  0.00  0.00    -0.112 NA
ATOM      5  N   UNL     1      -1.769 -10.670  16.580  0.00  0.00    -0.107 NA
ATOM     12  C   UNL     1      -2.042 -11.349  14.557  0.00  0.00    +0.222 A 
ATOM     15  C   UNL     1      -3.018 -11.028  16.390  0.00  0.00    +0.252 A 
ENDROOT
BRANCH  15  16
ATOM     16  C   UNL     1      -4.134 -11.025  17.290  0.00  0.00    +0.080 A 
ATOM     17  C   UNL     1      -5.297 -10.319  16.986  0.00  0.00    +0.132 A 
ATOM     18  C   UNL     1      -4.045 -11.741  18.484  0.00  0.00    +0.017 A 
ATOM     19  C   UNL     1      -6.372 -10.327  17.876  0.00  0.00    +0.046 A 
ATOM     20  C   UNL     1      -5.119 -11.749  19.375  0.00  0.00    +0.001 A 
ATOM     21  C   UNL     1      -6.282 -11.043  19.070  0.00  0.00    +0.004 A 
BRANCH  17   2
ATOM      2  O   UNL     1      -5.412  -9.610  15.826  0.00  0.00    -0.494 OA
ATOM     22  C   UNL     1      -6.416 -10.033  14.907  0.00  0.00    +0.277 C 
ENDBRANCH  17   2
ENDBRANCH  15  16
BRANCH  12   6
ATOM      3  N   UNL     1      -3.053 -11.732  11.056  0.00  0.00    -0.301 NA
ATOM      6  C   UNL     1      -1.918 -11.757  13.107  0.00  0.00    +0.092 C 
ATOM      7  C   UNL     1      -2.695 -10.835  12.157  0.00  0.00    +0.097 C 
ATOM      8  C   UNL     1      -2.432 -13.171  12.787  0.00  0.00    +0.029 C 
ATOM      9  C   UNL     1      -3.483 -12.971  11.703  0.00  0.00    +0.085 C 
BRANCH   3  10
ATOM     10  C   UNL     1      -4.085 -11.170  10.195  0.00  0.00    +0.087 C 
BRANCH  10  11
ATOM     11  C   UNL     1      -4.308  -9.669  10.450  0.00  0.00    -0.003 C 
ATOM     13  C   UNL     1      -4.017  -8.878   9.172  0.00  0.00    +0.008 C 
ATOM     14  C   UNL     1      -5.728  -9.361  10.934  0.00  0.00    +0.008 C 
ENDBRANCH  10  11
ENDBRANCH   3  10
ENDBRANCH  12   6
TORSDOF 5
ENDMDL
MODEL 2
REMARK VINA RESULT:      -6.0     22.102     24.441
REMARK  Name = 51137462
REMARK  8 active torsions:
REMARK  status: ('A' for Active; 'I' for Inactive)
REMARK    1  A    between atoms: O_2  and  C_17
REMARK    2  A    between atoms: O_2  and  C_22
REMARK    3  A    between atoms: N_3  and  C_10
REMARK    4  A    between atoms: C_6  and  C_12
REMARK    5  A    between atoms: C_10  and  C_11
REMARK    6  A    between atoms: C_11  and  C_13
REMARK    7  A    between atoms: C_11  and  C_14
REMARK    8  A    between atoms: C_15  and  C_16
REMARK                            x       y       z     vdW  Elec       q    Type
REMARK                         _______ _______ _______ _____ _____    ______ ____
ROOT
ATOM      1  O   UNL     1      10.156   4.799   4.686  0.00  0.00    -0.420 OA
ATOM      4  N   UNL     1      11.720   6.158   3.843  0.00  0.00    -0.112 NA
ATOM      5  N   UNL     1      11.563   6.466   5.181  0.00  0.00    -0.107 NA
ATOM     12  C   UNL     1      10.880   5.179   3.598  0.00  0.00    +0.222 A 
ATOM     15  C   UNL     1      10.640   5.648   5.633  0.00  0.00    +0.252 A 
ENDROOT
BRANCH  15  16
ATOM     16  C   UNL     1      10.076   5.515   6.945  0.00  0.00    +0.080 A 
ATOM     17  C   UNL     1       9.508   6.609   7.594  0.00  0.00    +0.132 A 
ATOM     18  C   UNL     1      10.102   4.268   7.570  0.00  0.00    +0.017 A 
ATOM     19  C   UNL     1       8.965   6.459   8.871  0.00  0.00    +0.046 A 
ATOM     20  C   UNL     1       9.561   4.117   8.847  0.00  0.00    +0.001 A 
ATOM     21  C   UNL     1       8.992   5.212   9.497  0.00  0.00    +0.004 A 
BRANCH  17   2
ATOM      2  O   UNL     1       9.468   7.840   7.006  0.00  0.00    -0.494 OA
ATOM     22  C   UNL     1       9.956   8.938   7.772  0.00  0.00    +0.277 C 
ENDBRANCH  17   2
ENDBRANCH  15  16
BRANCH  12   6
ATOM      3  N   UNL     1      11.628   3.738   0.314  0.00  0.00    -0.301 NA
ATOM      6  C   UNL     1      10.614   4.440   2.307  0.00  0.00    +0.092 C 
ATOM      7  C   UNL     1      11.856   3.724   1.760  0.00  0.00    +0.097 C 
ATOM      8  C   UNL     1      10.129   5.324   1.145  0.00  0.00    +0.029 C 
ATOM      9  C   UNL     1      11.130   5.083   0.023  0.00  0.00    +0.085 C 
BRANCH   3  10
ATOM     10  C   UNL     1      12.832   3.418  -0.441  0.00  0.00    +0.087 C 
BRANCH  10  11
ATOM     11  C   UNL     1      12.659   3.659  -1.950  0.00  0.00    -0.003 C 
ATOM     13  C   UNL     1      13.976   4.165  -2.547  0.00  0.00    +0.008 C 
ATOM     14  C   UNL     1      12.204   2.403  -2.697  0.00  0.00    +0.008 C 
ENDBRANCH  10  11
ENDBRANCH   3  10
ENDBRANCH  12   6
TORSDOF 5
ENDMDL
MODEL 3
REMARK VINA RESULT:      -5.9     27.243     28.689
REMARK  Name = 51137462
REMARK  8 active torsions:
REMARK  status: ('A' for Active; 'I' for Inactive)
REMARK    1  A    between atoms: O_2  and  C_17
REMARK    2  A    between atoms: O_2  and  C_22
REMARK    3  A    between atoms: N_3  and  C_10
REMARK    4  A    between atoms: C_6  and  C_12
REMARK    5  A    between atoms: C_10  and  C_11
REMARK    6  A    between atoms: C_11  and  C_13
REMARK    7  A    between atoms: C_11  and  C_14
REMARK    8  A    between atoms: C_15  and  C_16
REMARK                            x       y       z     vdW  Elec       q    Type
REMARK                         _______ _______ _______ _____ _____    ______ ____
ROOT
ATOM      1  O   UNL     1      16.864   7.125  20.376  0.00  0.00    -0.420 OA
ATOM      4  N   UNL     1      17.744   5.663  18.930  0.00  0.00    -0.112 NA
ATOM      5  N   UNL     1      16.379   5.701  18.721  0.00  0.00    -0.107 NA
ATOM     12  C   UNL     1      17.982   6.510  19.905  0.00  0.00    +0.222 A 
ATOM     15  C   UNL     1      15.906   6.568  19.587  0.00  0.00    +0.252 A 
ENDROOT
BRANCH  15  16
ATOM     16  C   UNL     1      14.562   7.009  19.823  0.00  0.00    +0.080 A 
ATOM     17  C   UNL     1      13.753   7.437  18.771  0.00  0.00    +0.132 A 
ATOM     18  C   UNL     1      14.066   7.005  21.127  0.00  0.00    +0.017 A 
ATOM     19  C   UNL     1      12.449   7.863  19.022  0.00  0.00    +0.046 A 
ATOM     20  C   UNL     1      12.762   7.432  21.379  0.00  0.00    +0.001 A 
ATOM     21  C   UNL     1      11.954   7.860  20.327  0.00  0.00    +0.004 A 
BRANCH  17   2
ATOM      2  O   UNL     1      14.212   7.451  17.486  0.00  0.00    -0.494 OA
ATOM     22  C   UNL     1      14.063   8.669  16.760  0.00  0.00    +0.277 C 
ENDBRANCH  17   2
ENDBRANCH  15  16
BRANCH  12   6
ATOM      3  N   UNL     1      21.028   6.029  21.884  0.00  0.00    -0.301 NA
ATOM      6  C   UNL     1      19.295   6.882  20.557  0.00  0.00    +0.092 C 
ATOM      7  C   UNL     1      20.258   5.694  20.685  0.00  0.00    +0.097 C 
ATOM      8  C   UNL     1      19.171   7.441  21.984  0.00  0.00    +0.029 C 
ATOM      9  C   UNL     1      20.041   6.530  22.840  0.00  0.00    +0.085 C 
BRANCH   3  10
ATOM     10  C   UNL     1      21.774   4.890  22.401  0.00  0.00    +0.087 C 
BRANCH  10  11
ATOM     11  C   UNL     1      22.625   4.206  21.319  0.00  0.00    -0.003 C 
ATOM     13  C   UNL     1      23.875   5.044  21.038  0.00  0.00    +0.008 C 
ATOM     14  C   UNL     1      23.037   2.783  21.708  0.00  0.00    +0.008 C 
ENDBRANCH  10  11
ENDBRANCH   3  10
ENDBRANCH  12   6
TORSDOF 5
ENDMDL
MODEL 4
REMARK VINA RESULT:      -5.8      1.273      2.139
REMARK  Name = 51137462
REMARK  8 active torsions:
REMARK  status: ('A' for Active; 'I' for Inactive)
REMARK    1  A    between atoms: O_2  and  C_17
REMARK    2  A    between atoms: O_2  and  C_22
REMARK    3  A    between atoms: N_3  and  C_10
REMARK    4  A    between atoms: C_6  and  C_12
REMARK    5  A    between atoms: C_10  and  C_11
REMARK    6  A    between atoms: C_11  and  C_13
REMARK    7  A    between atoms: C_11  and  C_14
REMARK    8  A    between atoms: C_15  and  C_16
REMARK                            x       y       z     vdW  Elec       q    Type
REMARK                         _______ _______ _______ _____ _____    ______ ____
ROOT
ATOM      1  O   UNL     1      -3.957 -10.694  14.670  0.00  0.00    -0.420 OA
ATOM      4  N   UNL     1      -1.794 -10.703  15.242  0.00  0.00    -0.112 NA
ATOM      5  N   UNL     1      -2.543 -10.600  16.400  0.00  0.00    -0.107 NA
ATOM     12  C   UNL     1      -2.662 -10.756  14.258  0.00  0.00    +0.222 A 
ATOM     15  C   UNL     1      -3.798 -10.599  16.018  0.00  0.00    +0.252 A 
ENDROOT
BRANCH  15  16
ATOM     16  C   UNL     1      -5.005 -10.513  16.788  0.00  0.00    +0.080 A 
ATOM     17  C   UNL     1      -5.235 -11.379  17.857  0.00  0.00    +0.132 A 
ATOM     18  C   UNL     1      -5.956  -9.548  16.455  0.00  0.00    +0.017 A 
ATOM     19  C   UNL     1      -6.416 -11.281  18.593  0.00  0.00    +0.046 A 
ATOM     20  C   UNL     1      -7.137  -9.450  17.191  0.00  0.00    +0.001 A 
ATOM     21  C   UNL     1      -7.367 -10.316  18.259  0.00  0.00    +0.004 A 
BRANCH  17   2
ATOM      2  O   UNL     1      -4.323 -12.333  18.205  0.00  0.00    -0.494 OA
ATOM     22  C   UNL     1      -3.663 -12.169  19.457  0.00  0.00    +0.277 C 
ENDBRANCH  17   2
ENDBRANCH  15  16
BRANCH  12   6
ATOM      3  N   UNL     1      -3.524 -11.018  10.706  0.00  0.00    -0.301 NA
ATOM      6  C   UNL     1      -2.422 -10.870  12.769  0.00  0.00    +0.092 C 
ATOM      7  C   UNL     1      -3.530 -10.217  11.932  0.00  0.00    +0.097 C 
ATOM      8  C   UNL     1      -2.329 -12.311  12.239  0.00  0.00    +0.029 C 
ATOM      9  C   UNL     1      -3.399 -12.403  11.159  0.00  0.00    +0.085 C 
BRANCH   3  10
ATOM     10  C   UNL     1      -4.717 -10.805   9.898  0.00  0.00    +0.087 C 
BRANCH  10  11
ATOM     11  C   UNL     1      -4.589  -9.582   8.974  0.00  0.00    -0.003 C 
ATOM     13  C   UNL     1      -5.183  -9.909   7.600  0.00  0.00    +0.008 C 
ATOM     14  C   UNL     1      -5.272  -8.338   9.547  0.00  0.00    +0.008 C 
ENDBRANCH  10  11
ENDBRANCH   3  10
ENDBRANCH  12   6
TORSDOF 5
ENDMDL
MODEL 5
REMARK VINA RESULT:      -5.8     23.256     26.499
REMARK  Name = 51137462
REMARK  8 active torsions:
REMARK  status: ('A' for Active; 'I' for Inactive)
REMARK    1  A    between atoms: O_2  and  C_17
REMARK    2  A    between atoms: O_2  and  C_22
REMARK    3  A    between atoms: N_3  and  C_10
REMARK    4  A    between atoms: C_6  and  C_12
REMARK    5  A    between atoms: C_10  and  C_11
REMARK    6  A    between atoms: C_11  and  C_13
REMARK    7  A    between atoms: C_11  and  C_14
REMARK    8  A    between atoms: C_15  and  C_16
REMARK                            x       y       z     vdW  Elec       q    Type
REMARK                         _______ _______ _______ _____ _____    ______ ____
ROOT
ATOM      1  O   UNL     1     -13.986   5.822  32.511  0.00  0.00    -0.420 OA
ATOM      4  N   UNL     1     -14.121   5.464  34.715  0.00  0.00    -0.112 NA
ATOM      5  N   UNL     1     -13.667   6.755  34.518  0.00  0.00    -0.107 NA
ATOM     12  C   UNL     1     -14.293   4.958  33.515  0.00  0.00    +0.222 A 
ATOM     15  C   UNL     1     -13.603   6.920  33.218  0.00  0.00    +0.252 A 
ENDROOT
BRANCH  15  16
ATOM     16  C   UNL     1     -13.201   8.058  32.443  0.00  0.00    +0.080 A 
ATOM     17  C   UNL     1     -14.143   8.970  31.967  0.00  0.00    +0.132 A 
ATOM     18  C   UNL     1     -11.847   8.246  32.167  0.00  0.00    +0.017 A 
ATOM     19  C   UNL     1     -13.731  10.069  31.214  0.00  0.00    +0.046 A 
ATOM     20  C   UNL     1     -11.435   9.346  31.413  0.00  0.00    +0.001 A 
ATOM     21  C   UNL     1     -12.377  10.257  30.938  0.00  0.00    +0.004 A 
BRANCH  17   2
ATOM      2  O   UNL     1     -15.474   8.811  32.222  0.00  0.00    -0.494 OA
ATOM     22  C   UNL     1     -16.078   9.747  33.110  0.00  0.00    +0.277 C 
ENDBRANCH  17   2
ENDBRANCH  15  16
BRANCH  12   6
ATOM      3  N   UNL     1     -14.599   1.964  31.425  0.00  0.00    -0.301 NA
ATOM      6  C   UNL     1     -14.773   3.582  33.112  0.00  0.00    +0.092 C 
ATOM      7  C   UNL     1     -13.751   2.818  32.260  0.00  0.00    +0.097 C 
ATOM      8  C   UNL     1     -16.066   3.568  32.278  0.00  0.00    +0.029 C 
ATOM      9  C   UNL     1     -15.700   2.827  30.998  0.00  0.00    +0.085 C 
BRANCH   3  10
ATOM     10  C   UNL     1     -13.873   1.393  30.298  0.00  0.00    +0.087 C 
BRANCH  10  11
ATOM     11  C   UNL     1     -14.412   0.011  29.894  0.00  0.00    -0.003 C 
ATOM     13  C   UNL     1     -13.246  -0.907  29.514  0.00  0.00    +0.008 C 
ATOM     14  C   UNL     1     -15.241  -0.643  31.003  0.00  0.00    +0.008 C 
ENDBRANCH  10  11
ENDBRANCH   3  10
ENDBRANCH  12   6
TORSDOF 5
ENDMDL
MODEL 6
REMARK VINA RESULT:      -5.8     26.988     27.956
REMARK  Name = 51137462
REMARK  8 active torsions:
REMARK  status: ('A' for Active; 'I' for Inactive)
REMARK    1  A    between atoms: O_2  and  C_17
REMARK    2  A    between atoms: O_2  and  C_22
REMARK    3  A    between atoms: N_3  and  C_10
REMARK    4  A    between atoms: C_6  and  C_12
REMARK    5  A    between atoms: C_10  and  C_11
REMARK    6  A    between atoms: C_11  and  C_13
REMARK    7  A    between atoms: C_11  and  C_14
REMARK    8  A    between atoms: C_15  and  C_16
REMARK                            x       y       z     vdW  Elec       q    Type
REMARK                         _______ _______ _______ _____ _____    ______ ____
ROOT
ATOM      1  O   UNL     1      13.235   9.885  17.592  0.00  0.00    -0.420 OA
ATOM      4  N   UNL     1      12.677   9.095  15.575  0.00  0.00    -0.112 NA
ATOM      5  N   UNL     1      12.169   8.232  16.527  0.00  0.00    -0.107 NA
ATOM     12  C   UNL     1      13.291  10.045  16.242  0.00  0.00    +0.222 A 
ATOM     15  C   UNL     1      12.518   8.732  17.689  0.00  0.00    +0.252 A 
ENDROOT
BRANCH  15  16
ATOM     16  C   UNL     1      12.265   8.259  19.020  0.00  0.00    +0.080 A 
ATOM     17  C   UNL     1      13.178   7.431  19.671  0.00  0.00    +0.132 A 
ATOM     18  C   UNL     1      11.086   8.640  19.662  0.00  0.00    +0.017 A 
ATOM     19  C   UNL     1      12.913   6.981  20.964  0.00  0.00    +0.046 A 
ATOM     20  C   UNL     1      10.820   8.189  20.955  0.00  0.00    +0.001 A 
ATOM     21  C   UNL     1      11.733   7.361  21.606  0.00  0.00    +0.004 A 
BRANCH  17   2
ATOM      2  O   UNL     1      14.338   7.043  19.067  0.00  0.00    -0.494 OA
ATOM     22  C   UNL     1      15.371   6.544  19.913  0.00  0.00    +0.277 C 
ENDBRANCH  17   2
ENDBRANCH  15  16
BRANCH  12   6
ATOM      3  N   UNL     1      16.156  12.012  15.079  0.00  0.00    -0.301 NA
ATOM      6  C   UNL     1      14.033  11.257  15.727  0.00  0.00    +0.092 C 
ATOM      7  C   UNL     1      15.238  10.893  14.850  0.00  0.00    +0.097 C 
ATOM      8  C   UNL     1      14.608  12.175  16.820  0.00  0.00    +0.029 C 
ATOM      9  C   UNL     1      16.099  12.258  16.520  0.00  0.00    +0.085 C 
BRANCH   3  10
ATOM     10  C   UNL     1      17.507  11.724  14.619  0.00  0.00    +0.087 C 
BRANCH  10  11
ATOM     11  C   UNL     1      17.975  12.701  13.527  0.00  0.00    -0.003 C 
ATOM     13  C   UNL     1      17.214  12.425  12.227  0.00  0.00    +0.008 C 
ATOM     14  C   UNL     1      17.789  14.166  13.931  0.00  0.00    +0.008 C 
ENDBRANCH  10  11
ENDBRANCH   3  10
ENDBRANCH  12   6
TORSDOF 5
ENDMDL
MODEL 7
REMARK VINA RESULT:      -5.6     27.572     28.877
REMARK  Name = 51137462
REMARK  8 active torsions:
REMARK  status: ('A' for Active; 'I' for Inactive)
REMARK    1  A    between atoms: O_2  and  C_17
REMARK    2  A    between atoms: O_2  and  C_22
REMARK    3  A    between atoms: N_3  and  C_10
REMARK    4  A    between atoms: C_6  and  C_12
REMARK    5  A    between atoms: C_10  and  C_11
REMARK    6  A    between atoms: C_11  and  C_13
REMARK    7  A    between atoms: C_11  and  C_14
REMARK    8  A    between atoms: C_15  and  C_16
REMARK                            x       y       z     vdW  Elec       q    Type
REMARK                         _______ _______ _______ _____ _____    ______ ____
ROOT
ATOM      1  O   UNL     1      16.051   7.179  20.613  0.00  0.00    -0.420 OA
ATOM      4  N   UNL     1      17.149   5.919  19.127  0.00  0.00    -0.112 NA
ATOM      5  N   UNL     1      15.876   6.144  18.638  0.00  0.00    -0.107 NA
ATOM     12  C   UNL     1      17.206   6.542  20.282  0.00  0.00    +0.222 A 
ATOM     15  C   UNL     1      15.271   6.884  19.538  0.00  0.00    +0.252 A 
ENDROOT
BRANCH  15  16
ATOM     16  C   UNL     1      13.940   7.419  19.560  0.00  0.00    +0.080 A 
ATOM     17  C   UNL     1      13.540   8.383  18.636  0.00  0.00    +0.132 A 
ATOM     18  C   UNL     1      13.042   6.961  20.525  0.00  0.00    +0.017 A 
ATOM     19  C   UNL     1      12.242   8.891  18.675  0.00  0.00    +0.046 A 
ATOM     20  C   UNL     1      11.743   7.470  20.565  0.00  0.00    +0.001 A 
ATOM     21  C   UNL     1      11.343   8.434  19.641  0.00  0.00    +0.004 A 
BRANCH  17   2
ATOM      2  O   UNL     1      14.397   8.848  17.682  0.00  0.00    -0.494 OA
ATOM     22  C   UNL     1      13.966   8.759  16.327  0.00  0.00    +0.277 C 
ENDBRANCH  17   2
ENDBRANCH  15  16
BRANCH  12   6
ATOM      3  N   UNL     1      20.043   8.077  22.020  0.00  0.00    -0.301 NA
ATOM      6  C   UNL     1      18.350   6.643  21.265  0.00  0.00    +0.092 C 
ATOM      7  C   UNL     1      18.605   8.079  21.741  0.00  0.00    +0.097 C 
ATOM      8  C   UNL     1      19.708   6.161  20.728  0.00  0.00    +0.029 C 
ATOM      9  C   UNL     1      20.644   7.350  20.902  0.00  0.00    +0.085 C 
BRANCH   3  10
ATOM     10  C   UNL     1      20.583   9.423  22.160  0.00  0.00    +0.087 C 
BRANCH  10  11
ATOM     11  C   UNL     1      19.567  10.507  21.763  0.00  0.00    -0.003 C 
ATOM     13  C   UNL     1      19.338  11.458  22.941  0.00  0.00    +0.008 C 
ATOM     14  C   UNL     1      20.012  11.306  20.535  0.00  0.00    +0.008 C 
ENDBRANCH  10  11
ENDBRANCH   3  10
ENDBRANCH  12   6
TORSDOF 5
ENDMDL
MODEL 8
REMARK VINA RESULT:      -5.5      2.833      4.855
REMARK  Name = 51137462
REMARK  8 active torsions:
REMARK  status: ('A' for Active; 'I' for Inactive)
REMARK    1  A    between atoms: O_2  and  C_17
REMARK    2  A    between atoms: O_2  and  C_22
REMARK    3  A    between atoms: N_3  and  C_10
REMARK    4  A    between atoms: C_6  and  C_12
REMARK    5  A    between atoms: C_10  and  C_11
REMARK    6  A    between atoms: C_11  and  C_13
REMARK    7  A    between atoms: C_11  and  C_14
REMARK    8  A    between atoms: C_15  and  C_16
REMARK                            x       y       z     vdW  Elec       q    Type
REMARK                         _______ _______ _______ _____ _____    ______ ____
ROOT
ATOM      1  O   UNL     1      -3.911  -9.778  11.624  0.00  0.00    -0.420 OA
ATOM      4  N   UNL     1      -3.641 -11.444  10.155  0.00  0.00    -0.112 NA
ATOM      5  N   UNL     1      -3.187 -11.881  11.386  0.00  0.00    -0.107 NA
ATOM     12  C   UNL     1      -4.054 -10.211  10.342  0.00  0.00    +0.222 A 
ATOM     15  C   UNL     1      -3.365 -10.877  12.212  0.00  0.00    +0.252 A 
ENDROOT
BRANCH  15  16
ATOM     16  C   UNL     1      -3.076 -10.762  13.613  0.00  0.00    +0.080 A 
ATOM     17  C   UNL     1      -4.083 -10.914  14.566  0.00  0.00    +0.132 A 
ATOM     18  C   UNL     1      -1.768 -10.495  14.016  0.00  0.00    +0.017 A 
ATOM     19  C   UNL     1      -3.782 -10.797  15.923  0.00  0.00    +0.046 A 
ATOM     20  C   UNL     1      -1.467 -10.378  15.374  0.00  0.00    +0.001 A 
ATOM     21  C   UNL     1      -2.474 -10.529  16.326  0.00  0.00    +0.004 A 
BRANCH  17   2
ATOM      2  O   UNL     1      -5.371 -11.175  14.200  0.00  0.00    -0.494 OA
ATOM     22  C   UNL     1      -6.315 -10.120  14.360  0.00  0.00    +0.277 C 
ENDBRANCH  17   2
ENDBRANCH  15  16
BRANCH  12   6
ATOM      3  N   UNL     1      -6.679  -8.309   8.634  0.00  0.00    -0.301 NA
ATOM      6  C   UNL     1      -4.649  -9.236   9.353  0.00  0.00    +0.092 C 
ATOM      7  C   UNL     1      -5.932  -8.569   9.867  0.00  0.00    +0.097 C 
ATOM      8  C   UNL     1      -5.043  -9.849   7.998  0.00  0.00    +0.029 C 
ATOM      9  C   UNL     1      -6.522  -9.523   7.834  0.00  0.00    +0.085 C 
BRANCH   3  10
ATOM     10  C   UNL     1      -8.077  -7.990   8.889  0.00  0.00    +0.087 C 
BRANCH  10  11
ATOM     11  C   UNL     1      -8.516  -6.686   8.201  0.00  0.00    -0.003 C 
ATOM     13  C   UNL     1      -8.646  -6.915   6.693  0.00  0.00    +0.008 C 
ATOM     14  C   UNL     1      -9.837  -6.146   8.756  0.00  0.00    +0.008 C 
ENDBRANCH  10  11
ENDBRANCH   3  10
ENDBRANCH  12   6
TORSDOF 5
ENDMDL
MODEL 9
REMARK VINA RESULT:      -5.5     20.231     21.360
REMARK  Name = 51137462
REMARK  8 active torsions:
REMARK  status: ('A' for Active; 'I' for Inactive)
REMARK    1  A    between atoms: O_2  and  C_17
REMARK    2  A    between atoms: O_2  and  C_22
REMARK    3  A    between atoms: N_3  and  C_10
REMARK    4  A    between atoms: C_6  and  C_12
REMARK    5  A    between atoms: C_10  and  C_11
REMARK    6  A    between atoms: C_11  and  C_13
REMARK    7  A    between atoms: C_11  and  C_14
REMARK    8  A    between atoms: C_15  and  C_16
REMARK                            x       y       z     vdW  Elec       q    Type
REMARK                         _______ _______ _______ _____ _____    ______ ____
ROOT
ATOM      1  O   UNL     1     -11.571   8.580  17.274  0.00  0.00    -0.420 OA
ATOM      4  N   UNL     1      -9.741   9.865  17.215  0.00  0.00    -0.112 NA
ATOM      5  N   UNL     1     -10.026   9.587  18.539  0.00  0.00    -0.107 NA
ATOM     12  C   UNL     1     -10.668   9.257  16.513  0.00  0.00    +0.222 A 
ATOM     15  C   UNL     1     -11.102   8.835  18.525  0.00  0.00    +0.252 A 
ENDROOT
BRANCH  15  16
ATOM     16  C   UNL     1     -11.843   8.252  19.606  0.00  0.00    +0.080 A 
ATOM     17  C   UNL     1     -12.843   8.972  20.259  0.00  0.00    +0.132 A 
ATOM     18  C   UNL     1     -11.553   6.945  20.000  0.00  0.00    +0.017 A 
ATOM     19  C   UNL     1     -13.551   8.386  21.309  0.00  0.00    +0.046 A 
ATOM     20  C   UNL     1     -12.261   6.360  21.050  0.00  0.00    +0.001 A 
ATOM     21  C   UNL     1     -13.260   7.080  21.703  0.00  0.00    +0.004 A 
BRANCH  17   2
ATOM      2  O   UNL     1     -13.148  10.250  19.895  0.00  0.00    -0.494 OA
ATOM     22  C   UNL     1     -12.716  11.291  20.767  0.00  0.00    +0.277 C 
ENDBRANCH  17   2
ENDBRANCH  15  16
BRANCH  12   6
ATOM      3  N   UNL     1     -12.407   8.621  13.351  0.00  0.00    -0.301 NA
ATOM      6  C   UNL     1     -10.864   9.209  15.015  0.00  0.00    +0.092 C 
ATOM      7  C   UNL     1     -12.330   9.387  14.597  0.00  0.00    +0.097 C 
ATOM      8  C   UNL     1     -10.424   7.895  14.347  0.00  0.00    +0.029 C 
ATOM      9  C   UNL     1     -11.662   7.391  13.617  0.00  0.00    +0.085 C 
BRANCH   3  10
ATOM     10  C   UNL     1     -13.781   8.360  12.944  0.00  0.00    +0.087 C 
BRANCH  10  11
ATOM     11  C   UNL     1     -14.275   6.977  13.399  0.00  0.00    -0.003 C 
ATOM     13  C   UNL     1     -15.285   7.137  14.539  0.00  0.00    +0.008 C 
ATOM     14  C   UNL     1     -14.909   6.175  12.259  0.00  0.00    +0.008 C 
ENDBRANCH  10  11
ENDBRANCH   3  10
ENDBRANCH  12   6
TORSDOF 5
ENDMDL
MODEL 10
REMARK VINA RESULT:      -5.4     22.330     24.373
REMARK  Name = 51137462
REMARK  8 active torsions:
REMARK  status: ('A' for Active; 'I' for Inactive)
REMARK    1  A    between atoms: O_2  and  C_17
REMARK    2  A    between atoms: O_2  and  C_22
REMARK    3  A    between atoms: N_3  and  C_10
REMARK    4  A    between atoms: C_6  and  C_12
REMARK    5  A    between atoms: C_10  and  C_11
REMARK    6  A    between atoms: C_11  and  C_13
REMARK    7  A    between atoms: C_11  and  C_14
REMARK    8  A    between atoms: C_15  and  C_16
REMARK                            x       y       z     vdW  Elec       q    Type
REMARK                         _______ _______ _______ _____ _____    ______ ____
ROOT
ATOM      1  O   UNL     1      17.356  -5.656  24.881  0.00  0.00    -0.420 OA
ATOM      4  N   UNL     1      18.056  -7.220  23.443  0.00  0.00    -0.112 NA
ATOM      5  N   UNL     1      18.029  -6.009  22.778  0.00  0.00    -0.107 NA
ATOM     12  C   UNL     1      17.656  -6.966  24.667  0.00  0.00    +0.222 A 
ATOM     15  C   UNL     1      17.615  -5.125  23.656  0.00  0.00    +0.252 A 
ENDROOT
BRANCH  15  16
ATOM     16  C   UNL     1      17.398  -3.713  23.524  0.00  0.00    +0.080 A 
ATOM     17  C   UNL     1      18.366  -2.799  23.936  0.00  0.00    +0.132 A 
ATOM     18  C   UNL     1      16.198  -3.260  22.975  0.00  0.00    +0.017 A 
ATOM     19  C   UNL     1      18.135  -1.429  23.800  0.00  0.00    +0.046 A 
ATOM     20  C   UNL     1      15.966  -1.891  22.840  0.00  0.00    +0.001 A 
ATOM     21  C   UNL     1      16.935  -0.976  23.252  0.00  0.00    +0.004 A 
BRANCH  17   2
ATOM      2  O   UNL     1      19.548  -3.214  24.476  0.00  0.00    -0.494 OA
ATOM     22  C   UNL     1      20.382  -2.212  25.053  0.00  0.00    +0.277 C 
ENDBRANCH  17   2
ENDBRANCH  15  16
BRANCH  12   6
ATOM      3  N   UNL     1      16.184  -9.689  26.629  0.00  0.00    -0.301 NA
ATOM      6  C   UNL     1      17.486  -7.907  25.838  0.00  0.00    +0.092 C 
ATOM      7  C   UNL     1      16.917  -9.273  25.431  0.00  0.00    +0.097 C 
ATOM      8  C   UNL     1      16.540  -7.402  26.941  0.00  0.00    +0.029 C 
ATOM      9  C   UNL     1      15.480  -8.487  27.077  0.00  0.00    +0.085 C 
BRANCH   3  10
ATOM     10  C   UNL     1      15.277 -10.798  26.368  0.00  0.00    +0.087 C 
BRANCH  10  11
ATOM     11  C   UNL     1      14.888 -10.901  24.883  0.00  0.00    -0.003 C 
ATOM     13  C   UNL     1      15.119 -12.331  24.386  0.00  0.00    +0.008 C 
ATOM     14  C   UNL     1      13.434 -10.495  24.627  0.00  0.00    +0.008 C 
ENDBRANCH  10  11
ENDBRANCH   3  10
ENDBRANCH  12   6
TORSDOF 5
ENDMDL
