MODEL 1
REMARK VINA RESULT:      -7.1      0.000      0.000
REMARK  Name = 75536799
REMARK  7 active torsions:
REMARK  status: ('A' for Active; 'I' for Inactive)
REMARK    1  A    between atoms: O_2  and  C_9
REMARK    2  A    between atoms: N_4  and  C_8
REMARK    3  A    between atoms: N_4  and  C_13
REMARK    4  A    between atoms: N_5  and  C_12
REMARK    5  A    between atoms: C_10  and  C_12
REMARK    6  A    between atoms: C_13  and  C_14
REMARK    7  A    between atoms: C_15  and  C_18
REMARK                            x       y       z     vdW  Elec       q    Type
REMARK                         _______ _______ _______ _____ _____    ______ ____
ROOT
ATOM      1  O   UNL     1      12.846   6.637  20.981  0.00  0.00    -0.371 OA
ATOM      8  C   UNL     1      10.920   8.012  21.195  0.00  0.00    +0.111 C 
ATOM      9  C   UNL     1      11.590   8.302  19.864  0.00  0.00    +0.164 C 
ATOM     10  C   UNL     1      12.415   7.036  19.669  0.00  0.00    +0.165 C 
ATOM     11  C   UNL     1      12.046   7.331  21.955  0.00  0.00    +0.181 C 
ENDROOT
BRANCH   9   2
ATOM      2  O   UNL     1      10.660   8.490  18.815  0.00  0.00    -0.388 OA
ATOM     26  H   UNL     1       9.764   8.451  19.188  0.00  0.00    +0.210 HD
ENDBRANCH   9   2
BRANCH   8   4
ATOM      4  N   UNL     1      10.421   9.201  21.867  0.00  0.00    -0.305 NA
ATOM     25  H   UNL     1      10.182   8.964  22.829  0.00  0.00    +0.123 HD
BRANCH   4  13
ATOM     13  C   UNL     1      11.427  10.257  21.877  0.00  0.00    +0.118 C 
BRANCH  13  14
ATOM      6  N   UNL     1      10.628  12.013  25.135  0.00  0.00    -0.263 NA
ATOM     14  C   UNL     1      11.081  11.349  22.855  0.00  0.00    -0.015 A 
ATOM     16  C   UNL     1      10.894  12.660  22.428  0.00  0.00    +0.008 A 
ATOM     17  C   UNL     1      10.938  11.081  24.207  0.00  0.00    +0.115 A 
ATOM     19  C   UNL     1      10.573  13.647  23.353  0.00  0.00    +0.020 A 
ATOM     22  C   UNL     1      10.454  13.275  24.683  0.00  0.00    +0.111 A 
ENDBRANCH  13  14
ENDBRANCH   4  13
ENDBRANCH   8   4
BRANCH  10  12
ATOM     12  C   UNL     1      13.622   7.238  18.771  0.00  0.00    +0.138 C 
BRANCH  12   5
ATOM      3  O   UNL     1      16.148   5.892  18.540  0.00  0.00    -0.270 OA
ATOM      5  N   UNL     1      14.805   7.500  19.538  0.00  0.00    -0.309 N 
ATOM     15  C   UNL     1      15.991   6.795  19.358  0.00  0.00    +0.244 C 
ATOM     27  H   UNL     1      14.725   8.190  20.278  0.00  0.00    +0.149 HD
BRANCH  15  18
ATOM      7  N   UNL     1      19.238   7.872  21.932  0.00  0.00    -0.263 NA
ATOM     18  C   UNL     1      17.119   7.170  20.250  0.00  0.00    +0.040 A 
ATOM     20  C   UNL     1      18.164   6.278  20.466  0.00  0.00    +0.033 A 
ATOM     21  C   UNL     1      17.133   8.412  20.874  0.00  0.00    +0.033 A 
ATOM     23  C   UNL     1      19.190   6.674  21.309  0.00  0.00    +0.111 A 
ATOM     24  C   UNL     1      18.206   8.713  21.698  0.00  0.00    +0.111 A 
ENDBRANCH  15  18
ENDBRANCH  12   5
ENDBRANCH  10  12
TORSDOF 7
ENDMDL
MODEL 2
REMARK VINA RESULT:      -7.0      1.838      8.361
REMARK  Name = 75536799
REMARK  7 active torsions:
REMARK  status: ('A' for Active; 'I' for Inactive)
REMARK    1  A    between atoms: O_2  and  C_9
REMARK    2  A    between atoms: N_4  and  C_8
REMARK    3  A    between atoms: N_4  and  C_13
REMARK    4  A    between atoms: N_5  and  C_12
REMARK    5  A    between atoms: C_10  and  C_12
REMARK    6  A    between atoms: C_13  and  C_14
REMARK    7  A    between atoms: C_15  and  C_18
REMARK                            x       y       z     vdW  Elec       q    Type
REMARK                         _______ _______ _______ _____ _____    ______ ____
ROOT
ATOM      1  O   UNL     1      15.803   6.195  19.022  0.00  0.00    -0.371 OA
ATOM      8  C   UNL     1      16.895   6.523  21.106  0.00  0.00    +0.111 C 
ATOM      9  C   UNL     1      15.551   7.228  21.135  0.00  0.00    +0.164 C 
ATOM     10  C   UNL     1      14.814   6.499  20.019  0.00  0.00    +0.165 C 
ATOM     11  C   UNL     1      17.106   6.342  19.612  0.00  0.00    +0.181 C 
ENDROOT
BRANCH   9   2
ATOM      2  O   UNL     1      14.890   7.093  22.378  0.00  0.00    -0.388 OA
ATOM     26  H   UNL     1      13.980   6.796  22.212  0.00  0.00    +0.210 HD
ENDBRANCH   9   2
BRANCH   8   4
ATOM      4  N   UNL     1      17.962   7.278  21.742  0.00  0.00    -0.305 NA
ATOM     25  H   UNL     1      18.162   6.869  22.654  0.00  0.00    +0.123 HD
BRANCH   4  13
ATOM     13  C   UNL     1      19.177   7.249  20.936  0.00  0.00    +0.118 C 
BRANCH  13  14
ATOM      6  N   UNL     1      21.513   5.261  23.155  0.00  0.00    -0.263 NA
ATOM     14  C   UNL     1      20.130   6.178  21.397  0.00  0.00    -0.015 A 
ATOM     16  C   UNL     1      20.513   5.146  20.547  0.00  0.00    +0.008 A 
ATOM     17  C   UNL     1      20.653   6.190  22.680  0.00  0.00    +0.115 A 
ATOM     19  C   UNL     1      21.395   4.172  20.999  0.00  0.00    +0.020 A 
ATOM     22  C   UNL     1      21.862   4.273  22.300  0.00  0.00    +0.111 A 
ENDBRANCH  13  14
ENDBRANCH   4  13
ENDBRANCH   8   4
BRANCH  10  12
ATOM     12  C   UNL     1      13.696   7.321  19.400  0.00  0.00    +0.138 C 
BRANCH  12   5
ATOM      3  O   UNL     1      10.981   8.011  20.026  0.00  0.00    -0.270 OA
ATOM      5  N   UNL     1      13.260   8.359  20.288  0.00  0.00    -0.309 N 
ATOM     15  C   UNL     1      11.916   8.625  20.533  0.00  0.00    +0.244 C 
ATOM     27  H   UNL     1      13.982   8.949  20.688  0.00  0.00    +0.149 HD
BRANCH  15  18
ATOM      7  N   UNL     1      11.082  11.871  23.196  0.00  0.00    -0.263 NA
ATOM     18  C   UNL     1      11.628   9.751  21.458  0.00  0.00    +0.040 A 
ATOM     20  C   UNL     1      11.063   9.504  22.704  0.00  0.00    +0.033 A 
ATOM     21  C   UNL     1      11.921  11.057  21.080  0.00  0.00    +0.033 A 
ATOM     23  C   UNL     1      10.812  10.589  23.528  0.00  0.00    +0.111 A 
ATOM     24  C   UNL     1      11.631  12.073  21.977  0.00  0.00    +0.111 A 
ENDBRANCH  15  18
ENDBRANCH  12   5
ENDBRANCH  10  12
TORSDOF 7
ENDMDL
MODEL 3
REMARK VINA RESULT:      -6.8      1.602      7.182
REMARK  Name = 75536799
REMARK  7 active torsions:
REMARK  status: ('A' for Active; 'I' for Inactive)
REMARK    1  A    between atoms: O_2  and  C_9
REMARK    2  A    between atoms: N_4  and  C_8
REMARK    3  A    between atoms: N_4  and  C_13
REMARK    4  A    between atoms: N_5  and  C_12
REMARK    5  A    between atoms: C_10  and  C_12
REMARK    6  A    between atoms: C_13  and  C_14
REMARK    7  A    between atoms: C_15  and  C_18
REMARK                            x       y       z     vdW  Elec       q    Type
REMARK                         _______ _______ _______ _____ _____    ______ ____
ROOT
ATOM      1  O   UNL     1      13.201   8.272  18.975  0.00  0.00    -0.371 OA
ATOM      8  C   UNL     1      14.277   6.702  20.397  0.00  0.00    +0.111 C 
ATOM      9  C   UNL     1      12.920   7.051  20.981  0.00  0.00    +0.164 C 
ATOM     10  C   UNL     1      12.202   7.592  19.752  0.00  0.00    +0.165 C 
ATOM     11  C   UNL     1      14.499   7.863  19.442  0.00  0.00    +0.181 C 
ENDROOT
BRANCH   9   2
ATOM      2  O   UNL     1      12.256   5.927  21.528  0.00  0.00    -0.388 OA
ATOM     26  H   UNL     1      11.307   6.006  21.332  0.00  0.00    +0.210 HD
ENDBRANCH   9   2
BRANCH   8   4
ATOM      4  N   UNL     1      15.327   6.581  21.396  0.00  0.00    -0.305 NA
ATOM     25  H   UNL     1      15.921   5.786  21.160  0.00  0.00    +0.123 HD
BRANCH   4  13
ATOM     13  C   UNL     1      16.148   7.786  21.441  0.00  0.00    +0.118 C 
BRANCH  13  14
ATOM      6  N   UNL     1      19.918   8.133  21.522  0.00  0.00    -0.263 NA
ATOM     14  C   UNL     1      17.608   7.476  21.240  0.00  0.00    -0.015 A 
ATOM     16  C   UNL     1      18.010   6.301  20.614  0.00  0.00    +0.008 A 
ATOM     17  C   UNL     1      18.591   8.350  21.672  0.00  0.00    +0.115 A 
ATOM     19  C   UNL     1      19.366   6.042  20.441  0.00  0.00    +0.020 A 
ATOM     22  C   UNL     1      20.270   6.981  20.909  0.00  0.00    +0.111 A 
ENDBRANCH  13  14
ENDBRANCH   4  13
ENDBRANCH   8   4
BRANCH  10  12
ATOM     12  C   UNL     1      11.072   8.549  20.089  0.00  0.00    +0.138 C 
BRANCH  12   5
ATOM      3  O   UNL     1      12.148  11.170  20.555  0.00  0.00    -0.270 OA
ATOM      5  N   UNL     1      11.281   9.175  21.362  0.00  0.00    -0.309 N 
ATOM     15  C   UNL     1      11.810  10.455  21.495  0.00  0.00    +0.244 C 
ATOM     27  H   UNL     1      11.085   8.612  22.183  0.00  0.00    +0.149 HD
BRANCH  15  18
ATOM      7  N   UNL     1      12.323  11.877  25.500  0.00  0.00    -0.263 NA
ATOM     18  C   UNL     1      11.987  10.950  22.884  0.00  0.00    +0.040 A 
ATOM     20  C   UNL     1      13.239  11.369  23.322  0.00  0.00    +0.033 A 
ATOM     21  C   UNL     1      10.904  10.994  23.754  0.00  0.00    +0.033 A 
ATOM     23  C   UNL     1      13.353  11.819  24.627  0.00  0.00    +0.111 A 
ATOM     24  C   UNL     1      11.121  11.462  25.040  0.00  0.00    +0.111 A 
ENDBRANCH  15  18
ENDBRANCH  12   5
ENDBRANCH  10  12
TORSDOF 7
ENDMDL
MODEL 4
REMARK VINA RESULT:      -6.4      1.538      1.946
REMARK  Name = 75536799
REMARK  7 active torsions:
REMARK  status: ('A' for Active; 'I' for Inactive)
REMARK    1  A    between atoms: O_2  and  C_9
REMARK    2  A    between atoms: N_4  and  C_8
REMARK    3  A    between atoms: N_4  and  C_13
REMARK    4  A    between atoms: N_5  and  C_12
REMARK    5  A    between atoms: C_10  and  C_12
REMARK    6  A    between atoms: C_13  and  C_14
REMARK    7  A    between atoms: C_15  and  C_18
REMARK                            x       y       z     vdW  Elec       q    Type
REMARK                         _______ _______ _______ _____ _____    ______ ____
ROOT
ATOM      1  O   UNL     1      13.928   6.888  21.013  0.00  0.00    -0.371 OA
ATOM      8  C   UNL     1      11.638   7.415  20.665  0.00  0.00    +0.111 C 
ATOM      9  C   UNL     1      12.430   7.814  19.433  0.00  0.00    +0.164 C 
ATOM     10  C   UNL     1      13.680   6.959  19.599  0.00  0.00    +0.165 C 
ATOM     11  C   UNL     1      12.738   7.304  21.706  0.00  0.00    +0.181 C 
ENDROOT
BRANCH   9   2
ATOM      2  O   UNL     1      11.749   7.524  18.228  0.00  0.00    -0.388 OA
ATOM     26  H   UNL     1      12.332   6.983  17.669  0.00  0.00    +0.210 HD
ENDBRANCH   9   2
BRANCH   8   4
ATOM      4  N   UNL     1      10.607   8.374  21.029  0.00  0.00    -0.305 NA
ATOM     25  H   UNL     1       9.691   7.949  20.885  0.00  0.00    +0.123 HD
BRANCH   4  13
ATOM     13  C   UNL     1      10.728   8.766  22.429  0.00  0.00    +0.118 C 
BRANCH  13  14
ATOM      6  N   UNL     1      11.670  12.332  21.571  0.00  0.00    -0.263 NA
ATOM     14  C   UNL     1      10.982  10.243  22.576  0.00  0.00    -0.015 A 
ATOM     16  C   UNL     1      10.782  10.886  23.793  0.00  0.00    +0.008 A 
ATOM     17  C   UNL     1      11.422  11.004  21.505  0.00  0.00    +0.115 A 
ATOM     19  C   UNL     1      11.026  12.251  23.900  0.00  0.00    +0.020 A 
ATOM     22  C   UNL     1      11.465  12.922  22.770  0.00  0.00    +0.111 A 
ENDBRANCH  13  14
ENDBRANCH   4  13
ENDBRANCH   8   4
BRANCH  10  12
ATOM     12  C   UNL     1      14.896   7.529  18.892  0.00  0.00    +0.138 C 
BRANCH  12   5
ATOM      3  O   UNL     1      16.745   8.867  20.634  0.00  0.00    -0.270 OA
ATOM      5  N   UNL     1      16.112   6.989  19.427  0.00  0.00    -0.309 N 
ATOM     15  C   UNL     1      16.951   7.713  20.268  0.00  0.00    +0.244 C 
ATOM     27  H   UNL     1      16.377   6.062  19.110  0.00  0.00    +0.149 HD
BRANCH  15  18
ATOM      7  N   UNL     1      20.507   5.712  21.563  0.00  0.00    -0.263 NA
ATOM     18  C   UNL     1      18.187   7.020  20.717  0.00  0.00    +0.040 A 
ATOM     20  C   UNL     1      18.665   5.920  20.013  0.00  0.00    +0.033 A 
ATOM     21  C   UNL     1      18.868   7.466  21.844  0.00  0.00    +0.033 A 
ATOM     23  C   UNL     1      19.819   5.307  20.473  0.00  0.00    +0.111 A 
ATOM     24  C   UNL     1      20.013   6.784  22.223  0.00  0.00    +0.111 A 
ENDBRANCH  15  18
ENDBRANCH  12   5
ENDBRANCH  10  12
TORSDOF 7
ENDMDL
MODEL 5
REMARK VINA RESULT:      -6.2     25.832     27.766
REMARK  Name = 75536799
REMARK  7 active torsions:
REMARK  status: ('A' for Active; 'I' for Inactive)
REMARK    1  A    between atoms: O_2  and  C_9
REMARK    2  A    between atoms: N_4  and  C_8
REMARK    3  A    between atoms: N_4  and  C_13
REMARK    4  A    between atoms: N_5  and  C_12
REMARK    5  A    between atoms: C_10  and  C_12
REMARK    6  A    between atoms: C_13  and  C_14
REMARK    7  A    between atoms: C_15  and  C_18
REMARK                            x       y       z     vdW  Elec       q    Type
REMARK                         _______ _______ _______ _____ _____    ______ ____
ROOT
ATOM      1  O   UNL     1      -1.127 -11.341  15.063  0.00  0.00    -0.371 OA
ATOM      8  C   UNL     1      -3.156 -11.095  16.276  0.00  0.00    +0.111 C 
ATOM      9  C   UNL     1      -3.454 -11.751  14.940  0.00  0.00    +0.164 C 
ATOM     10  C   UNL     1      -2.081 -12.295  14.567  0.00  0.00    +0.165 C 
ATOM     11  C   UNL     1      -1.789 -10.486  16.012  0.00  0.00    +0.181 C 
ENDROOT
BRANCH   9   2
ATOM      2  O   UNL     1      -4.419 -12.780  15.040  0.00  0.00    -0.388 OA
ATOM     26  H   UNL     1      -4.713 -12.835  15.965  0.00  0.00    +0.210 HD
ENDBRANCH   9   2
BRANCH   8   4
ATOM      4  N   UNL     1      -4.148 -10.110  16.675  0.00  0.00    -0.305 NA
ATOM     25  H   UNL     1      -4.798  -9.961  15.904  0.00  0.00    +0.123 HD
BRANCH   4  13
ATOM     13  C   UNL     1      -4.896 -10.564  17.842  0.00  0.00    +0.118 C 
BRANCH  13  14
ATOM      6  N   UNL     1      -8.167  -9.218  16.490  0.00  0.00    -0.263 NA
ATOM     14  C   UNL     1      -6.370 -10.286  17.705  0.00  0.00    -0.015 A 
ATOM     16  C   UNL     1      -7.283 -10.804  18.617  0.00  0.00    +0.008 A 
ATOM     17  C   UNL     1      -6.858  -9.507  16.669  0.00  0.00    +0.115 A 
ATOM     19  C   UNL     1      -8.638 -10.529  18.466  0.00  0.00    +0.020 A 
ATOM     22  C   UNL     1      -9.025  -9.739  17.395  0.00  0.00    +0.111 A 
ENDBRANCH  13  14
ENDBRANCH   4  13
ENDBRANCH   8   4
BRANCH  10  12
ATOM     12  C   UNL     1      -1.893 -12.480  13.072  0.00  0.00    +0.138 C 
BRANCH  12   5
ATOM      3  O   UNL     1      -1.461  -9.914  11.859  0.00  0.00    -0.270 OA
ATOM      5  N   UNL     1      -2.849 -11.713  12.327  0.00  0.00    -0.309 N 
ATOM     15  C   UNL     1      -2.551 -10.473  11.772  0.00  0.00    +0.244 C 
ATOM     27  H   UNL     1      -3.791 -12.088  12.275  0.00  0.00    +0.149 HD
BRANCH  15  18
ATOM      7  N   UNL     1      -5.743  -8.513   9.698  0.00  0.00    -0.263 NA
ATOM     18  C   UNL     1      -3.660  -9.794  11.052  0.00  0.00    +0.040 A 
ATOM     20  C   UNL     1      -3.466  -9.321   9.758  0.00  0.00    +0.033 A 
ATOM     21  C   UNL     1      -4.895  -9.627  11.668  0.00  0.00    +0.033 A 
ATOM     23  C   UNL     1      -4.530  -8.693   9.131  0.00  0.00    +0.111 A 
ATOM     24  C   UNL     1      -5.895  -8.986  10.956  0.00  0.00    +0.111 A 
ENDBRANCH  15  18
ENDBRANCH  12   5
ENDBRANCH  10  12
TORSDOF 7
ENDMDL
MODEL 6
REMARK VINA RESULT:      -6.1      3.125      4.156
REMARK  Name = 75536799
REMARK  7 active torsions:
REMARK  status: ('A' for Active; 'I' for Inactive)
REMARK    1  A    between atoms: O_2  and  C_9
REMARK    2  A    between atoms: N_4  and  C_8
REMARK    3  A    between atoms: N_4  and  C_13
REMARK    4  A    between atoms: N_5  and  C_12
REMARK    5  A    between atoms: C_10  and  C_12
REMARK    6  A    between atoms: C_13  and  C_14
REMARK    7  A    between atoms: C_15  and  C_18
REMARK                            x       y       z     vdW  Elec       q    Type
REMARK                         _______ _______ _______ _____ _____    ______ ____
ROOT
ATOM      1  O   UNL     1      13.776   8.153  20.542  0.00  0.00    -0.371 OA
ATOM      8  C   UNL     1      12.098   8.308  22.216  0.00  0.00    +0.111 C 
ATOM      9  C   UNL     1      11.455   7.885  20.908  0.00  0.00    +0.164 C 
ATOM     10  C   UNL     1      12.659   7.337  20.153  0.00  0.00    +0.165 C 
ATOM     11  C   UNL     1      13.418   8.882  21.729  0.00  0.00    +0.181 C 
ENDROOT
BRANCH   9   2
ATOM      2  O   UNL     1      10.453   6.902  21.085  0.00  0.00    -0.388 OA
ATOM     26  H   UNL     1      10.857   6.124  21.504  0.00  0.00    +0.210 HD
ENDBRANCH   9   2
BRANCH   8   4
ATOM      4  N   UNL     1      11.307   9.267  22.970  0.00  0.00    -0.305 NA
ATOM     25  H   UNL     1      11.720   9.387  23.894  0.00  0.00    +0.123 HD
BRANCH   4  13
ATOM     13  C   UNL     1      11.272  10.561  22.298  0.00  0.00    +0.118 C 
BRANCH  13  14
ATOM      6  N   UNL     1      10.615  12.411  25.536  0.00  0.00    -0.263 NA
ATOM     14  C   UNL     1      10.986  11.684  23.260  0.00  0.00    -0.015 A 
ATOM     16  C   UNL     1      10.828  12.990  22.809  0.00  0.00    +0.008 A 
ATOM     17  C   UNL     1      10.872  11.450  24.620  0.00  0.00    +0.115 A 
ATOM     19  C   UNL     1      10.563  14.007  23.720  0.00  0.00    +0.020 A 
ATOM     22  C   UNL     1      10.468  13.668  25.060  0.00  0.00    +0.111 A 
ENDBRANCH  13  14
ENDBRANCH   4  13
ENDBRANCH   8   4
BRANCH  10  12
ATOM     12  C   UNL     1      12.493   7.379  18.645  0.00  0.00    +0.138 C 
BRANCH  12   5
ATOM      3  O   UNL     1      14.028   7.904  16.276  0.00  0.00    -0.270 OA
ATOM      5  N   UNL     1      12.839   8.667  18.117  0.00  0.00    -0.309 N 
ATOM     15  C   UNL     1      13.591   8.828  16.957  0.00  0.00    +0.244 C 
ATOM     27  H   UNL     1      12.566   9.474  18.669  0.00  0.00    +0.149 HD
BRANCH  15  18
ATOM      7  N   UNL     1      14.449  12.861  15.804  0.00  0.00    -0.263 NA
ATOM     18  C   UNL     1      13.887  10.228  16.557  0.00  0.00    +0.040 A 
ATOM     20  C   UNL     1      14.117  10.538  15.221  0.00  0.00    +0.033 A 
ATOM     21  C   UNL     1      13.937  11.233  17.516  0.00  0.00    +0.033 A 
ATOM     23  C   UNL     1      14.392  11.858  14.900  0.00  0.00    +0.111 A 
ATOM     24  C   UNL     1      14.219  12.522  17.092  0.00  0.00    +0.111 A 
ENDBRANCH  15  18
ENDBRANCH  12   5
ENDBRANCH  10  12
TORSDOF 7
ENDMDL
MODEL 7
REMARK VINA RESULT:      -6.0     26.574     29.754
REMARK  Name = 75536799
REMARK  7 active torsions:
REMARK  status: ('A' for Active; 'I' for Inactive)
REMARK    1  A    between atoms: O_2  and  C_9
REMARK    2  A    between atoms: N_4  and  C_8
REMARK    3  A    between atoms: N_4  and  C_13
REMARK    4  A    between atoms: N_5  and  C_12
REMARK    5  A    between atoms: C_10  and  C_12
REMARK    6  A    between atoms: C_13  and  C_14
REMARK    7  A    between atoms: C_15  and  C_18
REMARK                            x       y       z     vdW  Elec       q    Type
REMARK                         _______ _______ _______ _____ _____    ______ ____
ROOT
ATOM      1  O   UNL     1      -8.539 -12.541  18.449  0.00  0.00    -0.371 OA
ATOM      8  C   UNL     1      -6.393 -11.557  18.187  0.00  0.00    +0.111 C 
ATOM      9  C   UNL     1      -7.290 -10.593  18.942  0.00  0.00    +0.164 C 
ATOM     10  C   UNL     1      -8.363 -11.540  19.465  0.00  0.00    +0.165 C 
ATOM     11  C   UNL     1      -7.415 -12.485  17.553  0.00  0.00    +0.181 C 
ENDROOT
BRANCH   9   2
ATOM      2  O   UNL     1      -6.616  -9.929  19.993  0.00  0.00    -0.388 OA
ATOM     26  H   UNL     1      -5.691  -9.795  19.728  0.00  0.00    +0.210 HD
ENDBRANCH   9   2
BRANCH   8   4
ATOM      4  N   UNL     1      -5.533 -10.909  17.211  0.00  0.00    -0.305 NA
ATOM     25  H   UNL     1      -5.624  -9.898  17.305  0.00  0.00    +0.123 HD
BRANCH   4  13
ATOM     13  C   UNL     1      -4.136 -11.278  17.416  0.00  0.00    +0.118 C 
BRANCH  13  14
ATOM      6  N   UNL     1      -3.123 -10.516  13.848  0.00  0.00    -0.263 NA
ATOM     14  C   UNL     1      -3.284 -10.925  16.225  0.00  0.00    -0.015 A 
ATOM     16  C   UNL     1      -1.920 -10.691  16.366  0.00  0.00    +0.008 A 
ATOM     17  C   UNL     1      -3.832 -10.826  14.957  0.00  0.00    +0.115 A 
ATOM     19  C   UNL     1      -1.157 -10.369  15.249  0.00  0.00    +0.020 A 
ATOM     22  C   UNL     1      -1.800 -10.294  14.024  0.00  0.00    +0.111 A 
ENDBRANCH  13  14
ENDBRANCH   4  13
ENDBRANCH   8   4
BRANCH  10  12
ATOM     12  C   UNL     1      -9.687 -10.852  19.744  0.00  0.00    +0.138 C 
BRANCH  12   5
ATOM      3  O   UNL     1     -12.287  -9.820  19.100  0.00  0.00    -0.270 OA
ATOM      5  N   UNL     1      -9.998  -9.887  18.730  0.00  0.00    -0.309 N 
ATOM     15  C   UNL     1     -11.293  -9.441  18.486  0.00  0.00    +0.244 C 
ATOM     27  H   UNL     1      -9.230  -9.583  18.140  0.00  0.00    +0.149 HD
BRANCH  15  18
ATOM      7  N   UNL     1     -11.748  -6.613  15.304  0.00  0.00    -0.263 NA
ATOM     18  C   UNL     1     -11.451  -8.459  17.383  0.00  0.00    +0.040 A 
ATOM     20  C   UNL     1     -12.635  -8.411  16.654  0.00  0.00    +0.033 A 
ATOM     21  C   UNL     1     -10.416  -7.584  17.073  0.00  0.00    +0.033 A 
ATOM     23  C   UNL     1     -12.732  -7.479  15.634  0.00  0.00    +0.111 A 
ATOM     24  C   UNL     1     -10.612  -6.688  16.034  0.00  0.00    +0.111 A 
ENDBRANCH  15  18
ENDBRANCH  12   5
ENDBRANCH  10  12
TORSDOF 7
ENDMDL
MODEL 8
REMARK VINA RESULT:      -6.0      3.924      5.783
REMARK  Name = 75536799
REMARK  7 active torsions:
REMARK  status: ('A' for Active; 'I' for Inactive)
REMARK    1  A    between atoms: O_2  and  C_9
REMARK    2  A    between atoms: N_4  and  C_8
REMARK    3  A    between atoms: N_4  and  C_13
REMARK    4  A    between atoms: N_5  and  C_12
REMARK    5  A    between atoms: C_10  and  C_12
REMARK    6  A    between atoms: C_13  and  C_14
REMARK    7  A    between atoms: C_15  and  C_18
REMARK                            x       y       z     vdW  Elec       q    Type
REMARK                         _______ _______ _______ _____ _____    ______ ____
ROOT
ATOM      1  O   UNL     1      14.013   9.081  19.644  0.00  0.00    -0.371 OA
ATOM      8  C   UNL     1      13.274   9.074  17.387  0.00  0.00    +0.111 C 
ATOM      9  C   UNL     1      13.238   7.654  17.924  0.00  0.00    +0.164 C 
ATOM     10  C   UNL     1      13.210   7.910  19.425  0.00  0.00    +0.165 C 
ATOM     11  C   UNL     1      14.200   9.748  18.384  0.00  0.00    +0.181 C 
ENDROOT
BRANCH   9   2
ATOM      2  O   UNL     1      12.100   6.935  17.490  0.00  0.00    -0.388 OA
ATOM     26  H   UNL     1      11.307   7.437  17.739  0.00  0.00    +0.210 HD
ENDBRANCH   9   2
BRANCH   8   4
ATOM      4  N   UNL     1      13.752   9.166  16.016  0.00  0.00    -0.305 NA
ATOM     25  H   UNL     1      13.286   8.456  15.452  0.00  0.00    +0.123 HD
BRANCH   4  13
ATOM     13  C   UNL     1      13.467  10.480  15.450  0.00  0.00    +0.118 C 
BRANCH  13  14
ATOM      6  N   UNL     1      16.959  11.603  14.513  0.00  0.00    -0.263 NA
ATOM     14  C   UNL     1      14.708  11.327  15.350  0.00  0.00    -0.015 A 
ATOM     16  C   UNL     1      14.777  12.571  15.968  0.00  0.00    +0.008 A 
ATOM     17  C   UNL     1      15.815  10.893  14.640  0.00  0.00    +0.115 A 
ATOM     19  C   UNL     1      15.936  13.331  15.860  0.00  0.00    +0.020 A 
ATOM     22  C   UNL     1      16.989  12.807  15.128  0.00  0.00    +0.111 A 
ENDBRANCH  13  14
ENDBRANCH   4  13
ENDBRANCH   8   4
BRANCH  10  12
ATOM     12  C   UNL     1      13.755   6.752  20.242  0.00  0.00    +0.138 C 
BRANCH  12   5
ATOM      3  O   UNL     1      16.129   5.882  18.881  0.00  0.00    -0.270 OA
ATOM      5  N   UNL     1      15.110   6.991  20.646  0.00  0.00    -0.309 N 
ATOM     15  C   UNL     1      16.204   6.530  19.922  0.00  0.00    +0.244 C 
ATOM     27  H   UNL     1      15.243   7.463  21.535  0.00  0.00    +0.149 HD
BRANCH  15  18
ATOM      7  N   UNL     1      20.062   7.423  21.550  0.00  0.00    -0.263 NA
ATOM     18  C   UNL     1      17.543   6.838  20.488  0.00  0.00    +0.040 A 
ATOM     20  C   UNL     1      17.705   7.921  21.346  0.00  0.00    +0.033 A 
ATOM     21  C   UNL     1      18.639   6.048  20.161  0.00  0.00    +0.033 A 
ATOM     23  C   UNL     1      18.974   8.168  21.846  0.00  0.00    +0.111 A 
ATOM     24  C   UNL     1      19.866   6.379  20.713  0.00  0.00    +0.111 A 
ENDBRANCH  15  18
ENDBRANCH  12   5
ENDBRANCH  10  12
TORSDOF 7
ENDMDL
MODEL 9
REMARK VINA RESULT:      -6.0      2.051      8.233
REMARK  Name = 75536799
REMARK  7 active torsions:
REMARK  status: ('A' for Active; 'I' for Inactive)
REMARK    1  A    between atoms: O_2  and  C_9
REMARK    2  A    between atoms: N_4  and  C_8
REMARK    3  A    between atoms: N_4  and  C_13
REMARK    4  A    between atoms: N_5  and  C_12
REMARK    5  A    between atoms: C_10  and  C_12
REMARK    6  A    between atoms: C_13  and  C_14
REMARK    7  A    between atoms: C_15  and  C_18
REMARK                            x       y       z     vdW  Elec       q    Type
REMARK                         _______ _______ _______ _____ _____    ______ ____
ROOT
ATOM      1  O   UNL     1      15.743   6.208  19.098  0.00  0.00    -0.371 OA
ATOM      8  C   UNL     1      16.827   6.575  21.180  0.00  0.00    +0.111 C 
ATOM      9  C   UNL     1      15.510   7.330  21.168  0.00  0.00    +0.164 C 
ATOM     10  C   UNL     1      14.757   6.587  20.072  0.00  0.00    +0.165 C 
ATOM     11  C   UNL     1      17.045   6.329  19.697  0.00  0.00    +0.181 C 
ENDROOT
BRANCH   9   2
ATOM      2  O   UNL     1      14.834   7.268  22.408  0.00  0.00    -0.388 OA
ATOM     26  H   UNL     1      13.886   7.141  22.235  0.00  0.00    +0.210 HD
ENDBRANCH   9   2
BRANCH   8   4
ATOM      4  N   UNL     1      17.916   7.314  21.798  0.00  0.00    -0.305 NA
ATOM     25  H   UNL     1      18.030   6.996  22.761  0.00  0.00    +0.123 HD
BRANCH   4  13
ATOM     13  C   UNL     1      19.168   7.100  21.080  0.00  0.00    +0.118 C 
BRANCH  13  14
ATOM      6  N   UNL     1      21.977   4.900  22.347  0.00  0.00    -0.263 NA
ATOM     14  C   UNL     1      20.239   6.540  21.978  0.00  0.00    -0.015 A 
ATOM     16  C   UNL     1      20.493   7.101  23.226  0.00  0.00    +0.008 A 
ATOM     17  C   UNL     1      21.002   5.451  21.589  0.00  0.00    +0.115 A 
ATOM     19  C   UNL     1      21.487   6.561  24.034  0.00  0.00    +0.020 A 
ATOM     22  C   UNL     1      22.194   5.471  23.553  0.00  0.00    +0.111 A 
ENDBRANCH  13  14
ENDBRANCH   4  13
ENDBRANCH   8   4
BRANCH  10  12
ATOM     12  C   UNL     1      13.677   7.425  19.411  0.00  0.00    +0.138 C 
BRANCH  12   5
ATOM      3  O   UNL     1      13.208  10.251  19.217  0.00  0.00    -0.270 OA
ATOM      5  N   UNL     1      12.996   8.248  20.368  0.00  0.00    -0.309 N 
ATOM     15  C   UNL     1      12.813   9.615  20.191  0.00  0.00    +0.244 C 
ATOM     27  H   UNL     1      12.703   7.797  21.229  0.00  0.00    +0.149 HD
BRANCH  15  18
ATOM      7  N   UNL     1      10.790  11.677  23.351  0.00  0.00    -0.263 NA
ATOM     18  C   UNL     1      12.109  10.330  21.287  0.00  0.00    +0.040 A 
ATOM     20  C   UNL     1      11.857  11.694  21.183  0.00  0.00    +0.033 A 
ATOM     21  C   UNL     1      11.702   9.640  22.423  0.00  0.00    +0.033 A 
ATOM     23  C   UNL     1      11.200  12.314  22.233  0.00  0.00    +0.111 A 
ATOM     24  C   UNL     1      11.051  10.352  23.418  0.00  0.00    +0.111 A 
ENDBRANCH  15  18
ENDBRANCH  12   5
ENDBRANCH  10  12
TORSDOF 7
ENDMDL
MODEL 10
REMARK VINA RESULT:      -6.0     26.382     28.946
REMARK  Name = 75536799
REMARK  7 active torsions:
REMARK  status: ('A' for Active; 'I' for Inactive)
REMARK    1  A    between atoms: O_2  and  C_9
REMARK    2  A    between atoms: N_4  and  C_8
REMARK    3  A    between atoms: N_4  and  C_13
REMARK    4  A    between atoms: N_5  and  C_12
REMARK    5  A    between atoms: C_10  and  C_12
REMARK    6  A    between atoms: C_13  and  C_14
REMARK    7  A    between atoms: C_15  and  C_18
REMARK                            x       y       z     vdW  Elec       q    Type
REMARK                         _______ _______ _______ _____ _____    ______ ____
ROOT
ATOM      1  O   UNL     1      -4.924 -11.881  15.944  0.00  0.00    -0.371 OA
ATOM      8  C   UNL     1      -2.931 -11.318  14.780  0.00  0.00    +0.111 C 
ATOM      9  C   UNL     1      -2.829 -10.815  16.208  0.00  0.00    +0.164 C 
ATOM     10  C   UNL     1      -3.870 -11.685  16.901  0.00  0.00    +0.165 C 
ATOM     11  C   UNL     1      -4.430 -11.524  14.641  0.00  0.00    +0.181 C 
ENDROOT
BRANCH   9   2
ATOM      2  O   UNL     1      -1.539 -10.996  16.759  0.00  0.00    -0.388 OA
ATOM     26  H   UNL     1      -0.917 -11.173  16.034  0.00  0.00    +0.210 HD
ENDBRANCH   9   2
BRANCH   8   4
ATOM      4  N   UNL     1      -2.393 -10.393  13.796  0.00  0.00    -0.305 NA
ATOM     25  H   UNL     1      -1.622  -9.873  14.214  0.00  0.00    +0.123 HD
BRANCH   4  13
ATOM     13  C   UNL     1      -1.900 -11.105  12.622  0.00  0.00    +0.118 C 
BRANCH  13  14
ATOM      6  N   UNL     1      -4.239 -11.601   9.686  0.00  0.00    -0.263 NA
ATOM     14  C   UNL     1      -2.728 -10.809  11.399  0.00  0.00    -0.015 A 
ATOM     16  C   UNL     1      -2.763  -9.531  10.851  0.00  0.00    +0.008 A 
ATOM     17  C   UNL     1      -3.477 -11.799  10.785  0.00  0.00    +0.115 A 
ATOM     19  C   UNL     1      -3.535  -9.288   9.720  0.00  0.00    +0.020 A 
ATOM     22  C   UNL     1      -4.248 -10.346   9.181  0.00  0.00    +0.111 A 
ENDBRANCH  13  14
ENDBRANCH   4  13
ENDBRANCH   8   4
BRANCH  10  12
ATOM     12  C   UNL     1      -4.432 -11.058  18.164  0.00  0.00    +0.138 C 
BRANCH  12   5
ATOM      3  O   UNL     1      -6.322 -10.805  20.310  0.00  0.00    -0.270 OA
ATOM      5  N   UNL     1      -5.839 -10.808  18.041  0.00  0.00    -0.309 N 
ATOM     15  C   UNL     1      -6.683 -10.699  19.141  0.00  0.00    +0.244 C 
ATOM     27  H   UNL     1      -6.215 -10.777  17.099  0.00  0.00    +0.149 HD
BRANCH  15  18
ATOM      7  N   UNL     1     -10.823 -10.018  18.288  0.00  0.00    -0.263 NA
ATOM     18  C   UNL     1      -8.120 -10.464  18.844  0.00  0.00    +0.040 A 
ATOM     20  C   UNL     1      -8.488  -9.641  17.785  0.00  0.00    +0.033 A 
ATOM     21  C   UNL     1      -9.102 -11.064  19.624  0.00  0.00    +0.033 A 
ATOM     23  C   UNL     1      -9.841  -9.452  17.551  0.00  0.00    +0.111 A 
ATOM     24  C   UNL     1     -10.427 -10.812  19.308  0.00  0.00    +0.111 A 
ENDBRANCH  15  18
ENDBRANCH  12   5
ENDBRANCH  10  12
TORSDOF 7
ENDMDL
