REMARK  Name = 26743732
REMARK  7 active torsions:
REMARK  status: ('A' for Active; 'I' for Inactive)
REMARK    1  A    between atoms: O_4  and  C_13
REMARK    2  A    between atoms: O_6  and  C_28
REMARK    3  A    between atoms: O_6  and  C_29
REMARK    4  A    between atoms: N_7  and  C_15
REMARK    5  A    between atoms: C_11  and  C_16
REMARK    6  A    between atoms: C_15  and  C_17
REMARK    7  A    between atoms: C_18  and  C_21
REMARK                            x       y       z     vdW  Elec       q    Type
REMARK                         _______ _______ _______ _____ _____    ______ ____
ROOT
ATOM      5  O   UNL     1      -1.748   0.101  -2.103  0.00  0.00    -0.336 OA
ATOM      8  N   UNL     1      -0.990   1.022  -0.207  0.00  0.00    -0.190 NA
ATOM      9  N   UNL     1      -0.351   0.033  -2.169  0.00  0.00    -0.056 NA
ATOM     16  C   UNL     1      -2.040   0.697  -0.917  0.00  0.00    +0.245 A 
ATOM     18  C   UNL     1       0.023   0.595  -1.016  0.00  0.00    +0.202 A 
ENDROOT
BRANCH  18  21
ATOM     21  C   UNL     1       1.400   0.747  -0.642  0.00  0.00    +0.023 A 
ATOM     24  C   UNL     1       1.732   1.343   0.574  0.00  0.00    +0.015 A 
ATOM     25  C   UNL     1       2.407   0.299  -1.497  0.00  0.00    +0.015 A 
ATOM     26  C   UNL     1       3.070   1.492   0.936  0.00  0.00    +0.046 A 
ATOM     27  C   UNL     1       3.746   0.448  -1.135  0.00  0.00    +0.046 A 
ATOM     28  C   UNL     1       4.078   1.045   0.081  0.00  0.00    +0.130 A 
BRANCH  28   6
ATOM      6  O   UNL     1       5.384   1.189   0.434  0.00  0.00    -0.406 OA
BRANCH   6  29
ATOM      1  F   UNL     1       7.122   0.226   1.505  0.00  0.00    -0.133 F 
ATOM      2  F   UNL     1       5.438  -1.043   0.930  0.00  0.00    -0.133 F 
ATOM      3  F   UNL     1       6.820  -0.257  -0.605  0.00  0.00    -0.133 F 
ATOM     29  C   UNL     1       6.184   0.018   0.553  0.00  0.00    +0.575 C 
ENDBRANCH   6  29
ENDBRANCH  28   6
ENDBRANCH  18  21
BRANCH  16  11
ATOM      7  N   UNL     1      -3.907   0.245   0.666  0.00  0.00    -0.285 NA
ATOM     11  C   UNL     1      -3.509   0.889  -0.602  0.00  0.00    +0.149 C 
ATOM     12  C   UNL     1      -3.892   2.370  -0.429  0.00  0.00    +0.061 C 
ATOM     13  C   UNL     1      -4.540   2.452   0.948  0.00  0.00    +0.130 C 
ATOM     14  C   UNL     1      -5.016   1.034   1.201  0.00  0.00    +0.116 C 
BRANCH  13   4
ATOM      4  O   UNL     1      -5.613   3.373   0.944  0.00  0.00    -0.390 OA
ATOM     30  H   UNL     1      -5.251   4.243   0.701  0.00  0.00    +0.210 HD
ENDBRANCH  13   4
BRANCH   7  15
ATOM     15  C   UNL     1      -4.260  -1.160   0.512  0.00  0.00    +0.122 C 
BRANCH  15  17
ATOM     10  N   UNL     1      -1.736  -3.659  -0.798  0.00  0.00    -0.263 NA
ATOM     17  C   UNL     1      -3.039  -2.039   0.435  0.00  0.00    -0.015 A 
ATOM     19  C   UNL     1      -2.110  -2.066   1.469  0.00  0.00    +0.008 A 
ATOM     20  C   UNL     1      -2.808  -2.847  -0.666  0.00  0.00    +0.115 A 
ATOM     22  C   UNL     1      -0.993  -2.889   1.370  0.00  0.00    +0.020 A 
ATOM     23  C   UNL     1      -0.854  -3.659   0.227  0.00  0.00    +0.111 A 
ENDBRANCH  15  17
ENDBRANCH   7  15
ENDBRANCH  16  11
TORSDOF 7
