REMARK  Name = 75368414
REMARK  1 active torsions:
REMARK  status: ('A' for Active; 'I' for Inactive)
REMARK    1  A    between atoms: C_13  and  C_14
REMARK                            x       y       z     vdW  Elec       q    Type
REMARK                         _______ _______ _______ _____ _____    ______ ____
ROOT
ATOM      1  O   UNL     1      -4.967   0.136   0.164  0.00  0.00    -0.253 OA
ATOM      2  O   UNL     1       1.587   2.573   0.261  0.00  0.00    -0.270 OA
ATOM      3  N   UNL     1      -2.614   0.152   0.218  0.00  0.00    -0.278 N 
ATOM      4  N   UNL     1      -0.030   1.001  -0.349  0.00  0.00    -0.294 N 
ATOM      5  N   UNL     1      -3.673  -1.794  -0.159  0.00  0.00    -0.297 N 
ATOM      7  C   UNL     1      -1.556  -0.843   0.187  0.00  0.00    +0.112 C 
ATOM      8  C   UNL     1      -0.419  -0.375  -0.716  0.00  0.00    +0.132 C 
ATOM      9  C   UNL     1      -2.268  -2.108  -0.282  0.00  0.00    +0.129 C 
ATOM     10  C   UNL     1      -2.291   1.545   0.474  0.00  0.00    +0.128 C 
ATOM     11  C   UNL     1      -1.123   1.982  -0.409  0.00  0.00    +0.127 C 
ATOM     12  C   UNL     1      -3.882  -0.424   0.088  0.00  0.00    +0.303 C 
ATOM     13  C   UNL     1       1.256   1.419  -0.007  0.00  0.00    +0.248 C 
ATOM     19  H   UNL     1      -4.423  -2.460  -0.312  0.00  0.00    +0.150 HD
ENDROOT
BRANCH  13  14
ATOM      6  N   UNL     1       4.074  -0.818  -1.069  0.00  0.00    -0.263 NA
ATOM     14  C   UNL     1       2.319   0.407   0.056  0.00  0.00    +0.055 A 
ATOM     15  C   UNL     1       2.592  -0.272   1.238  0.00  0.00    +0.016 A 
ATOM     16  C   UNL     1       3.082   0.101  -1.060  0.00  0.00    +0.123 A 
ATOM     17  C   UNL     1       3.605  -1.224   1.268  0.00  0.00    +0.020 A 
ATOM     18  C   UNL     1       4.310  -1.458   0.098  0.00  0.00    +0.111 A 
ENDBRANCH  13  14
TORSDOF 1
