MODEL 1
REMARK VINA RESULT:      -7.9      0.000      0.000
REMARK  Name = 51136908
REMARK  5 active torsions:
REMARK  status: ('A' for Active; 'I' for Inactive)
REMARK    1  A    between atoms: N_3  and  C_13
REMARK    2  A    between atoms: C_9  and  C_14
REMARK    3  A    between atoms: C_13  and  C_15
REMARK    4  A    between atoms: C_18  and  C_21
REMARK    5  A    between atoms: C_26  and  C_27
REMARK                            x       y       z     vdW  Elec       q    Type
REMARK                         _______ _______ _______ _____ _____    ______ ____
ROOT
ATOM      2  O   UNL     1     -17.483   2.251  22.310  0.00  0.00    -0.336 OA
ATOM      4  N   UNL     1     -17.148   3.833  23.860  0.00  0.00    -0.190 NA
ATOM      5  N   UNL     1     -17.148   1.575  23.489  0.00  0.00    -0.056 NA
ATOM     14  C   UNL     1     -17.460   3.576  22.615  0.00  0.00    +0.245 A 
ATOM     18  C   UNL     1     -16.965   2.575  24.357  0.00  0.00    +0.204 A 
ENDROOT
BRANCH  18  21
ATOM      6  N   UNL     1     -16.319   0.807  27.564  0.00  0.00    -0.254 NA
ATOM     21  C   UNL     1     -16.599   2.353  25.726  0.00  0.00    +0.041 A 
ATOM     23  C   UNL     1     -16.182   3.403  26.535  0.00  0.00    +0.015 A 
ATOM     24  C   UNL     1     -16.650   1.085  26.282  0.00  0.00    +0.123 A 
ATOM     25  C   UNL     1     -15.834   3.157  27.859  0.00  0.00    +0.029 A 
ATOM     26  C   UNL     1     -15.919   1.853  28.321  0.00  0.00    +0.074 A 
BRANCH  26  27
ATOM      7  N   UNL     1     -14.950  -0.110  31.337  0.00  0.00    -0.243 NA
ATOM      8  N   UNL     1     -15.203   2.202  31.963  0.00  0.00    -0.243 NA
ATOM     27  C   UNL     1     -15.572   1.523  29.683  0.00  0.00    +0.037 A 
ATOM     28  C   UNL     1     -15.275   0.234  30.073  0.00  0.00    +0.124 A 
ATOM     29  C   UNL     1     -15.520   2.476  30.680  0.00  0.00    +0.124 A 
ATOM     30  C   UNL     1     -14.933   0.908  32.217  0.00  0.00    +0.221 A 
ENDBRANCH  26  27
ENDBRANCH  18  21
BRANCH  14   9
ATOM      3  N   UNL     1     -16.590   5.100  20.851  0.00  0.00    -0.287 NA
ATOM      9  C   UNL     1     -17.794   4.533  21.490  0.00  0.00    +0.146 C 
ATOM     10  C   UNL     1     -18.564   3.854  20.343  0.00  0.00    +0.030 C 
ATOM     11  C   UNL     1     -17.749   4.144  19.090  0.00  0.00    +0.017 C 
ATOM     12  C   UNL     1     -16.952   5.380  19.461  0.00  0.00    +0.085 C 
BRANCH   3  13
ATOM     13  C   UNL     1     -16.080   6.282  21.533  0.00  0.00    +0.123 C 
BRANCH  13  15
ATOM      1  F   UNL     1     -14.041   4.623  22.589  0.00  0.00    -0.205 F 
ATOM     15  C   UNL     1     -14.616   6.501  21.256  0.00  0.00    +0.002 A 
ATOM     16  C   UNL     1     -13.664   5.645  21.808  0.00  0.00    +0.128 A 
ATOM     17  C   UNL     1     -14.214   7.562  20.445  0.00  0.00    +0.008 A 
ATOM     19  C   UNL     1     -12.309   5.851  21.549  0.00  0.00    +0.038 A 
ATOM     20  C   UNL     1     -12.859   7.768  20.186  0.00  0.00    +0.000 A 
ATOM     22  C   UNL     1     -11.906   6.912  20.739  0.00  0.00    +0.003 A 
ENDBRANCH  13  15
ENDBRANCH   3  13
ENDBRANCH  14   9
TORSDOF 5
ENDMDL
MODEL 2
REMARK VINA RESULT:      -7.6     33.329     36.732
REMARK  Name = 51136908
REMARK  5 active torsions:
REMARK  status: ('A' for Active; 'I' for Inactive)
REMARK    1  A    between atoms: N_3  and  C_13
REMARK    2  A    between atoms: C_9  and  C_14
REMARK    3  A    between atoms: C_13  and  C_15
REMARK    4  A    between atoms: C_18  and  C_21
REMARK    5  A    between atoms: C_26  and  C_27
REMARK                            x       y       z     vdW  Elec       q    Type
REMARK                         _______ _______ _______ _____ _____    ______ ____
ROOT
ATOM      2  O   UNL     1      21.828   6.253  21.497  0.00  0.00    -0.336 OA
ATOM      4  N   UNL     1      19.902   6.288  22.640  0.00  0.00    -0.190 NA
ATOM      5  N   UNL     1      20.820   6.493  20.555  0.00  0.00    -0.056 NA
ATOM     14  C   UNL     1      21.201   6.145  22.698  0.00  0.00    +0.245 A 
ATOM     18  C   UNL     1      19.714   6.501  21.305  0.00  0.00    +0.204 A 
ENDROOT
BRANCH  18  21
ATOM      6  N   UNL     1      16.720   6.089  19.139  0.00  0.00    -0.254 NA
ATOM     21  C   UNL     1      18.408   6.714  20.753  0.00  0.00    +0.041 A 
ATOM     23  C   UNL     1      17.573   7.707  21.253  0.00  0.00    +0.015 A 
ATOM     24  C   UNL     1      17.939   5.939  19.705  0.00  0.00    +0.123 A 
ATOM     25  C   UNL     1      16.312   7.892  20.697  0.00  0.00    +0.029 A 
ATOM     26  C   UNL     1      15.936   7.064  19.651  0.00  0.00    +0.074 A 
BRANCH  26  27
ATOM      7  N   UNL     1      13.305   7.716  17.093  0.00  0.00    -0.243 NA
ATOM      8  N   UNL     1      12.241   7.074  19.157  0.00  0.00    -0.243 NA
ATOM     27  C   UNL     1      14.641   7.197  19.026  0.00  0.00    +0.037 A 
ATOM     28  C   UNL     1      14.498   7.578  17.708  0.00  0.00    +0.124 A 
ATOM     29  C   UNL     1      13.467   6.955  19.709  0.00  0.00    +0.124 A 
ATOM     30  C   UNL     1      12.234   7.451  17.865  0.00  0.00    +0.221 A 
ENDBRANCH  26  27
ENDBRANCH  18  21
BRANCH  14   9
ATOM      3  N   UNL     1      23.116   4.858  23.630  0.00  0.00    -0.287 NA
ATOM      9  C   UNL     1      22.086   5.881  23.899  0.00  0.00    +0.146 C 
ATOM     10  C   UNL     1      22.877   7.128  24.337  0.00  0.00    +0.030 C 
ATOM     11  C   UNL     1      24.336   6.691  24.345  0.00  0.00    +0.017 C 
ATOM     12  C   UNL     1      24.257   5.184  24.488  0.00  0.00    +0.085 C 
BRANCH   3  13
ATOM     13  C   UNL     1      22.643   3.496  23.843  0.00  0.00    +0.123 C 
BRANCH  13  15
ATOM      1  F   UNL     1      22.616   3.357  21.014  0.00  0.00    -0.205 F 
ATOM     15  C   UNL     1      23.451   2.494  23.062  0.00  0.00    +0.002 A 
ATOM     16  C   UNL     1      23.391   2.480  21.668  0.00  0.00    +0.128 A 
ATOM     17  C   UNL     1      24.259   1.579  23.735  0.00  0.00    +0.008 A 
ATOM     19  C   UNL     1      24.141   1.551  20.948  0.00  0.00    +0.038 A 
ATOM     20  C   UNL     1      25.009   0.649  23.014  0.00  0.00    +0.000 A 
ATOM     22  C   UNL     1      24.950   0.635  21.621  0.00  0.00    +0.003 A 
ENDBRANCH  13  15
ENDBRANCH   3  13
ENDBRANCH  14   9
TORSDOF 5
ENDMDL
MODEL 3
REMARK VINA RESULT:      -7.3     17.840     19.616
REMARK  Name = 51136908
REMARK  5 active torsions:
REMARK  status: ('A' for Active; 'I' for Inactive)
REMARK    1  A    between atoms: N_3  and  C_13
REMARK    2  A    between atoms: C_9  and  C_14
REMARK    3  A    between atoms: C_13  and  C_15
REMARK    4  A    between atoms: C_18  and  C_21
REMARK    5  A    between atoms: C_26  and  C_27
REMARK                            x       y       z     vdW  Elec       q    Type
REMARK                         _______ _______ _______ _____ _____    ______ ____
ROOT
ATOM      2  O   UNL     1      -4.893 -11.108  17.326  0.00  0.00    -0.336 OA
ATOM      4  N   UNL     1      -5.668 -10.087  15.489  0.00  0.00    -0.190 NA
ATOM      5  N   UNL     1      -6.172 -10.638  17.651  0.00  0.00    -0.056 NA
ATOM     14  C   UNL     1      -4.674 -10.741  16.036  0.00  0.00    +0.245 A 
ATOM     18  C   UNL     1      -6.563 -10.049  16.517  0.00  0.00    +0.204 A 
ENDROOT
BRANCH  18  21
ATOM      6  N   UNL     1      -9.704  -8.804  14.964  0.00  0.00    -0.254 NA
ATOM     21  C   UNL     1      -7.840  -9.411  16.380  0.00  0.00    +0.041 A 
ATOM     23  C   UNL     1      -8.455  -8.797  17.465  0.00  0.00    +0.015 A 
ATOM     24  C   UNL     1      -8.500  -9.388  15.162  0.00  0.00    +0.123 A 
ATOM     25  C   UNL     1      -9.694  -8.186  17.302  0.00  0.00    +0.029 A 
ATOM     26  C   UNL     1     -10.271  -8.217  16.042  0.00  0.00    +0.074 A 
BRANCH  26  27
ATOM      7  N   UNL     1     -12.869  -5.834  14.833  0.00  0.00    -0.243 NA
ATOM      8  N   UNL     1     -13.947  -7.599  16.069  0.00  0.00    -0.243 NA
ATOM     27  C   UNL     1     -11.556  -7.604  15.799  0.00  0.00    +0.037 A 
ATOM     28  C   UNL     1     -11.686  -6.436  15.078  0.00  0.00    +0.124 A 
ATOM     29  C   UNL     1     -12.731  -8.147  16.275  0.00  0.00    +0.124 A 
ATOM     30  C   UNL     1     -13.943  -6.461  15.350  0.00  0.00    +0.221 A 
ENDBRANCH  26  27
ENDBRANCH  18  21
BRANCH  14   9
ATOM      3  N   UNL     1      -3.070 -10.465  14.153  0.00  0.00    -0.287 NA
ATOM      9  C   UNL     1      -3.341 -11.139  15.439  0.00  0.00    +0.146 C 
ATOM     10  C   UNL     1      -2.150 -10.757  16.338  0.00  0.00    +0.030 C 
ATOM     11  C   UNL     1      -1.236  -9.921  15.454  0.00  0.00    +0.017 C 
ATOM     12  C   UNL     1      -1.616 -10.341  14.048  0.00  0.00    +0.085 C 
BRANCH   3  13
ATOM     13  C   UNL     1      -3.645 -11.161  13.008  0.00  0.00    +0.123 C 
BRANCH  13  15
ATOM      1  F   UNL     1      -2.123 -10.228  10.809  0.00  0.00    -0.205 F 
ATOM     15  C   UNL     1      -4.186 -10.201  11.983  0.00  0.00    +0.002 A 
ATOM     16  C   UNL     1      -3.381  -9.781  10.923  0.00  0.00    +0.128 A 
ATOM     17  C   UNL     1      -5.494  -9.731  12.094  0.00  0.00    +0.008 A 
ATOM     19  C   UNL     1      -3.886  -8.892   9.975  0.00  0.00    +0.038 A 
ATOM     20  C   UNL     1      -5.998  -8.841  11.146  0.00  0.00    +0.000 A 
ATOM     22  C   UNL     1      -5.194  -8.421  10.086  0.00  0.00    +0.003 A 
ENDBRANCH  13  15
ENDBRANCH   3  13
ENDBRANCH  14   9
TORSDOF 5
ENDMDL
MODEL 4
REMARK VINA RESULT:      -7.2     18.418     19.662
REMARK  Name = 51136908
REMARK  5 active torsions:
REMARK  status: ('A' for Active; 'I' for Inactive)
REMARK    1  A    between atoms: N_3  and  C_13
REMARK    2  A    between atoms: C_9  and  C_14
REMARK    3  A    between atoms: C_13  and  C_15
REMARK    4  A    between atoms: C_18  and  C_21
REMARK    5  A    between atoms: C_26  and  C_27
REMARK                            x       y       z     vdW  Elec       q    Type
REMARK                         _______ _______ _______ _____ _____    ______ ____
ROOT
ATOM      2  O   UNL     1      -5.005  -9.654  15.984  0.00  0.00    -0.336 OA
ATOM      4  N   UNL     1      -5.272 -11.679  16.903  0.00  0.00    -0.190 NA
ATOM      5  N   UNL     1      -6.209  -9.602  16.698  0.00  0.00    -0.056 NA
ATOM     14  C   UNL     1      -4.519 -10.911  16.157  0.00  0.00    +0.245 A 
ATOM     18  C   UNL     1      -6.297 -10.833  17.212  0.00  0.00    +0.204 A 
ENDROOT
BRANCH  18  21
ATOM      6  N   UNL     1      -9.700 -10.960  18.704  0.00  0.00    -0.254 NA
ATOM     21  C   UNL     1      -7.395 -11.249  18.035  0.00  0.00    +0.041 A 
ATOM     23  C   UNL     1      -7.257 -12.299  18.935  0.00  0.00    +0.015 A 
ATOM     24  C   UNL     1      -8.626 -10.618  17.958  0.00  0.00    +0.123 A 
ATOM     25  C   UNL     1      -8.340 -12.680  19.721  0.00  0.00    +0.029 A 
ATOM     26  C   UNL     1      -9.529 -11.985  19.569  0.00  0.00    +0.074 A 
BRANCH  26  27
ATOM      7  N   UNL     1     -12.916 -11.804  21.113  0.00  0.00    -0.243 NA
ATOM      8  N   UNL     1     -11.833 -13.827  21.848  0.00  0.00    -0.243 NA
ATOM     27  C   UNL     1     -10.694 -12.326  20.350  0.00  0.00    +0.037 A 
ATOM     28  C   UNL     1     -11.811 -11.518  20.393  0.00  0.00    +0.124 A 
ATOM     29  C   UNL     1     -10.762 -13.480  21.104  0.00  0.00    +0.124 A 
ATOM     30  C   UNL     1     -12.860 -12.957  21.806  0.00  0.00    +0.221 A 
ENDBRANCH  26  27
ENDBRANCH  18  21
BRANCH  14   9
ATOM      3  N   UNL     1      -3.042 -10.505  14.197  0.00  0.00    -0.287 NA
ATOM      9  C   UNL     1      -3.204 -11.225  15.475  0.00  0.00    +0.146 C 
ATOM     10  C   UNL     1      -1.984 -10.807  16.317  0.00  0.00    +0.030 C 
ATOM     11  C   UNL     1      -1.164  -9.902  15.408  0.00  0.00    +0.017 C 
ATOM     12  C   UNL     1      -1.604 -10.304  14.014  0.00  0.00    +0.085 C 
BRANCH   3  13
ATOM     13  C   UNL     1      -3.646 -11.198  13.066  0.00  0.00    +0.123 C 
BRANCH  13  15
ATOM      1  F   UNL     1      -6.085  -9.757  13.076  0.00  0.00    -0.205 F 
ATOM     15  C   UNL     1      -4.042 -10.243  11.970  0.00  0.00    +0.002 A 
ATOM     16  C   UNL     1      -5.259  -9.565  12.038  0.00  0.00    +0.128 A 
ATOM     17  C   UNL     1      -3.189 -10.038  10.887  0.00  0.00    +0.008 A 
ATOM     19  C   UNL     1      -5.622  -8.682  11.022  0.00  0.00    +0.038 A 
ATOM     20  C   UNL     1      -3.552  -9.155   9.870  0.00  0.00    +0.000 A 
ATOM     22  C   UNL     1      -4.769  -8.477   9.938  0.00  0.00    +0.003 A 
ENDBRANCH  13  15
ENDBRANCH   3  13
ENDBRANCH  14   9
TORSDOF 5
ENDMDL
MODEL 5
REMARK VINA RESULT:      -7.1     31.245     35.396
REMARK  Name = 51136908
REMARK  5 active torsions:
REMARK  status: ('A' for Active; 'I' for Inactive)
REMARK    1  A    between atoms: N_3  and  C_13
REMARK    2  A    between atoms: C_9  and  C_14
REMARK    3  A    between atoms: C_13  and  C_15
REMARK    4  A    between atoms: C_18  and  C_21
REMARK    5  A    between atoms: C_26  and  C_27
REMARK                            x       y       z     vdW  Elec       q    Type
REMARK                         _______ _______ _______ _____ _____    ______ ____
ROOT
ATOM      2  O   UNL     1      10.416   7.150  -0.719  0.00  0.00    -0.336 OA
ATOM      4  N   UNL     1      10.448   5.158   0.306  0.00  0.00    -0.190 NA
ATOM      5  N   UNL     1      10.245   7.411   0.646  0.00  0.00    -0.056 NA
ATOM     14  C   UNL     1      10.527   5.800  -0.832  0.00  0.00    +0.245 A 
ATOM     18  C   UNL     1      10.276   6.188   1.184  0.00  0.00    +0.204 A 
ENDROOT
BRANCH  18  21
ATOM      6  N   UNL     1       9.451   6.785   4.760  0.00  0.00    -0.254 NA
ATOM     21  C   UNL     1      10.135   5.960   2.593  0.00  0.00    +0.041 A 
ATOM     23  C   UNL     1      10.522   4.754   3.165  0.00  0.00    +0.015 A 
ATOM     24  C   UNL     1       9.610   6.935   3.426  0.00  0.00    +0.123 A 
ATOM     25  C   UNL     1      10.374   4.562   4.535  0.00  0.00    +0.029 A 
ATOM     26  C   UNL     1       9.838   5.599   5.282  0.00  0.00    +0.074 A 
BRANCH  26  27
ATOM      7  N   UNL     1       8.956   6.407   8.811  0.00  0.00    -0.243 NA
ATOM      8  N   UNL     1       9.833   4.165   8.723  0.00  0.00    -0.243 NA
ATOM     27  C   UNL     1       9.655   5.470   6.708  0.00  0.00    +0.037 A 
ATOM     28  C   UNL     1       9.138   6.492   7.477  0.00  0.00    +0.124 A 
ATOM     29  C   UNL     1       9.988   4.318   7.391  0.00  0.00    +0.124 A 
ATOM     30  C   UNL     1       9.318   5.233   9.361  0.00  0.00    +0.221 A 
ENDBRANCH  26  27
ENDBRANCH  18  21
BRANCH  14   9
ATOM      3  N   UNL     1      11.510   4.005  -2.249  0.00  0.00    -0.287 NA
ATOM      9  C   UNL     1      10.724   5.255  -2.232  0.00  0.00    +0.146 C 
ATOM     10  C   UNL     1       9.394   4.891  -2.919  0.00  0.00    +0.030 C 
ATOM     11  C   UNL     1       9.550   3.437  -3.342  0.00  0.00    +0.017 C 
ATOM     12  C   UNL     1      11.052   3.245  -3.413  0.00  0.00    +0.085 C 
BRANCH   3  13
ATOM     13  C   UNL     1      12.949   4.232  -2.274  0.00  0.00    +0.123 C 
BRANCH  13  15
ATOM      1  F   UNL     1      15.610   4.976  -1.647  0.00  0.00    -0.205 F 
ATOM     15  C   UNL     1      13.581   3.972  -0.933  0.00  0.00    +0.002 A 
ATOM     16  C   UNL     1      14.897   4.365  -0.690  0.00  0.00    +0.128 A 
ATOM     17  C   UNL     1      12.847   3.337   0.069  0.00  0.00    +0.008 A 
ATOM     19  C   UNL     1      15.479   4.123   0.554  0.00  0.00    +0.038 A 
ATOM     20  C   UNL     1      13.429   3.094   1.313  0.00  0.00    +0.000 A 
ATOM     22  C   UNL     1      14.745   3.488   1.555  0.00  0.00    +0.003 A 
ENDBRANCH  13  15
ENDBRANCH   3  13
ENDBRANCH  14   9
TORSDOF 5
ENDMDL
MODEL 6
REMARK VINA RESULT:      -7.0     31.570     35.795
REMARK  Name = 51136908
REMARK  5 active torsions:
REMARK  status: ('A' for Active; 'I' for Inactive)
REMARK    1  A    between atoms: N_3  and  C_13
REMARK    2  A    between atoms: C_9  and  C_14
REMARK    3  A    between atoms: C_13  and  C_15
REMARK    4  A    between atoms: C_18  and  C_21
REMARK    5  A    between atoms: C_26  and  C_27
REMARK                            x       y       z     vdW  Elec       q    Type
REMARK                         _______ _______ _______ _____ _____    ______ ____
ROOT
ATOM      2  O   UNL     1      10.358   6.905  -1.748  0.00  0.00    -0.336 OA
ATOM      4  N   UNL     1      10.427   5.192  -0.306  0.00  0.00    -0.190 NA
ATOM      5  N   UNL     1      10.078   7.446  -0.487  0.00  0.00    -0.056 NA
ATOM     14  C   UNL     1      10.551   5.574  -1.551  0.00  0.00    +0.245 A 
ATOM     18  C   UNL     1      10.137   6.375   0.310  0.00  0.00    +0.204 A 
ENDROOT
BRANCH  18  21
ATOM      6  N   UNL     1      10.146   5.449   3.911  0.00  0.00    -0.254 NA
ATOM     21  C   UNL     1       9.911   6.452   1.724  0.00  0.00    +0.041 A 
ATOM     23  C   UNL     1       9.263   7.546   2.287  0.00  0.00    +0.015 A 
ATOM     24  C   UNL     1      10.329   5.439   2.571  0.00  0.00    +0.123 A 
ATOM     25  C   UNL     1       9.057   7.592   3.662  0.00  0.00    +0.029 A 
ATOM     26  C   UNL     1       9.513   6.528   4.423  0.00  0.00    +0.074 A 
BRANCH  26  27
ATOM      7  N   UNL     1       9.639   5.415   7.978  0.00  0.00    -0.243 NA
ATOM      8  N   UNL     1       8.508   7.540   7.867  0.00  0.00    -0.243 NA
ATOM     27  C   UNL     1       9.335   6.509   5.856  0.00  0.00    +0.037 A 
ATOM     28  C   UNL     1       9.790   5.468   6.638  0.00  0.00    +0.124 A 
ATOM     29  C   UNL     1       8.695   7.528   6.531  0.00  0.00    +0.124 A 
ATOM     30  C   UNL     1       8.999   6.469   8.519  0.00  0.00    +0.221 A 
ENDBRANCH  26  27
ENDBRANCH  18  21
BRANCH  14   9
ATOM      3  N   UNL     1      11.751   3.602  -2.481  0.00  0.00    -0.287 NA
ATOM      9  C   UNL     1      10.874   4.751  -2.781  0.00  0.00    +0.146 C 
ATOM     10  C   UNL     1       9.622   4.129  -3.426  0.00  0.00    +0.030 C 
ATOM     11  C   UNL     1       9.912   2.637  -3.501  0.00  0.00    +0.017 C 
ATOM     12  C   UNL     1      11.426   2.565  -3.461  0.00  0.00    +0.085 C 
BRANCH   3  13
ATOM     13  C   UNL     1      13.169   3.941  -2.493  0.00  0.00    +0.123 C 
BRANCH  13  15
ATOM      1  F   UNL     1      15.859   4.637  -1.943  0.00  0.00    -0.205 F 
ATOM     15  C   UNL     1      13.784   3.824  -1.124  0.00  0.00    +0.002 A 
ATOM     16  C   UNL     1      15.117   4.184  -0.922  0.00  0.00    +0.128 A 
ATOM     17  C   UNL     1      13.020   3.354  -0.056  0.00  0.00    +0.008 A 
ATOM     19  C   UNL     1      15.684   4.074   0.347  0.00  0.00    +0.038 A 
ATOM     20  C   UNL     1      13.588   3.244   1.213  0.00  0.00    +0.000 A 
ATOM     22  C   UNL     1      14.920   3.604   1.414  0.00  0.00    +0.003 A 
ENDBRANCH  13  15
ENDBRANCH   3  13
ENDBRANCH  14   9
TORSDOF 5
ENDMDL
MODEL 7
REMARK VINA RESULT:      -7.0      1.533      2.419
REMARK  Name = 51136908
REMARK  5 active torsions:
REMARK  status: ('A' for Active; 'I' for Inactive)
REMARK    1  A    between atoms: N_3  and  C_13
REMARK    2  A    between atoms: C_9  and  C_14
REMARK    3  A    between atoms: C_13  and  C_15
REMARK    4  A    between atoms: C_18  and  C_21
REMARK    5  A    between atoms: C_26  and  C_27
REMARK                            x       y       z     vdW  Elec       q    Type
REMARK                         _______ _______ _______ _____ _____    ______ ____
ROOT
ATOM      2  O   UNL     1     -17.126   1.281  24.121  0.00  0.00    -0.336 OA
ATOM      4  N   UNL     1     -17.574   2.956  25.539  0.00  0.00    -0.190 NA
ATOM      5  N   UNL     1     -16.526   0.933  25.337  0.00  0.00    -0.056 NA
ATOM     14  C   UNL     1     -17.722   2.486  24.327  0.00  0.00    +0.245 A 
ATOM     18  C   UNL     1     -16.834   1.969  26.123  0.00  0.00    +0.204 A 
ENDROOT
BRANCH  18  21
ATOM      6  N   UNL     1     -15.537   3.383  29.308  0.00  0.00    -0.254 NA
ATOM     21  C   UNL     1     -16.418   2.051  27.492  0.00  0.00    +0.041 A 
ATOM     23  C   UNL     1     -16.474   0.939  28.325  0.00  0.00    +0.015 A 
ATOM     24  C   UNL     1     -15.946   3.239  28.027  0.00  0.00    +0.123 A 
ATOM     25  C   UNL     1     -16.063   1.048  29.650  0.00  0.00    +0.029 A 
ATOM     26  C   UNL     1     -15.607   2.281  30.088  0.00  0.00    +0.074 A 
BRANCH  26  27
ATOM      7  N   UNL     1     -14.498   3.931  33.240  0.00  0.00    -0.243 NA
ATOM      8  N   UNL     1     -14.545   1.547  33.586  0.00  0.00    -0.243 NA
ATOM     27  C   UNL     1     -15.164   2.468  31.450  0.00  0.00    +0.037 A 
ATOM     28  C   UNL     1     -14.914   3.719  31.975  0.00  0.00    +0.124 A 
ATOM     29  C   UNL     1     -14.961   1.408  32.309  0.00  0.00    +0.124 A 
ATOM     30  C   UNL     1     -14.337   2.817  33.980  0.00  0.00    +0.221 A 
ENDBRANCH  26  27
ENDBRANCH  18  21
BRANCH  14   9
ATOM      3  N   UNL     1     -17.536   3.707  22.167  0.00  0.00    -0.287 NA
ATOM      9  C   UNL     1     -18.452   3.087  23.144  0.00  0.00    +0.146 C 
ATOM     10  C   UNL     1     -19.236   2.038  22.335  0.00  0.00    +0.030 C 
ATOM     11  C   UNL     1     -18.736   2.184  20.904  0.00  0.00    +0.017 C 
ATOM     12  C   UNL     1     -18.187   3.596  20.861  0.00  0.00    +0.085 C 
BRANCH   3  13
ATOM     13  C   UNL     1     -17.195   5.087  22.493  0.00  0.00    +0.123 C 
BRANCH  13  15
ATOM      1  F   UNL     1     -15.020   3.925  23.888  0.00  0.00    -0.205 F 
ATOM     15  C   UNL     1     -15.756   5.398  22.178  0.00  0.00    +0.002 A 
ATOM     16  C   UNL     1     -14.733   4.790  22.904  0.00  0.00    +0.128 A 
ATOM     17  C   UNL     1     -15.448   6.296  21.157  0.00  0.00    +0.008 A 
ATOM     19  C   UNL     1     -13.401   5.080  22.610  0.00  0.00    +0.038 A 
ATOM     20  C   UNL     1     -14.116   6.587  20.862  0.00  0.00    +0.000 A 
ATOM     22  C   UNL     1     -13.093   5.978  21.588  0.00  0.00    +0.003 A 
ENDBRANCH  13  15
ENDBRANCH   3  13
ENDBRANCH  14   9
TORSDOF 5
ENDMDL
MODEL 8
REMARK VINA RESULT:      -6.8     14.533     16.148
REMARK  Name = 51136908
REMARK  5 active torsions:
REMARK  status: ('A' for Active; 'I' for Inactive)
REMARK    1  A    between atoms: N_3  and  C_13
REMARK    2  A    between atoms: C_9  and  C_14
REMARK    3  A    between atoms: C_13  and  C_15
REMARK    4  A    between atoms: C_18  and  C_21
REMARK    5  A    between atoms: C_26  and  C_27
REMARK                            x       y       z     vdW  Elec       q    Type
REMARK                         _______ _______ _______ _____ _____    ______ ____
ROOT
ATOM      2  O   UNL     1     -14.135  -5.454  13.972  0.00  0.00    -0.336 OA
ATOM      4  N   UNL     1     -11.910  -5.231  13.834  0.00  0.00    -0.190 NA
ATOM      5  N   UNL     1     -13.592  -6.439  14.805  0.00  0.00    -0.056 NA
ATOM     14  C   UNL     1     -13.076  -4.787  13.439  0.00  0.00    +0.245 A 
ATOM     18  C   UNL     1     -12.277  -6.244  14.671  0.00  0.00    +0.204 A 
ENDROOT
BRANCH  18  21
ATOM      6  N   UNL     1      -9.661  -8.815  15.280  0.00  0.00    -0.254 NA
ATOM     21  C   UNL     1     -11.304  -7.044  15.358  0.00  0.00    +0.041 A 
ATOM     23  C   UNL     1     -11.049  -6.855  16.711  0.00  0.00    +0.015 A 
ATOM     24  C   UNL     1     -10.590  -8.027  14.693  0.00  0.00    +0.123 A 
ATOM     25  C   UNL     1     -10.100  -7.646  17.350  0.00  0.00    +0.029 A 
ATOM     26  C   UNL     1      -9.439  -8.604  16.597  0.00  0.00    +0.074 A 
BRANCH  26  27
ATOM      7  N   UNL     1      -7.837 -11.155  18.791  0.00  0.00    -0.243 NA
ATOM      8  N   UNL     1      -6.164 -10.229  17.324  0.00  0.00    -0.243 NA
ATOM     27  C   UNL     1      -8.441  -9.460  17.193  0.00  0.00    +0.037 A 
ATOM     28  C   UNL     1      -8.743 -10.342  18.209  0.00  0.00    +0.124 A 
ATOM     29  C   UNL     1      -7.123  -9.446  16.787  0.00  0.00    +0.124 A 
ATOM     30  C   UNL     1      -6.585 -11.048  18.306  0.00  0.00    +0.221 A 
ENDBRANCH  26  27
ENDBRANCH  18  21
BRANCH  14   9
ATOM      3  N   UNL     1     -13.234  -4.035  11.072  0.00  0.00    -0.287 NA
ATOM      9  C   UNL     1     -13.401  -3.654  12.489  0.00  0.00    +0.146 C 
ATOM     10  C   UNL     1     -14.866  -3.190  12.598  0.00  0.00    +0.030 C 
ATOM     11  C   UNL     1     -15.421  -3.287  11.184  0.00  0.00    +0.017 C 
ATOM     12  C   UNL     1     -14.184  -3.224  10.310  0.00  0.00    +0.085 C 
BRANCH   3  13
ATOM     13  C   UNL     1     -11.867  -3.874  10.592  0.00  0.00    +0.123 C 
BRANCH  13  15
ATOM      1  F   UNL     1      -9.601  -3.820   8.893  0.00  0.00    -0.205 F 
ATOM     15  C   UNL     1     -11.409  -5.066   9.794  0.00  0.00    +0.002 A 
ATOM     16  C   UNL     1     -10.283  -4.971   8.977  0.00  0.00    +0.128 A 
ATOM     17  C   UNL     1     -12.113  -6.267   9.875  0.00  0.00    +0.008 A 
ATOM     19  C   UNL     1      -9.862  -6.077   8.239  0.00  0.00    +0.038 A 
ATOM     20  C   UNL     1     -11.692  -7.373   9.137  0.00  0.00    +0.000 A 
ATOM     22  C   UNL     1     -10.566  -7.278   8.320  0.00  0.00    +0.003 A 
ENDBRANCH  13  15
ENDBRANCH   3  13
ENDBRANCH  14   9
TORSDOF 5
ENDMDL
MODEL 9
REMARK VINA RESULT:      -6.8     17.735     19.005
REMARK  Name = 51136908
REMARK  5 active torsions:
REMARK  status: ('A' for Active; 'I' for Inactive)
REMARK    1  A    between atoms: N_3  and  C_13
REMARK    2  A    between atoms: C_9  and  C_14
REMARK    3  A    between atoms: C_13  and  C_15
REMARK    4  A    between atoms: C_18  and  C_21
REMARK    5  A    between atoms: C_26  and  C_27
REMARK                            x       y       z     vdW  Elec       q    Type
REMARK                         _______ _______ _______ _____ _____    ______ ____
ROOT
ATOM      2  O   UNL     1      -5.778  -9.530  16.079  0.00  0.00    -0.336 OA
ATOM      4  N   UNL     1      -6.433 -11.369  17.179  0.00  0.00    -0.190 NA
ATOM      5  N   UNL     1      -7.013  -9.217  16.662  0.00  0.00    -0.056 NA
ATOM     14  C   UNL     1      -5.511 -10.816  16.433  0.00  0.00    +0.245 A 
ATOM     18  C   UNL     1      -7.334 -10.350  17.293  0.00  0.00    +0.204 A 
ENDROOT
BRANCH  18  21
ATOM      6  N   UNL     1     -10.860  -9.881  18.374  0.00  0.00    -0.254 NA
ATOM     21  C   UNL     1      -8.546 -10.499  18.045  0.00  0.00    +0.041 A 
ATOM     23  C   UNL     1      -8.613 -11.361  19.134  0.00  0.00    +0.015 A 
ATOM     24  C   UNL     1      -9.687  -9.788  17.708  0.00  0.00    +0.123 A 
ATOM     25  C   UNL     1      -9.803 -11.483  19.843  0.00  0.00    +0.029 A 
ATOM     26  C   UNL     1     -10.888 -10.729  19.427  0.00  0.00    +0.074 A 
BRANCH  26  27
ATOM      7  N   UNL     1     -13.745 -12.058  21.417  0.00  0.00    -0.243 NA
ATOM      8  N   UNL     1     -14.224  -9.781  20.793  0.00  0.00    -0.243 NA
ATOM     27  C   UNL     1     -12.155 -10.806  20.116  0.00  0.00    +0.037 A 
ATOM     28  C   UNL     1     -12.568 -11.950  20.766  0.00  0.00    +0.124 A 
ATOM     29  C   UNL     1     -13.032  -9.742  20.162  0.00  0.00    +0.124 A 
ATOM     30  C   UNL     1     -14.512 -10.952  21.391  0.00  0.00    +0.221 A 
ENDBRANCH  26  27
ENDBRANCH  18  21
BRANCH  14   9
ATOM      3  N   UNL     1      -3.764 -10.770  14.662  0.00  0.00    -0.287 NA
ATOM      9  C   UNL     1      -4.211 -11.399  15.920  0.00  0.00    +0.146 C 
ATOM     10  C   UNL     1      -3.040 -11.190  16.899  0.00  0.00    +0.030 C 
ATOM     11  C   UNL     1      -1.960 -10.492  16.085  0.00  0.00    +0.017 C 
ATOM     12  C   UNL     1      -2.303 -10.853  14.653  0.00  0.00    +0.085 C 
BRANCH   3  13
ATOM     13  C   UNL     1      -4.354 -11.376  13.475  0.00  0.00    +0.123 C 
BRANCH  13  15
ATOM      1  F   UNL     1      -2.508 -10.983  11.363  0.00  0.00    -0.205 F 
ATOM     15  C   UNL     1      -4.565 -10.368  12.377  0.00  0.00    +0.002 A 
ATOM     16  C   UNL     1      -3.615 -10.226  11.365  0.00  0.00    +0.128 A 
ATOM     17  C   UNL     1      -5.713  -9.577  12.371  0.00  0.00    +0.008 A 
ATOM     19  C   UNL     1      -3.813  -9.291  10.349  0.00  0.00    +0.038 A 
ATOM     20  C   UNL     1      -5.911  -8.642  11.355  0.00  0.00    +0.000 A 
ATOM     22  C   UNL     1      -4.961  -8.500  10.344  0.00  0.00    +0.003 A 
ENDBRANCH  13  15
ENDBRANCH   3  13
ENDBRANCH  14   9
TORSDOF 5
ENDMDL
MODEL 10
REMARK VINA RESULT:      -6.7      2.706      4.567
REMARK  Name = 51136908
REMARK  5 active torsions:
REMARK  status: ('A' for Active; 'I' for Inactive)
REMARK    1  A    between atoms: N_3  and  C_13
REMARK    2  A    between atoms: C_9  and  C_14
REMARK    3  A    between atoms: C_13  and  C_15
REMARK    4  A    between atoms: C_18  and  C_21
REMARK    5  A    between atoms: C_26  and  C_27
REMARK                            x       y       z     vdW  Elec       q    Type
REMARK                         _______ _______ _______ _____ _____    ______ ____
ROOT
ATOM      2  O   UNL     1     -16.812   0.480  26.852  0.00  0.00    -0.336 OA
ATOM      4  N   UNL     1     -17.273   2.587  27.455  0.00  0.00    -0.190 NA
ATOM      5  N   UNL     1     -16.106   0.709  28.039  0.00  0.00    -0.056 NA
ATOM     14  C   UNL     1     -17.473   1.637  26.578  0.00  0.00    +0.245 A 
ATOM     18  C   UNL     1     -16.429   1.972  28.332  0.00  0.00    +0.204 A 
ENDROOT
BRANCH  18  21
ATOM      6  N   UNL     1     -16.361   3.995  31.451  0.00  0.00    -0.254 NA
ATOM     21  C   UNL     1     -15.924   2.648  29.492  0.00  0.00    +0.041 A 
ATOM     23  C   UNL     1     -14.567   2.633  29.795  0.00  0.00    +0.015 A 
ATOM     24  C   UNL     1     -16.772   3.336  30.344  0.00  0.00    +0.123 A 
ATOM     25  C   UNL     1     -14.107   3.299  30.927  0.00  0.00    +0.029 A 
ATOM     26  C   UNL     1     -15.036   3.959  31.715  0.00  0.00    +0.074 A 
BRANCH  26  27
ATOM      7  N   UNL     1     -13.838   6.682  33.960  0.00  0.00    -0.243 NA
ATOM      8  N   UNL     1     -14.242   4.707  35.280  0.00  0.00    -0.243 NA
ATOM     27  C   UNL     1     -14.630   4.669  32.904  0.00  0.00    +0.037 A 
ATOM     28  C   UNL     1     -14.225   5.988  32.869  0.00  0.00    +0.124 A 
ATOM     29  C   UNL     1     -14.619   4.073  34.149  0.00  0.00    +0.124 A 
ATOM     30  C   UNL     1     -13.871   5.990  35.115  0.00  0.00    +0.221 A 
ENDBRANCH  26  27
ENDBRANCH  18  21
BRANCH  14   9
ATOM      3  N   UNL     1     -17.614   2.215  24.162  0.00  0.00    -0.287 NA
ATOM      9  C   UNL     1     -18.323   1.647  25.325  0.00  0.00    +0.146 C 
ATOM     10  C   UNL     1     -18.737   0.233  24.878  0.00  0.00    +0.030 C 
ATOM     11  C   UNL     1     -18.273   0.121  23.433  0.00  0.00    +0.017 C 
ATOM     12  C   UNL     1     -18.171   1.563  22.977  0.00  0.00    +0.085 C 
BRANCH   3  13
ATOM     13  C   UNL     1     -17.710   3.668  24.084  0.00  0.00    +0.123 C 
BRANCH  13  15
ATOM      1  F   UNL     1     -15.143   3.659  25.283  0.00  0.00    -0.205 F 
ATOM     15  C   UNL     1     -16.496   4.275  23.432  0.00  0.00    +0.002 A 
ATOM     16  C   UNL     1     -15.260   4.236  24.078  0.00  0.00    +0.128 A 
ATOM     17  C   UNL     1     -16.609   4.878  22.180  0.00  0.00    +0.008 A 
ATOM     19  C   UNL     1     -14.138   4.800  23.472  0.00  0.00    +0.038 A 
ATOM     20  C   UNL     1     -15.487   5.441  21.573  0.00  0.00    +0.000 A 
ATOM     22  C   UNL     1     -14.251   5.402  22.219  0.00  0.00    +0.003 A 
ENDBRANCH  13  15
ENDBRANCH   3  13
ENDBRANCH  14   9
TORSDOF 5
ENDMDL
