MODEL 1
REMARK VINA RESULT:      -7.3      0.000      0.000
REMARK  Name = 7049366
REMARK  8 active torsions:
REMARK  status: ('A' for Active; 'I' for Inactive)
REMARK    1  A    between atoms: O_2  and  C_11
REMARK    2  A    between atoms: O_3  and  C_13
REMARK    3  A    between atoms: N_7  and  C_12
REMARK    4  A    between atoms: N_8  and  C_19
REMARK    5  A    between atoms: N_9  and  C_22
REMARK    6  A    between atoms: C_15  and  C_17
REMARK    7  A    between atoms: C_19  and  C_20
REMARK    8  A    between atoms: C_19  and  C_21
REMARK                            x       y       z     vdW  Elec       q    Type
REMARK                         _______ _______ _______ _____ _____    ______ ____
ROOT
ATOM     11  C   UNL     1      11.336   7.624  22.058  0.00  0.00    +0.167 C 
ATOM     12  C   UNL     1      11.803   9.033  21.644  0.00  0.00    +0.129 C 
ATOM     13  C   UNL     1      12.042   6.535  21.240  0.00  0.00    +0.149 C 
ATOM     14  C   UNL     1      11.852   6.736  19.727  0.00  0.00    +0.074 C 
ATOM     15  C   UNL     1      11.905   8.176  19.305  0.00  0.00    +0.015 C 
ATOM     16  C   UNL     1      11.893   9.215  20.154  0.00  0.00    +0.006 C 
ENDROOT
BRANCH  12   7
ATOM      5  O   UNL     1      12.621  11.326  23.154  0.00  0.00    -0.252 OA
ATOM      7  N   UNL     1      10.946  10.058  22.188  0.00  0.00    -0.290 N 
ATOM      9  N   UNL     1      10.372  11.975  23.315  0.00  0.00    -0.268 N 
ATOM     18  C   UNL     1      11.429  11.152  22.918  0.00  0.00    +0.304 C 
ATOM     28  H   UNL     1       9.941   9.957  22.084  0.00  0.00    +0.151 HD
ATOM     32  H   UNL     1       9.437  11.689  23.037  0.00  0.00    +0.156 HD
BRANCH   9  22
ATOM      1 BR   UNL     1       9.760  14.587  21.641  0.00  0.00    -0.048 Br
ATOM     22  C   UNL     1      10.439  13.173  24.064  0.00  0.00    +0.049 A 
ATOM     23  C   UNL     1      10.197  14.416  23.480  0.00  0.00    +0.039 A 
ATOM     24  C   UNL     1      10.757  13.089  25.420  0.00  0.00    +0.024 A 
ATOM     25  C   UNL     1      10.273  15.576  24.251  0.00  0.00    +0.017 A 
ATOM     26  C   UNL     1      10.833  14.249  26.191  0.00  0.00    +0.002 A 
ATOM     27  C   UNL     1      10.591  15.492  25.606  0.00  0.00    +0.001 A 
ENDBRANCH   9  22
ENDBRANCH  12   7
BRANCH  15  17
ATOM      4  O   UNL     1      11.219   7.963  17.068  0.00  0.00    -0.271 OA
ATOM      8  N   UNL     1      13.025   9.350  17.568  0.00  0.00    -0.301 N 
ATOM     17  C   UNL     1      11.998   8.473  17.872  0.00  0.00    +0.240 C 
ATOM     31  H   UNL     1      13.613   9.708  18.317  0.00  0.00    +0.150 HD
BRANCH   8  19
ATOM     19  C   UNL     1      13.315   9.790  16.223  0.00  0.00    +0.156 C 
ATOM     20  C   UNL     1      14.232   8.808  15.512  0.00  0.00    +0.038 C 
BRANCH  19  21
ATOM      6  O   UNL     1      14.075  11.806  17.345  0.00  0.00    -0.274 OA
ATOM     10  N   UNL     1      14.408  11.618  15.079  0.00  0.00    -0.328 N 
ATOM     21  C   UNL     1      13.948  11.171  16.300  0.00  0.00    +0.231 C 
ATOM     33  H   UNL     1      14.863  12.521  14.994  0.00  0.00    +0.145 HD
ATOM     34  H   UNL     1      14.314  11.074  14.228  0.00  0.00    +0.145 HD
ENDBRANCH  19  21
ENDBRANCH   8  19
ENDBRANCH  15  17
BRANCH  11   2
ATOM      2  O   UNL     1       9.926   7.507  21.860  0.00  0.00    -0.387 OA
ATOM     29  H   UNL     1       9.786   7.111  20.983  0.00  0.00    +0.210 HD
ENDBRANCH  11   2
BRANCH  13   3
ATOM      3  O   UNL     1      13.431   6.503  21.560  0.00  0.00    -0.389 OA
ATOM     30  H   UNL     1      13.815   7.356  21.291  0.00  0.00    +0.210 HD
ENDBRANCH  13   3
TORSDOF 7
ENDMDL
MODEL 2
REMARK VINA RESULT:      -6.9      3.605      4.821
REMARK  Name = 7049366
REMARK  8 active torsions:
REMARK  status: ('A' for Active; 'I' for Inactive)
REMARK    1  A    between atoms: O_2  and  C_11
REMARK    2  A    between atoms: O_3  and  C_13
REMARK    3  A    between atoms: N_7  and  C_12
REMARK    4  A    between atoms: N_8  and  C_19
REMARK    5  A    between atoms: N_9  and  C_22
REMARK    6  A    between atoms: C_15  and  C_17
REMARK    7  A    between atoms: C_19  and  C_20
REMARK    8  A    between atoms: C_19  and  C_21
REMARK                            x       y       z     vdW  Elec       q    Type
REMARK                         _______ _______ _______ _____ _____    ______ ____
ROOT
ATOM     11  C   UNL     1      12.936   9.285  18.083  0.00  0.00    +0.167 C 
ATOM     12  C   UNL     1      12.714   9.345  19.607  0.00  0.00    +0.129 C 
ATOM     13  C   UNL     1      13.367   7.884  17.632  0.00  0.00    +0.149 C 
ATOM     14  C   UNL     1      14.625   7.400  18.373  0.00  0.00    +0.074 C 
ATOM     15  C   UNL     1      14.649   7.787  19.824  0.00  0.00    +0.015 C 
ATOM     16  C   UNL     1      13.793   8.651  20.392  0.00  0.00    +0.006 C 
ENDROOT
BRANCH  12   7
ATOM      5  O   UNL     1      11.113  10.275  21.792  0.00  0.00    -0.252 OA
ATOM      7  N   UNL     1      12.599  10.705  20.074  0.00  0.00    -0.290 N 
ATOM      9  N   UNL     1      11.880  12.454  21.377  0.00  0.00    -0.268 N 
ATOM     18  C   UNL     1      11.791  11.077  21.155  0.00  0.00    +0.304 C 
ATOM     28  H   UNL     1      13.086  11.437  19.564  0.00  0.00    +0.151 HD
ATOM     32  H   UNL     1      12.490  12.981  20.756  0.00  0.00    +0.156 HD
BRANCH   9  22
ATOM      1 BR   UNL     1      13.171  12.231  24.255  0.00  0.00    -0.048 Br
ATOM     22  C   UNL     1      11.221  13.219  22.368  0.00  0.00    +0.049 A 
ATOM     23  C   UNL     1      11.660  13.233  23.692  0.00  0.00    +0.039 A 
ATOM     24  C   UNL     1      10.107  13.970  21.994  0.00  0.00    +0.024 A 
ATOM     25  C   UNL     1      10.985  13.999  24.642  0.00  0.00    +0.017 A 
ATOM     26  C   UNL     1       9.431  14.735  22.945  0.00  0.00    +0.002 A 
ATOM     27  C   UNL     1       9.871  14.749  24.269  0.00  0.00    +0.001 A 
ENDBRANCH   9  22
ENDBRANCH  12   7
BRANCH  15  17
ATOM      4  O   UNL     1      15.401   6.880  21.857  0.00  0.00    -0.271 OA
ATOM      8  N   UNL     1      16.868   6.966  20.047  0.00  0.00    -0.301 N 
ATOM     17  C   UNL     1      15.658   7.167  20.688  0.00  0.00    +0.240 C 
ATOM     31  H   UNL     1      16.969   7.248  19.075  0.00  0.00    +0.150 HD
BRANCH   8  19
ATOM     19  C   UNL     1      18.016   6.372  20.694  0.00  0.00    +0.156 C 
ATOM     20  C   UNL     1      19.012   7.436  21.124  0.00  0.00    +0.038 C 
BRANCH  19  21
ATOM      6  O   UNL     1      19.641   4.710  19.993  0.00  0.00    -0.274 OA
ATOM     10  N   UNL     1      17.972   5.299  18.529  0.00  0.00    -0.328 N 
ATOM     21  C   UNL     1      18.651   5.387  19.726  0.00  0.00    +0.231 C 
ATOM     33  H   UNL     1      18.286   4.668  17.798  0.00  0.00    +0.145 HD
ATOM     34  H   UNL     1      17.144   5.850  18.330  0.00  0.00    +0.145 HD
ENDBRANCH  19  21
ENDBRANCH   8  19
ENDBRANCH  15  17
BRANCH  11   2
ATOM      2  O   UNL     1      13.948  10.220  17.708  0.00  0.00    -0.387 OA
ATOM     29  H   UNL     1      13.541  10.867  17.106  0.00  0.00    +0.210 HD
ENDBRANCH  11   2
BRANCH  13   3
ATOM      3  O   UNL     1      12.300   6.957  17.823  0.00  0.00    -0.389 OA
ATOM     30  H   UNL     1      11.464   7.449  17.743  0.00  0.00    +0.210 HD
ENDBRANCH  13   3
TORSDOF 7
ENDMDL
MODEL 3
REMARK VINA RESULT:      -6.9      9.671     12.520
REMARK  Name = 7049366
REMARK  8 active torsions:
REMARK  status: ('A' for Active; 'I' for Inactive)
REMARK    1  A    between atoms: O_2  and  C_11
REMARK    2  A    between atoms: O_3  and  C_13
REMARK    3  A    between atoms: N_7  and  C_12
REMARK    4  A    between atoms: N_8  and  C_19
REMARK    5  A    between atoms: N_9  and  C_22
REMARK    6  A    between atoms: C_15  and  C_17
REMARK    7  A    between atoms: C_19  and  C_20
REMARK    8  A    between atoms: C_19  and  C_21
REMARK                            x       y       z     vdW  Elec       q    Type
REMARK                         _______ _______ _______ _____ _____    ______ ____
ROOT
ATOM     11  C   UNL     1      20.761   7.241  21.302  0.00  0.00    +0.167 C 
ATOM     12  C   UNL     1      20.447   5.772  20.956  0.00  0.00    +0.129 C 
ATOM     13  C   UNL     1      19.522   7.970  21.834  0.00  0.00    +0.149 C 
ATOM     14  C   UNL     1      18.341   7.896  20.851  0.00  0.00    +0.074 C 
ATOM     15  C   UNL     1      18.219   6.566  20.165  0.00  0.00    +0.015 C 
ATOM     16  C   UNL     1      19.151   5.601  20.211  0.00  0.00    +0.006 C 
ENDROOT
BRANCH  12   7
ATOM      5  O   UNL     1      23.139   5.319  21.821  0.00  0.00    -0.252 OA
ATOM      7  N   UNL     1      21.509   5.167  20.189  0.00  0.00    -0.290 N 
ATOM      9  N   UNL     1      23.613   4.373  19.726  0.00  0.00    -0.268 N 
ATOM     18  C   UNL     1      22.803   4.981  20.690  0.00  0.00    +0.304 C 
ATOM     28  H   UNL     1      21.326   4.911  19.223  0.00  0.00    +0.151 HD
ATOM     32  H   UNL     1      23.180   4.156  18.832  0.00  0.00    +0.156 HD
BRANCH   9  22
ATOM      1 BR   UNL     1      24.125   1.677  21.297  0.00  0.00    -0.048 Br
ATOM     22  C   UNL     1      24.978   4.018  19.838  0.00  0.00    +0.049 A 
ATOM     23  C   UNL     1      25.379   2.859  20.501  0.00  0.00    +0.039 A 
ATOM     24  C   UNL     1      25.931   4.860  19.266  0.00  0.00    +0.024 A 
ATOM     25  C   UNL     1      26.735   2.541  20.592  0.00  0.00    +0.017 A 
ATOM     26  C   UNL     1      27.286   4.543  19.357  0.00  0.00    +0.002 A 
ATOM     27  C   UNL     1      27.688   3.383  20.020  0.00  0.00    +0.001 A 
ENDBRANCH   9  22
ENDBRANCH  12   7
BRANCH  15  17
ATOM      4  O   UNL     1      16.948   5.369  18.592  0.00  0.00    -0.271 OA
ATOM      8  N   UNL     1      15.957   7.150  19.725  0.00  0.00    -0.301 N 
ATOM     17  C   UNL     1      16.993   6.287  19.411  0.00  0.00    +0.240 C 
ATOM     31  H   UNL     1      16.110   7.879  20.418  0.00  0.00    +0.150 HD
BRANCH   8  19
ATOM     19  C   UNL     1      14.652   7.074  19.110  0.00  0.00    +0.156 C 
ATOM     20  C   UNL     1      14.375   8.305  18.261  0.00  0.00    +0.038 C 
BRANCH  19  21
ATOM      6  O   UNL     1      13.797   7.286  21.373  0.00  0.00    -0.274 OA
ATOM     10  N   UNL     1      12.428   6.387  19.761  0.00  0.00    -0.328 N 
ATOM     21  C   UNL     1      13.615   6.926  20.211  0.00  0.00    +0.231 C 
ATOM     33  H   UNL     1      11.648   6.246  20.394  0.00  0.00    +0.145 HD
ATOM     34  H   UNL     1      12.285   6.114  18.794  0.00  0.00    +0.145 HD
ENDBRANCH  19  21
ENDBRANCH   8  19
ENDBRANCH  15  17
BRANCH  11   2
ATOM      2  O   UNL     1      21.229   7.919  20.135  0.00  0.00    -0.387 OA
ATOM     29  H   UNL     1      21.902   8.561  20.419  0.00  0.00    +0.210 HD
ENDBRANCH  11   2
BRANCH  13   3
ATOM      3  O   UNL     1      19.141   7.433  23.099  0.00  0.00    -0.389 OA
ATOM     30  H   UNL     1      18.527   6.696  22.933  0.00  0.00    +0.210 HD
ENDBRANCH  13   3
TORSDOF 7
ENDMDL
MODEL 4
REMARK VINA RESULT:      -6.8     16.272     20.527
REMARK  Name = 7049366
REMARK  8 active torsions:
REMARK  status: ('A' for Active; 'I' for Inactive)
REMARK    1  A    between atoms: O_2  and  C_11
REMARK    2  A    between atoms: O_3  and  C_13
REMARK    3  A    between atoms: N_7  and  C_12
REMARK    4  A    between atoms: N_8  and  C_19
REMARK    5  A    between atoms: N_9  and  C_22
REMARK    6  A    between atoms: C_15  and  C_17
REMARK    7  A    between atoms: C_19  and  C_20
REMARK    8  A    between atoms: C_19  and  C_21
REMARK                            x       y       z     vdW  Elec       q    Type
REMARK                         _______ _______ _______ _____ _____    ______ ____
ROOT
ATOM     11  C   UNL     1      13.153   3.789   1.778  0.00  0.00    +0.167 C 
ATOM     12  C   UNL     1      11.922   4.709   1.666  0.00  0.00    +0.129 C 
ATOM     13  C   UNL     1      13.972   3.786   0.481  0.00  0.00    +0.149 C 
ATOM     14  C   UNL     1      13.122   3.392  -0.738  0.00  0.00    +0.074 C 
ATOM     15  C   UNL     1      11.731   3.958  -0.704  0.00  0.00    +0.015 C 
ATOM     16  C   UNL     1      11.184   4.559   0.364  0.00  0.00    +0.006 C 
ENDROOT
BRANCH  12   7
ATOM      5  O   UNL     1      11.773   6.204   4.106  0.00  0.00    -0.252 OA
ATOM      7  N   UNL     1      10.999   4.496   2.753  0.00  0.00    -0.290 N 
ATOM      9  N   UNL     1       9.991   4.838   4.788  0.00  0.00    -0.268 N 
ATOM     18  C   UNL     1      10.992   5.275   3.917  0.00  0.00    +0.304 C 
ATOM     28  H   UNL     1      10.356   3.711   2.698  0.00  0.00    +0.151 HD
ATOM     32  H   UNL     1       9.425   4.051   4.481  0.00  0.00    +0.156 HD
BRANCH   9  22
ATOM      1 BR   UNL     1       8.293   7.504   4.696  0.00  0.00    -0.048 Br
ATOM     22  C   UNL     1       9.660   5.359   6.062  0.00  0.00    +0.049 A 
ATOM     23  C   UNL     1       8.915   6.529   6.202  0.00  0.00    +0.039 A 
ATOM     24  C   UNL     1      10.099   4.671   7.193  0.00  0.00    +0.024 A 
ATOM     25  C   UNL     1       8.609   7.013   7.474  0.00  0.00    +0.017 A 
ATOM     26  C   UNL     1       9.793   5.155   8.465  0.00  0.00    +0.002 A 
ATOM     27  C   UNL     1       9.047   6.326   8.605  0.00  0.00    +0.001 A 
ENDBRANCH   9  22
ENDBRANCH  12   7
BRANCH  15  17
ATOM      4  O   UNL     1       9.848   4.470  -2.012  0.00  0.00    -0.271 OA
ATOM      8  N   UNL     1      11.489   3.069  -2.895  0.00  0.00    -0.301 N 
ATOM     17  C   UNL     1      10.920   3.872  -1.921  0.00  0.00    +0.240 C 
ATOM     31  H   UNL     1      12.381   2.617  -2.708  0.00  0.00    +0.150 HD
BRANCH   8  19
ATOM     19  C   UNL     1      10.874   2.828  -4.180  0.00  0.00    +0.156 C 
ATOM     20  C   UNL     1      10.990   4.049  -5.078  0.00  0.00    +0.038 C 
BRANCH  19  21
ATOM      6  O   UNL     1       9.057   1.413  -3.408  0.00  0.00    -0.274 OA
ATOM     10  N   UNL     1       8.542   3.435  -4.370  0.00  0.00    -0.328 N 
ATOM     21  C   UNL     1       9.418   2.457  -3.949  0.00  0.00    +0.231 C 
ATOM     33  H   UNL     1       7.540   3.317  -4.262  0.00  0.00    +0.145 HD
ATOM     34  H   UNL     1       8.855   4.301  -4.796  0.00  0.00    +0.145 HD
ENDBRANCH  19  21
ENDBRANCH   8  19
ENDBRANCH  15  17
BRANCH  11   2
ATOM      2  O   UNL     1      12.730   2.453   2.058  0.00  0.00    -0.387 OA
ATOM     29  H   UNL     1      12.063   2.499   2.764  0.00  0.00    +0.210 HD
ENDBRANCH  11   2
BRANCH  13   3
ATOM      3  O   UNL     1      14.566   5.065   0.272  0.00  0.00    -0.389 OA
ATOM     30  H   UNL     1      15.386   4.930  -0.235  0.00  0.00    +0.210 HD
ENDBRANCH  13   3
TORSDOF 7
ENDMDL
MODEL 5
REMARK VINA RESULT:      -6.5     28.094     29.237
REMARK  Name = 7049366
REMARK  8 active torsions:
REMARK  status: ('A' for Active; 'I' for Inactive)
REMARK    1  A    between atoms: O_2  and  C_11
REMARK    2  A    between atoms: O_3  and  C_13
REMARK    3  A    between atoms: N_7  and  C_12
REMARK    4  A    between atoms: N_8  and  C_19
REMARK    5  A    between atoms: N_9  and  C_22
REMARK    6  A    between atoms: C_15  and  C_17
REMARK    7  A    between atoms: C_19  and  C_20
REMARK    8  A    between atoms: C_19  and  C_21
REMARK                            x       y       z     vdW  Elec       q    Type
REMARK                         _______ _______ _______ _____ _____    ______ ____
ROOT
ATOM     11  C   UNL     1     -14.229   1.617  31.404  0.00  0.00    +0.167 C 
ATOM     12  C   UNL     1     -14.319   2.852  30.487  0.00  0.00    +0.129 C 
ATOM     13  C   UNL     1     -14.230   0.314  30.594  0.00  0.00    +0.149 C 
ATOM     14  C   UNL     1     -15.459   0.207  29.675  0.00  0.00    +0.074 C 
ATOM     15  C   UNL     1     -15.845   1.511  29.040  0.00  0.00    +0.015 C 
ATOM     16  C   UNL     1     -15.336   2.704  29.389  0.00  0.00    +0.006 C 
ENDROOT
BRANCH  12   7
ATOM      5  O   UNL     1     -12.518   4.297  32.183  0.00  0.00    -0.252 OA
ATOM      7  N   UNL     1     -14.613   4.049  31.236  0.00  0.00    -0.290 N 
ATOM      9  N   UNL     1     -14.239   5.826  32.643  0.00  0.00    -0.268 N 
ATOM     18  C   UNL     1     -13.671   4.697  32.044  0.00  0.00    +0.304 C 
ATOM     28  H   UNL     1     -15.561   4.413  31.219  0.00  0.00    +0.151 HD
ATOM     32  H   UNL     1     -15.212   6.021  32.424  0.00  0.00    +0.156 HD
BRANCH   9  22
ATOM      1 BR   UNL     1     -14.227   4.905  35.667  0.00  0.00    -0.048 Br
ATOM     22  C   UNL     1     -13.622   6.743  33.525  0.00  0.00    +0.049 A 
ATOM     23  C   UNL     1     -13.532   6.493  34.894  0.00  0.00    +0.039 A 
ATOM     24  C   UNL     1     -13.097   7.922  32.995  0.00  0.00    +0.024 A 
ATOM     25  C   UNL     1     -12.916   7.421  35.734  0.00  0.00    +0.017 A 
ATOM     26  C   UNL     1     -12.483   8.851  33.835  0.00  0.00    +0.002 A 
ATOM     27  C   UNL     1     -12.392   8.599  35.205  0.00  0.00    +0.001 A 
ENDBRANCH   9  22
ENDBRANCH  12   7
BRANCH  15  17
ATOM      4  O   UNL     1     -17.979   1.098  28.148  0.00  0.00    -0.271 OA
ATOM      8  N   UNL     1     -16.312   1.931  26.748  0.00  0.00    -0.301 N 
ATOM     17  C   UNL     1     -16.828   1.487  27.953  0.00  0.00    +0.240 C 
ATOM     31  H   UNL     1     -15.340   2.227  26.702  0.00  0.00    +0.150 HD
BRANCH   8  19
ATOM     19  C   UNL     1     -17.089   1.996  25.532  0.00  0.00    +0.156 C 
ATOM     20  C   UNL     1     -17.415   0.604  25.016  0.00  0.00    +0.038 C 
BRANCH  19  21
ATOM      6  O   UNL     1     -16.317   2.551  23.297  0.00  0.00    -0.274 OA
ATOM     10  N   UNL     1     -15.590   3.833  25.060  0.00  0.00    -0.328 N 
ATOM     21  C   UNL     1     -16.298   2.788  24.503  0.00  0.00    +0.231 C 
ATOM     33  H   UNL     1     -15.030   4.449  24.480  0.00  0.00    +0.145 HD
ATOM     34  H   UNL     1     -15.601   4.029  26.056  0.00  0.00    +0.145 HD
ENDBRANCH  19  21
ENDBRANCH   8  19
ENDBRANCH  15  17
BRANCH  11   2
ATOM      2  O   UNL     1     -15.341   1.602  32.301  0.00  0.00    -0.387 OA
ATOM     29  H   UNL     1     -15.116   1.006  33.036  0.00  0.00    +0.210 HD
ENDBRANCH  11   2
BRANCH  13   3
ATOM      3  O   UNL     1     -13.033   0.212  29.826  0.00  0.00    -0.389 OA
ATOM     30  H   UNL     1     -13.103   0.842  29.087  0.00  0.00    +0.210 HD
ENDBRANCH  13   3
TORSDOF 7
ENDMDL
MODEL 6
REMARK VINA RESULT:      -6.4     26.699     28.932
REMARK  Name = 7049366
REMARK  8 active torsions:
REMARK  status: ('A' for Active; 'I' for Inactive)
REMARK    1  A    between atoms: O_2  and  C_11
REMARK    2  A    between atoms: O_3  and  C_13
REMARK    3  A    between atoms: N_7  and  C_12
REMARK    4  A    between atoms: N_8  and  C_19
REMARK    5  A    between atoms: N_9  and  C_22
REMARK    6  A    between atoms: C_15  and  C_17
REMARK    7  A    between atoms: C_19  and  C_20
REMARK    8  A    between atoms: C_19  and  C_21
REMARK                            x       y       z     vdW  Elec       q    Type
REMARK                         _______ _______ _______ _____ _____    ______ ____
ROOT
ATOM     11  C   UNL     1     -15.815   6.326  32.671  0.00  0.00    +0.167 C 
ATOM     12  C   UNL     1     -14.413   5.907  33.154  0.00  0.00    +0.129 C 
ATOM     13  C   UNL     1     -16.896   5.367  33.184  0.00  0.00    +0.149 C 
ATOM     14  C   UNL     1     -16.611   3.909  32.786  0.00  0.00    +0.074 C 
ATOM     15  C   UNL     1     -15.156   3.544  32.861  0.00  0.00    +0.015 C 
ATOM     16  C   UNL     1     -14.161   4.428  33.034  0.00  0.00    +0.006 C 
ENDROOT
BRANCH  12   7
ATOM      5  O   UNL     1     -13.223   8.400  33.910  0.00  0.00    -0.252 OA
ATOM      7  N   UNL     1     -13.374   6.615  32.448  0.00  0.00    -0.290 N 
ATOM      9  N   UNL     1     -11.856   8.281  32.006  0.00  0.00    -0.268 N 
ATOM     18  C   UNL     1     -12.844   7.835  32.888  0.00  0.00    +0.304 C 
ATOM     28  H   UNL     1     -13.045   6.241  31.563  0.00  0.00    +0.151 HD
ATOM     32  H   UNL     1     -11.658   7.693  31.201  0.00  0.00    +0.156 HD
BRANCH   9  22
ATOM      1 BR   UNL     1     -12.720  10.545  29.975  0.00  0.00    -0.048 Br
ATOM     22  C   UNL     1     -11.084   9.464  32.094  0.00  0.00    +0.049 A 
ATOM     23  C   UNL     1     -11.332  10.561  31.269  0.00  0.00    +0.039 A 
ATOM     24  C   UNL     1     -10.055   9.515  33.034  0.00  0.00    +0.024 A 
ATOM     25  C   UNL     1     -10.550  11.711  31.384  0.00  0.00    +0.017 A 
ATOM     26  C   UNL     1      -9.272  10.665  33.148  0.00  0.00    +0.002 A 
ATOM     27  C   UNL     1      -9.521  11.762  32.323  0.00  0.00    +0.001 A 
ENDBRANCH   9  22
ENDBRANCH  12   7
BRANCH  15  17
ATOM      4  O   UNL     1     -14.515   1.472  33.763  0.00  0.00    -0.271 OA
ATOM      8  N   UNL     1     -14.800   1.659  31.457  0.00  0.00    -0.301 N 
ATOM     17  C   UNL     1     -14.792   2.128  32.760  0.00  0.00    +0.240 C 
ATOM     31  H   UNL     1     -15.043   2.295  30.701  0.00  0.00    +0.150 HD
BRANCH   8  19
ATOM     19  C   UNL     1     -14.474   0.296  31.105  0.00  0.00    +0.156 C 
ATOM     20  C   UNL     1     -13.333   0.249  30.103  0.00  0.00    +0.038 C 
BRANCH  19  21
ATOM      6  O   UNL     1     -16.465   0.172  29.720  0.00  0.00    -0.274 OA
ATOM     10  N   UNL     1     -15.914  -1.643  31.018  0.00  0.00    -0.328 N 
ATOM     21  C   UNL     1     -15.723  -0.362  30.543  0.00  0.00    +0.231 C 
ATOM     33  H   UNL     1     -16.706  -2.198  30.711  0.00  0.00    +0.145 HD
ATOM     34  H   UNL     1     -15.282  -2.078  31.681  0.00  0.00    +0.145 HD
ENDBRANCH  19  21
ENDBRANCH   8  19
ENDBRANCH  15  17
BRANCH  11   2
ATOM      2  O   UNL     1     -15.848   6.336  31.243  0.00  0.00    -0.387 OA
ATOM     29  H   UNL     1     -15.314   5.585  30.933  0.00  0.00    +0.210 HD
ENDBRANCH  11   2
BRANCH  13   3
ATOM      3  O   UNL     1     -17.016   5.474  34.601  0.00  0.00    -0.389 OA
ATOM     30  H   UNL     1     -17.640   4.788  34.896  0.00  0.00    +0.210 HD
ENDBRANCH  13   3
TORSDOF 7
ENDMDL
MODEL 7
REMARK VINA RESULT:      -6.3      2.479      7.789
REMARK  Name = 7049366
REMARK  8 active torsions:
REMARK  status: ('A' for Active; 'I' for Inactive)
REMARK    1  A    between atoms: O_2  and  C_11
REMARK    2  A    between atoms: O_3  and  C_13
REMARK    3  A    between atoms: N_7  and  C_12
REMARK    4  A    between atoms: N_8  and  C_19
REMARK    5  A    between atoms: N_9  and  C_22
REMARK    6  A    between atoms: C_15  and  C_17
REMARK    7  A    between atoms: C_19  and  C_20
REMARK    8  A    between atoms: C_19  and  C_21
REMARK                            x       y       z     vdW  Elec       q    Type
REMARK                         _______ _______ _______ _____ _____    ______ ____
ROOT
ATOM     11  C   UNL     1      13.935   7.638  19.110  0.00  0.00    +0.167 C 
ATOM     12  C   UNL     1      13.103   8.877  18.724  0.00  0.00    +0.129 C 
ATOM     13  C   UNL     1      13.144   6.692  20.022  0.00  0.00    +0.149 C 
ATOM     14  C   UNL     1      12.630   7.403  21.285  0.00  0.00    +0.074 C 
ATOM     15  C   UNL     1      12.156   8.805  21.030  0.00  0.00    +0.015 C 
ATOM     16  C   UNL     1      12.354   9.475  19.883  0.00  0.00    +0.006 C 
ENDROOT
BRANCH  12   7
ATOM      5  O   UNL     1      13.040   9.731  15.990  0.00  0.00    -0.252 OA
ATOM      7  N   UNL     1      13.922   9.900  18.121  0.00  0.00    -0.290 N 
ATOM      9  N   UNL     1      14.740  11.275  16.473  0.00  0.00    -0.268 N 
ATOM     18  C   UNL     1      13.827  10.259  16.771  0.00  0.00    +0.304 C 
ATOM     28  H   UNL     1      14.637  10.347  18.687  0.00  0.00    +0.151 HD
ATOM     32  H   UNL     1      15.325  11.606  17.236  0.00  0.00    +0.156 HD
BRANCH   9  22
ATOM      1 BR   UNL     1      13.931  14.332  16.420  0.00  0.00    -0.048 Br
ATOM     22  C   UNL     1      14.956  11.911  15.228  0.00  0.00    +0.049 A 
ATOM     23  C   UNL     1      14.653  13.257  15.032  0.00  0.00    +0.039 A 
ATOM     24  C   UNL     1      15.486  11.155  14.182  0.00  0.00    +0.024 A 
ATOM     25  C   UNL     1      14.880  13.850  13.789  0.00  0.00    +0.017 A 
ATOM     26  C   UNL     1      15.712  11.747  12.939  0.00  0.00    +0.002 A 
ATOM     27  C   UNL     1      15.409  13.095  12.743  0.00  0.00    +0.001 A 
ENDBRANCH   9  22
ENDBRANCH  12   7
BRANCH  15  17
ATOM      4  O   UNL     1      10.670   8.858  22.848  0.00  0.00    -0.271 OA
ATOM      8  N   UNL     1      11.634  10.851  22.120  0.00  0.00    -0.301 N 
ATOM     17  C   UNL     1      11.409   9.486  22.091  0.00  0.00    +0.240 C 
ATOM     31  H   UNL     1      12.267  11.266  21.439  0.00  0.00    +0.150 HD
BRANCH   8  19
ATOM     19  C   UNL     1      11.008  11.736  23.076  0.00  0.00    +0.156 C 
ATOM     20  C   UNL     1      10.849  13.135  22.504  0.00  0.00    +0.038 C 
BRANCH  19  21
ATOM      6  O   UNL     1      12.816  12.507  24.502  0.00  0.00    -0.274 OA
ATOM     10  N   UNL     1      11.415  10.867  25.294  0.00  0.00    -0.328 N 
ATOM     21  C   UNL     1      11.859  11.754  24.336  0.00  0.00    +0.231 C 
ATOM     33  H   UNL     1      11.888  10.789  26.189  0.00  0.00    +0.145 HD
ATOM     34  H   UNL     1      10.610  10.266  25.151  0.00  0.00    +0.145 HD
ENDBRANCH  19  21
ENDBRANCH   8  19
ENDBRANCH  15  17
BRANCH  11   2
ATOM      2  O   UNL     1      15.121   8.050  19.792  0.00  0.00    -0.387 OA
ATOM     29  H   UNL     1      14.847   8.509  20.605  0.00  0.00    +0.210 HD
ENDBRANCH  11   2
BRANCH  13   3
ATOM      3  O   UNL     1      12.054   6.117  19.305  0.00  0.00    -0.389 OA
ATOM     30  H   UNL     1      11.385   6.812  19.178  0.00  0.00    +0.210 HD
ENDBRANCH  13   3
TORSDOF 7
ENDMDL
MODEL 8
REMARK VINA RESULT:      -6.3      5.492      8.717
REMARK  Name = 7049366
REMARK  8 active torsions:
REMARK  status: ('A' for Active; 'I' for Inactive)
REMARK    1  A    between atoms: O_2  and  C_11
REMARK    2  A    between atoms: O_3  and  C_13
REMARK    3  A    between atoms: N_7  and  C_12
REMARK    4  A    between atoms: N_8  and  C_19
REMARK    5  A    between atoms: N_9  and  C_22
REMARK    6  A    between atoms: C_15  and  C_17
REMARK    7  A    between atoms: C_19  and  C_20
REMARK    8  A    between atoms: C_19  and  C_21
REMARK                            x       y       z     vdW  Elec       q    Type
REMARK                         _______ _______ _______ _____ _____    ______ ____
ROOT
ATOM     11  C   UNL     1      14.421   6.879  19.967  0.00  0.00    +0.167 C 
ATOM     12  C   UNL     1      14.956   8.155  20.644  0.00  0.00    +0.129 C 
ATOM     13  C   UNL     1      13.016   7.095  19.390  0.00  0.00    +0.149 C 
ATOM     14  C   UNL     1      12.023   7.589  20.457  0.00  0.00    +0.074 C 
ATOM     15  C   UNL     1      12.623   8.572  21.420  0.00  0.00    +0.015 C 
ATOM     16  C   UNL     1      13.935   8.842  21.509  0.00  0.00    +0.006 C 
ENDROOT
BRANCH  12   7
ATOM      5  O   UNL     1      17.415   7.012  19.723  0.00  0.00    -0.252 OA
ATOM      7  N   UNL     1      16.131   7.884  21.436  0.00  0.00    -0.290 N 
ATOM      9  N   UNL     1      18.265   7.176  21.904  0.00  0.00    -0.268 N 
ATOM     18  C   UNL     1      17.298   7.321  20.905  0.00  0.00    +0.304 C 
ATOM     28  H   UNL     1      16.095   8.061  22.436  0.00  0.00    +0.151 HD
ATOM     32  H   UNL     1      18.010   7.483  22.839  0.00  0.00    +0.156 HD
BRANCH   9  22
ATOM      1 BR   UNL     1      20.381   8.477  23.862  0.00  0.00    -0.048 Br
ATOM     22  C   UNL     1      19.572   6.650  21.778  0.00  0.00    +0.049 A 
ATOM     23  C   UNL     1      20.626   7.112  22.565  0.00  0.00    +0.039 A 
ATOM     24  C   UNL     1      19.793   5.645  20.836  0.00  0.00    +0.024 A 
ATOM     25  C   UNL     1      21.902   6.569  22.412  0.00  0.00    +0.017 A 
ATOM     26  C   UNL     1      21.069   5.102  20.682  0.00  0.00    +0.002 A 
ATOM     27  C   UNL     1      22.123   5.565  21.471  0.00  0.00    +0.001 A 
ENDBRANCH   9  22
ENDBRANCH  12   7
BRANCH  15  17
ATOM      4  O   UNL     1      10.902   8.710  23.014  0.00  0.00    -0.271 OA
ATOM      8  N   UNL     1      11.899  10.676  22.256  0.00  0.00    -0.301 N 
ATOM     17  C   UNL     1      11.719   9.305  22.312  0.00  0.00    +0.240 C 
ATOM     31  H   UNL     1      12.606  11.060  21.633  0.00  0.00    +0.150 HD
BRANCH   8  19
ATOM     19  C   UNL     1      11.123  11.607  23.042  0.00  0.00    +0.156 C 
ATOM     20  C   UNL     1      10.977  12.939  22.325  0.00  0.00    +0.038 C 
BRANCH  19  21
ATOM      6  O   UNL     1      12.641  12.660  24.619  0.00  0.00    -0.274 OA
ATOM     10  N   UNL     1      11.373  10.883  25.335  0.00  0.00    -0.328 N 
ATOM     21  C   UNL     1      11.812  11.783  24.387  0.00  0.00    +0.231 C 
ATOM     33  H   UNL     1      11.744  10.901  26.279  0.00  0.00    +0.145 HD
ATOM     34  H   UNL     1      10.672  10.178  25.134  0.00  0.00    +0.145 HD
ENDBRANCH  19  21
ENDBRANCH   8  19
ENDBRANCH  15  17
BRANCH  11   2
ATOM      2  O   UNL     1      14.368   5.816  20.920  0.00  0.00    -0.387 OA
ATOM     29  H   UNL     1      14.255   4.985  20.426  0.00  0.00    +0.210 HD
ENDBRANCH  11   2
BRANCH  13   3
ATOM      3  O   UNL     1      13.068   8.019  18.305  0.00  0.00    -0.389 OA
ATOM     30  H   UNL     1      12.310   8.623  18.396  0.00  0.00    +0.210 HD
ENDBRANCH  13   3
TORSDOF 7
ENDMDL
MODEL 9
REMARK VINA RESULT:      -6.3     28.042     29.897
REMARK  Name = 7049366
REMARK  8 active torsions:
REMARK  status: ('A' for Active; 'I' for Inactive)
REMARK    1  A    between atoms: O_2  and  C_11
REMARK    2  A    between atoms: O_3  and  C_13
REMARK    3  A    between atoms: N_7  and  C_12
REMARK    4  A    between atoms: N_8  and  C_19
REMARK    5  A    between atoms: N_9  and  C_22
REMARK    6  A    between atoms: C_15  and  C_17
REMARK    7  A    between atoms: C_19  and  C_20
REMARK    8  A    between atoms: C_19  and  C_21
REMARK                            x       y       z     vdW  Elec       q    Type
REMARK                         _______ _______ _______ _____ _____    ______ ____
ROOT
ATOM     11  C   UNL     1     -11.096 -10.375  18.492  0.00  0.00    +0.167 C 
ATOM     12  C   UNL     1     -10.574  -9.091  17.816  0.00  0.00    +0.129 C 
ATOM     13  C   UNL     1     -10.112 -10.892  19.549  0.00  0.00    +0.149 C 
ATOM     14  C   UNL     1      -8.709 -11.129  18.966  0.00  0.00    +0.074 C 
ATOM     15  C   UNL     1      -8.293 -10.087  17.969  0.00  0.00    +0.015 C 
ATOM     16  C   UNL     1      -9.116  -9.161  17.452  0.00  0.00    +0.006 C 
ENDROOT
BRANCH  12   7
ATOM      5  O   UNL     1     -11.313  -6.472  16.922  0.00  0.00    -0.252 OA
ATOM      7  N   UNL     1     -11.335  -8.766  16.634  0.00  0.00    -0.290 N 
ATOM      9  N   UNL     1     -12.395  -7.448  15.081  0.00  0.00    -0.268 N 
ATOM     18  C   UNL     1     -11.654  -7.453  16.267  0.00  0.00    +0.304 C 
ATOM     28  H   UNL     1     -11.702  -9.526  16.068  0.00  0.00    +0.151 HD
ATOM     32  H   UNL     1     -12.595  -8.351  14.660  0.00  0.00    +0.156 HD
BRANCH   9  22
ATOM      1 BR   UNL     1     -15.552  -7.293  15.024  0.00  0.00    -0.048 Br
ATOM     22  C   UNL     1     -12.907  -6.329  14.383  0.00  0.00    +0.049 A 
ATOM     23  C   UNL     1     -14.279  -6.109  14.261  0.00  0.00    +0.039 A 
ATOM     24  C   UNL     1     -12.003  -5.435  13.809  0.00  0.00    +0.024 A 
ATOM     25  C   UNL     1     -14.747  -4.994  13.566  0.00  0.00    +0.017 A 
ATOM     26  C   UNL     1     -12.472  -4.321  13.113  0.00  0.00    +0.002 A 
ATOM     27  C   UNL     1     -13.844  -4.101  12.991  0.00  0.00    +0.001 A 
ENDBRANCH   9  22
ENDBRANCH  12   7
BRANCH  15  17
ATOM      4  O   UNL     1      -6.505  -9.265  16.685  0.00  0.00    -0.271 OA
ATOM      8  N   UNL     1      -6.107 -10.991  18.200  0.00  0.00    -0.301 N 
ATOM     17  C   UNL     1      -6.890 -10.058  17.544  0.00  0.00    +0.240 C 
ATOM     31  H   UNL     1      -6.535 -11.601  18.893  0.00  0.00    +0.150 HD
BRANCH   8  19
ATOM     19  C   UNL     1      -4.693 -11.154  17.949  0.00  0.00    +0.156 C 
ATOM     20  C   UNL     1      -4.433 -11.493  16.490  0.00  0.00    +0.038 C 
BRANCH  19  21
ATOM      6  O   UNL     1      -3.590 -12.027  19.928  0.00  0.00    -0.274 OA
ATOM     10  N   UNL     1      -4.453 -13.515  18.405  0.00  0.00    -0.328 N 
ATOM     21  C   UNL     1      -4.169 -12.247  18.866  0.00  0.00    +0.231 C 
ATOM     33  H   UNL     1      -4.169 -14.335  18.931  0.00  0.00    +0.145 HD
ATOM     34  H   UNL     1      -4.951 -13.681  17.537  0.00  0.00    +0.145 HD
ENDBRANCH  19  21
ENDBRANCH   8  19
ENDBRANCH  15  17
BRANCH  11   2
ATOM      2  O   UNL     1     -11.289 -11.391  17.507  0.00  0.00    -0.387 OA
ATOM     29  H   UNL     1     -12.016 -11.960  17.812  0.00  0.00    +0.210 HD
ENDBRANCH  11   2
BRANCH  13   3
ATOM      3  O   UNL     1     -10.041  -9.979  20.642  0.00  0.00    -0.389 OA
ATOM     30  H   UNL     1     -10.670  -9.258  20.465  0.00  0.00    +0.210 HD
ENDBRANCH  13   3
TORSDOF 7
ENDMDL
MODEL 10
REMARK VINA RESULT:      -6.2      5.816      8.096
REMARK  Name = 7049366
REMARK  8 active torsions:
REMARK  status: ('A' for Active; 'I' for Inactive)
REMARK    1  A    between atoms: O_2  and  C_11
REMARK    2  A    between atoms: O_3  and  C_13
REMARK    3  A    between atoms: N_7  and  C_12
REMARK    4  A    between atoms: N_8  and  C_19
REMARK    5  A    between atoms: N_9  and  C_22
REMARK    6  A    between atoms: C_15  and  C_17
REMARK    7  A    between atoms: C_19  and  C_20
REMARK    8  A    between atoms: C_19  and  C_21
REMARK                            x       y       z     vdW  Elec       q    Type
REMARK                         _______ _______ _______ _____ _____    ______ ____
ROOT
ATOM     11  C   UNL     1      14.761   6.987  20.153  0.00  0.00    +0.167 C 
ATOM     12  C   UNL     1      15.161   8.315  20.824  0.00  0.00    +0.129 C 
ATOM     13  C   UNL     1      13.359   7.069  19.535  0.00  0.00    +0.149 C 
ATOM     14  C   UNL     1      12.297   7.487  20.566  0.00  0.00    +0.074 C 
ATOM     15  C   UNL     1      12.779   8.533  21.530  0.00  0.00    +0.015 C 
ATOM     16  C   UNL     1      14.059   8.920  21.650  0.00  0.00    +0.006 C 
ENDROOT
BRANCH  12   7
ATOM      5  O   UNL     1      17.621   9.765  20.598  0.00  0.00    -0.252 OA
ATOM      7  N   UNL     1      16.332   8.161  21.651  0.00  0.00    -0.290 N 
ATOM      9  N   UNL     1      18.462   8.547  22.419  0.00  0.00    -0.268 N 
ATOM     18  C   UNL     1      17.500   8.913  21.474  0.00  0.00    +0.304 C 
ATOM     28  H   UNL     1      16.332   7.437  22.364  0.00  0.00    +0.151 HD
ATOM     32  H   UNL     1      18.204   7.819  23.080  0.00  0.00    +0.156 HD
BRANCH   9  22
ATOM      1 BR   UNL     1      20.700   6.908  20.901  0.00  0.00    -0.048 Br
ATOM     22  C   UNL     1      19.768   9.068  22.575  0.00  0.00    +0.049 A 
ATOM     23  C   UNL     1      20.872   8.466  21.973  0.00  0.00    +0.039 A 
ATOM     24  C   UNL     1      19.936  10.213  23.355  0.00  0.00    +0.024 A 
ATOM     25  C   UNL     1      22.145   9.009  22.149  0.00  0.00    +0.017 A 
ATOM     26  C   UNL     1      21.209  10.755  23.531  0.00  0.00    +0.002 A 
ATOM     27  C   UNL     1      22.314  10.152  22.928  0.00  0.00    +0.001 A 
ENDBRANCH   9  22
ENDBRANCH  12   7
BRANCH  15  17
ATOM      4  O   UNL     1      10.889   8.552  22.925  0.00  0.00    -0.271 OA
ATOM      8  N   UNL     1      11.992  10.559  22.490  0.00  0.00    -0.301 N 
ATOM     17  C   UNL     1      11.789   9.194  22.384  0.00  0.00    +0.240 C 
ATOM     31  H   UNL     1      12.771  10.986  21.994  0.00  0.00    +0.150 HD
BRANCH   8  19
ATOM     19  C   UNL     1      11.144  11.426  23.276  0.00  0.00    +0.156 C 
ATOM     20  C   UNL     1      10.952  12.770  22.592  0.00  0.00    +0.038 C 
BRANCH  19  21
ATOM      6  O   UNL     1      12.987  11.713  24.831  0.00  0.00    -0.274 OA
ATOM     10  N   UNL     1      10.847  11.650  25.664  0.00  0.00    -0.328 N 
ATOM     21  C   UNL     1      11.777  11.596  24.648  0.00  0.00    +0.231 C 
ATOM     33  H   UNL     1      11.137  11.774  26.629  0.00  0.00    +0.145 HD
ATOM     34  H   UNL     1       9.849  11.572  25.495  0.00  0.00    +0.145 HD
ENDBRANCH  19  21
ENDBRANCH   8  19
ENDBRANCH  15  17
BRANCH  11   2
ATOM      2  O   UNL     1      14.775   5.936  21.121  0.00  0.00    -0.387 OA
ATOM     29  H   UNL     1      13.858   5.637  21.242  0.00  0.00    +0.210 HD
ENDBRANCH  11   2
BRANCH  13   3
ATOM      3  O   UNL     1      13.360   7.978  18.437  0.00  0.00    -0.389 OA
ATOM     30  H   UNL     1      12.439   8.253  18.281  0.00  0.00    +0.210 HD
ENDBRANCH  13   3
TORSDOF 7
ENDMDL
