REMARK  Name = 75536873
REMARK  5 active torsions:
REMARK  status: ('A' for Active; 'I' for Inactive)
REMARK    1  A    between atoms: O_5  and  C_9
REMARK    2  A    between atoms: O_5  and  C_15
REMARK    3  A    between atoms: C_14  and  C_16
REMARK    4  A    between atoms: C_21  and  C_27
REMARK    5  A    between atoms: C_26  and  C_28
REMARK                            x       y       z     vdW  Elec       q    Type
REMARK                         _______ _______ _______ _____ _____    ______ ____
ROOT
ATOM      4  O   UNL     1       3.691   3.209   0.351  0.00  0.00    -0.375 OA
ATOM      6  O   UNL     1       3.708  -1.244  -1.950  0.00  0.00    -0.270 OA
ATOM      7  N   UNL     1       3.357   0.230  -0.162  0.00  0.00    -0.292 N 
ATOM      9  C   UNL     1       1.645   1.798   0.682  0.00  0.00    +0.216 C 
ATOM     10  C   UNL     1       2.575   0.634   1.018  0.00  0.00    +0.155 C 
ATOM     11  C   UNL     1       4.463   1.111  -0.543  0.00  0.00    +0.136 C 
ATOM     12  C   UNL     1       2.324   3.170   0.744  0.00  0.00    +0.206 C 
ATOM     13  C   UNL     1       3.996   2.529  -0.860  0.00  0.00    +0.179 C 
ATOM     14  C   UNL     1       3.090  -0.902  -0.944  0.00  0.00    +0.247 C 
ENDROOT
BRANCH  14  16
ATOM     16  C   UNL     1       1.975  -1.771  -0.547  0.00  0.00    +0.037 A 
ATOM     19  C   UNL     1       0.694  -1.533  -1.044  0.00  0.00    +0.014 A 
ATOM     20  C   UNL     1       2.198  -2.835   0.327  0.00  0.00    +0.014 A 
ATOM     24  C   UNL     1      -0.365  -2.359  -0.667  0.00  0.00    +0.019 A 
ATOM     25  C   UNL     1       1.139  -3.662   0.703  0.00  0.00    +0.019 A 
ATOM     26  C   UNL     1      -0.142  -3.424   0.206  0.00  0.00    +0.052 A 
BRANCH  26  28
ATOM      8  N   UNL     1      -2.108  -4.958   0.904  0.00  0.00    -0.191 NA
ATOM     28  C   UNL     1      -1.227  -4.271   0.591  0.00  0.00    +0.099 C 
ENDBRANCH  26  28
ENDBRANCH  14  16
BRANCH   9   5
ATOM      5  O   UNL     1       0.545   1.786   1.589  0.00  0.00    -0.485 OA
BRANCH   5  15
ATOM     15  C   UNL     1      -0.696   1.605   1.043  0.00  0.00    +0.121 A 
ATOM     17  C   UNL     1      -1.183   2.515   0.104  0.00  0.00    +0.046 A 
ATOM     18  C   UNL     1      -1.474   0.512   1.425  0.00  0.00    +0.046 A 
ATOM     21  C   UNL     1      -3.227   1.238  -0.071  0.00  0.00    +0.055 A 
ATOM     22  C   UNL     1      -2.449   2.331  -0.453  0.00  0.00    +0.016 A 
ATOM     23  C   UNL     1      -2.739   0.329   0.868  0.00  0.00    +0.016 A 
BRANCH  21  27
ATOM      1  F   UNL     1      -5.588   1.041   0.256  0.00  0.00    -0.166 F 
ATOM      2  F   UNL     1      -4.715  -0.138  -1.341  0.00  0.00    -0.166 F 
ATOM      3  F   UNL     1      -4.906   2.017  -1.563  0.00  0.00    -0.166 F 
ATOM     27  C   UNL     1      -4.580   1.042  -0.665  0.00  0.00    +0.417 C 
ENDBRANCH  21  27
ENDBRANCH   5  15
ENDBRANCH   9   5
TORSDOF 5
