MODEL 1
REMARK VINA RESULT:      -7.2      0.000      0.000
REMARK  Name = 51136913
REMARK  5 active torsions:
REMARK  status: ('A' for Active; 'I' for Inactive)
REMARK    1  A    between atoms: N_2  and  C_13
REMARK    2  A    between atoms: C_9  and  C_14
REMARK    3  A    between atoms: C_13  and  C_15
REMARK    4  A    between atoms: C_16  and  C_19
REMARK    5  A    between atoms: C_25  and  C_26
REMARK                            x       y       z     vdW  Elec       q    Type
REMARK                         _______ _______ _______ _____ _____    ______ ____
ROOT
ATOM      1  O   UNL     1      14.387   6.815  19.475  0.00  0.00    -0.336 OA
ATOM      3  N   UNL     1      15.615   7.489  21.223  0.00  0.00    -0.190 NA
ATOM      4  N   UNL     1      15.662   6.266  19.290  0.00  0.00    -0.056 NA
ATOM     14  C   UNL     1      14.445   7.521  20.635  0.00  0.00    +0.245 A 
ATOM     16  C   UNL     1      16.328   6.708  20.361  0.00  0.00    +0.204 A 
ENDROOT
BRANCH  16  19
ATOM      6  N   UNL     1      19.716   6.745  21.893  0.00  0.00    -0.254 NA
ATOM     19  C   UNL     1      17.706   6.388  20.599  0.00  0.00    +0.041 A 
ATOM     22  C   UNL     1      18.368   5.452  19.814  0.00  0.00    +0.015 A 
ATOM     23  C   UNL     1      18.417   7.001  21.616  0.00  0.00    +0.123 A 
ATOM     24  C   UNL     1      19.704   5.160  20.067  0.00  0.00    +0.029 A 
ATOM     25  C   UNL     1      20.327   5.829  21.109  0.00  0.00    +0.074 A 
BRANCH  25  26
ATOM      7  N   UNL     1      23.946   5.019  20.727  0.00  0.00    -0.243 NA
ATOM      8  N   UNL     1      23.475   5.402  23.060  0.00  0.00    -0.243 NA
ATOM     26  C   UNL     1      21.712   5.578  21.430  0.00  0.00    +0.037 A 
ATOM     27  C   UNL     1      22.645   5.262  20.463  0.00  0.00    +0.124 A 
ATOM     28  C   UNL     1      22.189   5.634  22.724  0.00  0.00    +0.124 A 
ATOM     29  C   UNL     1      24.287   5.105  22.027  0.00  0.00    +0.221 A 
ENDBRANCH  25  26
ENDBRANCH  16  19
BRANCH  14   9
ATOM      2  N   UNL     1      12.330   8.617  19.919  0.00  0.00    -0.287 NA
ATOM      9  C   UNL     1      13.173   8.221  21.064  0.00  0.00    +0.146 C 
ATOM     10  C   UNL     1      12.265   7.328  21.929  0.00  0.00    +0.030 C 
ATOM     11  C   UNL     1      10.917   7.329  21.223  0.00  0.00    +0.017 C 
ATOM     12  C   UNL     1      10.947   8.601  20.399  0.00  0.00    +0.085 C 
BRANCH   2  13
ATOM     13  C   UNL     1      12.698   9.908  19.352  0.00  0.00    +0.121 C 
BRANCH  13  15
ATOM      5  N   UNL     1      12.817   8.829  15.725  0.00  0.00    -0.263 NA
ATOM     15  C   UNL     1      13.151   9.783  17.922  0.00  0.00    -0.015 A 
ATOM     17  C   UNL     1      14.272  10.465  17.463  0.00  0.00    +0.008 A 
ATOM     18  C   UNL     1      12.463   8.985  17.021  0.00  0.00    +0.115 A 
ATOM     20  C   UNL     1      14.667  10.329  16.137  0.00  0.00    +0.020 A 
ATOM     21  C   UNL     1      13.912   9.507  15.316  0.00  0.00    +0.111 A 
ENDBRANCH  13  15
ENDBRANCH   2  13
ENDBRANCH  14   9
TORSDOF 5
ENDMDL
MODEL 2
REMARK VINA RESULT:      -7.2     29.494     33.443
REMARK  Name = 51136913
REMARK  5 active torsions:
REMARK  status: ('A' for Active; 'I' for Inactive)
REMARK    1  A    between atoms: N_2  and  C_13
REMARK    2  A    between atoms: C_9  and  C_14
REMARK    3  A    between atoms: C_13  and  C_15
REMARK    4  A    between atoms: C_16  and  C_19
REMARK    5  A    between atoms: C_25  and  C_26
REMARK                            x       y       z     vdW  Elec       q    Type
REMARK                         _______ _______ _______ _____ _____    ______ ____
ROOT
ATOM      1  O   UNL     1     -17.485   2.252  22.261  0.00  0.00    -0.336 OA
ATOM      3  N   UNL     1     -17.155   3.831  23.816  0.00  0.00    -0.190 NA
ATOM      4  N   UNL     1     -17.144   1.575  23.439  0.00  0.00    -0.056 NA
ATOM     14  C   UNL     1     -17.467   3.576  22.570  0.00  0.00    +0.245 A 
ATOM     16  C   UNL     1     -16.966   2.573  24.309  0.00  0.00    +0.204 A 
ENDROOT
BRANCH  16  19
ATOM      6  N   UNL     1     -16.281   0.794  27.502  0.00  0.00    -0.254 NA
ATOM     19  C   UNL     1     -16.598   2.348  25.677  0.00  0.00    +0.041 A 
ATOM     22  C   UNL     1     -16.211   3.402  26.497  0.00  0.00    +0.015 A 
ATOM     23  C   UNL     1     -16.617   1.075  26.222  0.00  0.00    +0.123 A 
ATOM     24  C   UNL     1     -15.859   3.154  27.819  0.00  0.00    +0.029 A 
ATOM     25  C   UNL     1     -15.911   1.844  28.269  0.00  0.00    +0.074 A 
BRANCH  25  26
ATOM      7  N   UNL     1     -14.935  -0.126  31.280  0.00  0.00    -0.243 NA
ATOM      8  N   UNL     1     -15.181   2.188  31.908  0.00  0.00    -0.243 NA
ATOM     26  C   UNL     1     -15.560   1.512  29.629  0.00  0.00    +0.037 A 
ATOM     27  C   UNL     1     -15.264   0.221  30.018  0.00  0.00    +0.124 A 
ATOM     28  C   UNL     1     -15.502   2.464  30.627  0.00  0.00    +0.124 A 
ATOM     29  C   UNL     1     -14.913   0.893  32.161  0.00  0.00    +0.221 A 
ENDBRANCH  25  26
ENDBRANCH  16  19
BRANCH  14   9
ATOM      2  N   UNL     1     -16.605   5.118  20.818  0.00  0.00    -0.287 NA
ATOM      9  C   UNL     1     -17.806   4.535  21.448  0.00  0.00    +0.146 C 
ATOM     10  C   UNL     1     -18.564   3.856  20.294  0.00  0.00    +0.030 C 
ATOM     11  C   UNL     1     -17.746   4.160  19.046  0.00  0.00    +0.017 C 
ATOM     12  C   UNL     1     -16.964   5.402  19.427  0.00  0.00    +0.085 C 
BRANCH   2  13
ATOM     13  C   UNL     1     -16.109   6.302  21.508  0.00  0.00    +0.121 C 
BRANCH  13  15
ATOM      5  N   UNL     1     -12.899   7.834  20.211  0.00  0.00    -0.263 NA
ATOM     15  C   UNL     1     -14.641   6.523  21.257  0.00  0.00    -0.015 A 
ATOM     17  C   UNL     1     -13.684   5.673  21.801  0.00  0.00    +0.008 A 
ATOM     18  C   UNL     1     -14.201   7.580  20.475  0.00  0.00    +0.115 A 
ATOM     20  C   UNL     1     -12.336   5.902  21.550  0.00  0.00    +0.020 A 
ATOM     21  C   UNL     1     -11.999   6.986  20.757  0.00  0.00    +0.111 A 
ENDBRANCH  13  15
ENDBRANCH   2  13
ENDBRANCH  14   9
TORSDOF 5
ENDMDL
MODEL 3
REMARK VINA RESULT:      -7.1      2.652     10.362
REMARK  Name = 51136913
REMARK  5 active torsions:
REMARK  status: ('A' for Active; 'I' for Inactive)
REMARK    1  A    between atoms: N_2  and  C_13
REMARK    2  A    between atoms: C_9  and  C_14
REMARK    3  A    between atoms: C_13  and  C_15
REMARK    4  A    between atoms: C_16  and  C_19
REMARK    5  A    between atoms: C_25  and  C_26
REMARK                            x       y       z     vdW  Elec       q    Type
REMARK                         _______ _______ _______ _____ _____    ______ ____
ROOT
ATOM      1  O   UNL     1      21.704   6.115  21.414  0.00  0.00    -0.336 OA
ATOM      3  N   UNL     1      19.808   6.344  22.584  0.00  0.00    -0.190 NA
ATOM      4  N   UNL     1      20.689   6.325  20.473  0.00  0.00    -0.056 NA
ATOM     14  C   UNL     1      21.100   6.140  22.631  0.00  0.00    +0.245 A 
ATOM     16  C   UNL     1      19.601   6.451  21.240  0.00  0.00    +0.204 A 
ENDROOT
BRANCH  16  19
ATOM      6  N   UNL     1      16.585   6.076  19.098  0.00  0.00    -0.254 NA
ATOM     19  C   UNL     1      18.295   6.684  20.694  0.00  0.00    +0.041 A 
ATOM     22  C   UNL     1      17.482   7.696  21.192  0.00  0.00    +0.015 A 
ATOM     23  C   UNL     1      17.806   5.909  19.656  0.00  0.00    +0.123 A 
ATOM     24  C   UNL     1      16.220   7.898  20.644  0.00  0.00    +0.029 A 
ATOM     25  C   UNL     1      15.822   7.069  19.608  0.00  0.00    +0.074 A 
BRANCH  25  26
ATOM      7  N   UNL     1      12.126   7.092  19.124  0.00  0.00    -0.243 NA
ATOM      8  N   UNL     1      13.185   7.777  17.070  0.00  0.00    -0.243 NA
ATOM     26  C   UNL     1      14.527   7.220  18.990  0.00  0.00    +0.037 A 
ATOM     27  C   UNL     1      13.354   6.963  19.670  0.00  0.00    +0.124 A 
ATOM     28  C   UNL     1      14.380   7.628  17.680  0.00  0.00    +0.124 A 
ATOM     29  C   UNL     1      12.116   7.497  17.840  0.00  0.00    +0.221 A 
ENDBRANCH  25  26
ENDBRANCH  16  19
BRANCH  14   9
ATOM      2  N   UNL     1      23.054   4.933  23.589  0.00  0.00    -0.287 NA
ATOM      9  C   UNL     1      21.997   5.935  23.834  0.00  0.00    +0.146 C 
ATOM     10  C   UNL     1      22.754   7.213  24.237  0.00  0.00    +0.030 C 
ATOM     11  C   UNL     1      24.225   6.818  24.249  0.00  0.00    +0.017 C 
ATOM     12  C   UNL     1      24.188   5.314  24.433  0.00  0.00    +0.085 C 
BRANCH   2  13
ATOM     13  C   UNL     1      22.620   3.565  23.839  0.00  0.00    +0.121 C 
BRANCH  13  15
ATOM      5  N   UNL     1      24.846   0.628  22.971  0.00  0.00    -0.263 NA
ATOM     15  C   UNL     1      23.408   2.571  23.027  0.00  0.00    -0.015 A 
ATOM     17  C   UNL     1      23.443   2.646  21.640  0.00  0.00    +0.008 A 
ATOM     18  C   UNL     1      24.120   1.552  23.640  0.00  0.00    +0.115 A 
ATOM     20  C   UNL     1      24.180   1.715  20.917  0.00  0.00    +0.020 A 
ATOM     21  C   UNL     1      24.856   0.734  21.623  0.00  0.00    +0.111 A 
ENDBRANCH  13  15
ENDBRANCH   2  13
ENDBRANCH  14   9
TORSDOF 5
ENDMDL
MODEL 4
REMARK VINA RESULT:      -7.1      1.449      3.421
REMARK  Name = 51136913
REMARK  5 active torsions:
REMARK  status: ('A' for Active; 'I' for Inactive)
REMARK    1  A    between atoms: N_2  and  C_13
REMARK    2  A    between atoms: C_9  and  C_14
REMARK    3  A    between atoms: C_13  and  C_15
REMARK    4  A    between atoms: C_16  and  C_19
REMARK    5  A    between atoms: C_25  and  C_26
REMARK                            x       y       z     vdW  Elec       q    Type
REMARK                         _______ _______ _______ _____ _____    ______ ____
ROOT
ATOM      1  O   UNL     1      14.081   7.055  20.421  0.00  0.00    -0.336 OA
ATOM      3  N   UNL     1      15.804   7.053  18.989  0.00  0.00    -0.190 NA
ATOM      4  N   UNL     1      15.219   6.756  21.181  0.00  0.00    -0.056 NA
ATOM     14  C   UNL     1      14.513   7.214  19.142  0.00  0.00    +0.245 A 
ATOM     16  C   UNL     1      16.193   6.774  20.266  0.00  0.00    +0.204 A 
ENDROOT
BRANCH  16  19
ATOM      6  N   UNL     1      19.617   5.328  20.120  0.00  0.00    -0.254 NA
ATOM     19  C   UNL     1      17.565   6.516  20.596  0.00  0.00    +0.041 A 
ATOM     22  C   UNL     1      18.178   7.162  21.663  0.00  0.00    +0.015 A 
ATOM     23  C   UNL     1      18.320   5.616  19.862  0.00  0.00    +0.123 A 
ATOM     24  C   UNL     1      19.510   6.893  21.959  0.00  0.00    +0.029 A 
ATOM     25  C   UNL     1      20.179   5.976  21.164  0.00  0.00    +0.074 A 
BRANCH  25  26
ATOM      7  N   UNL     1      23.689   4.847  20.619  0.00  0.00    -0.243 NA
ATOM      8  N   UNL     1      23.426   5.487  22.928  0.00  0.00    -0.243 NA
ATOM     26  C   UNL     1      21.562   5.647  21.413  0.00  0.00    +0.037 A 
ATOM     27  C   UNL     1      22.393   5.167  20.422  0.00  0.00    +0.124 A 
ATOM     28  C   UNL     1      22.139   5.787  22.660  0.00  0.00    +0.124 A 
ATOM     29  C   UNL     1      24.133   5.028  21.878  0.00  0.00    +0.221 A 
ENDBRANCH  25  26
ENDBRANCH  16  19
BRANCH  14   9
ATOM      2  N   UNL     1      12.637   8.714  18.493  0.00  0.00    -0.287 NA
ATOM      9  C   UNL     1      13.457   7.548  18.109  0.00  0.00    +0.146 C 
ATOM     10  C   UNL     1      14.060   7.926  16.744  0.00  0.00    +0.030 C 
ATOM     11  C   UNL     1      13.475   9.292  16.415  0.00  0.00    +0.017 C 
ATOM     12  C   UNL     1      12.208   9.347  17.245  0.00  0.00    +0.085 C 
BRANCH   2  13
ATOM     13  C   UNL     1      11.509   8.367  19.347  0.00  0.00    +0.121 C 
BRANCH  13  15
ATOM      5  N   UNL     1      10.818   9.418  22.918  0.00  0.00    -0.263 NA
ATOM     15  C   UNL     1      11.482   9.196  20.604  0.00  0.00    -0.015 A 
ATOM     17  C   UNL     1      12.065  10.457  20.643  0.00  0.00    +0.008 A 
ATOM     18  C   UNL     1      10.876   8.725  21.758  0.00  0.00    +0.115 A 
ATOM     20  C   UNL     1      12.024  11.200  21.817  0.00  0.00    +0.020 A 
ATOM     21  C   UNL     1      11.395  10.640  22.917  0.00  0.00    +0.111 A 
ENDBRANCH  13  15
ENDBRANCH   2  13
ENDBRANCH  14   9
TORSDOF 5
ENDMDL
MODEL 5
REMARK VINA RESULT:      -7.0      2.625     10.594
REMARK  Name = 51136913
REMARK  5 active torsions:
REMARK  status: ('A' for Active; 'I' for Inactive)
REMARK    1  A    between atoms: N_2  and  C_13
REMARK    2  A    between atoms: C_9  and  C_14
REMARK    3  A    between atoms: C_13  and  C_15
REMARK    4  A    between atoms: C_16  and  C_19
REMARK    5  A    between atoms: C_25  and  C_26
REMARK                            x       y       z     vdW  Elec       q    Type
REMARK                         _______ _______ _______ _____ _____    ______ ____
ROOT
ATOM      1  O   UNL     1      20.920   6.110  23.078  0.00  0.00    -0.336 OA
ATOM      3  N   UNL     1      20.492   5.582  20.943  0.00  0.00    -0.190 NA
ATOM      4  N   UNL     1      19.602   6.517  22.833  0.00  0.00    -0.056 NA
ATOM     14  C   UNL     1      21.370   5.572  21.914  0.00  0.00    +0.245 A 
ATOM     16  C   UNL     1      19.423   6.172  21.554  0.00  0.00    +0.204 A 
ENDROOT
BRANCH  16  19
ATOM      6  N   UNL     1      16.029   7.484  20.786  0.00  0.00    -0.254 NA
ATOM     19  C   UNL     1      18.190   6.402  20.858  0.00  0.00    +0.041 A 
ATOM     22  C   UNL     1      17.941   5.806  19.627  0.00  0.00    +0.015 A 
ATOM     23  C   UNL     1      17.211   7.225  21.391  0.00  0.00    +0.123 A 
ATOM     24  C   UNL     1      16.737   6.048  18.975  0.00  0.00    +0.029 A 
ATOM     25  C   UNL     1      15.823   6.887  19.591  0.00  0.00    +0.074 A 
BRANCH  25  26
ATOM      7  N   UNL     1      12.152   7.309  19.100  0.00  0.00    -0.243 NA
ATOM      8  N   UNL     1      13.285   7.903  17.057  0.00  0.00    -0.243 NA
ATOM     26  C   UNL     1      14.553   7.183  18.973  0.00  0.00    +0.037 A 
ATOM     27  C   UNL     1      13.357   7.044  19.647  0.00  0.00    +0.124 A 
ATOM     28  C   UNL     1      14.454   7.620  17.667  0.00  0.00    +0.124 A 
ATOM     29  C   UNL     1      12.189   7.728  17.821  0.00  0.00    +0.221 A 
ENDBRANCH  25  26
ENDBRANCH  16  19
BRANCH  14   9
ATOM      2  N   UNL     1      23.064   4.140  20.787  0.00  0.00    -0.287 NA
ATOM      9  C   UNL     1      22.792   5.049  21.918  0.00  0.00    +0.146 C 
ATOM     10  C   UNL     1      23.837   6.170  21.780  0.00  0.00    +0.030 C 
ATOM     11  C   UNL     1      24.690   5.775  20.583  0.00  0.00    +0.017 C 
ATOM     12  C   UNL     1      24.490   4.276  20.482  0.00  0.00    +0.085 C 
BRANCH   2  13
ATOM     13  C   UNL     1      22.692   2.757  21.058  0.00  0.00    +0.121 C 
BRANCH  13  15
ATOM      5  N   UNL     1      24.693   1.675  24.083  0.00  0.00    -0.263 NA
ATOM     15  C   UNL     1      23.721   2.055  21.902  0.00  0.00    -0.015 A 
ATOM     17  C   UNL     1      24.629   1.168  21.335  0.00  0.00    +0.008 A 
ATOM     18  C   UNL     1      23.794   2.272  23.269  0.00  0.00    +0.115 A 
ATOM     20  C   UNL     1      25.570   0.535  22.140  0.00  0.00    +0.020 A 
ATOM     21  C   UNL     1      25.560   0.819  23.496  0.00  0.00    +0.111 A 
ENDBRANCH  13  15
ENDBRANCH   2  13
ENDBRANCH  14   9
TORSDOF 5
ENDMDL
MODEL 6
REMARK VINA RESULT:      -6.9     26.199     30.453
REMARK  Name = 51136913
REMARK  5 active torsions:
REMARK  status: ('A' for Active; 'I' for Inactive)
REMARK    1  A    between atoms: N_2  and  C_13
REMARK    2  A    between atoms: C_9  and  C_14
REMARK    3  A    between atoms: C_13  and  C_15
REMARK    4  A    between atoms: C_16  and  C_19
REMARK    5  A    between atoms: C_25  and  C_26
REMARK                            x       y       z     vdW  Elec       q    Type
REMARK                         _______ _______ _______ _____ _____    ______ ____
ROOT
ATOM      1  O   UNL     1      -4.658 -10.755  17.416  0.00  0.00    -0.336 OA
ATOM      3  N   UNL     1      -5.618 -10.198  15.470  0.00  0.00    -0.190 NA
ATOM      4  N   UNL     1      -5.943 -10.295  17.733  0.00  0.00    -0.056 NA
ATOM     14  C   UNL     1      -4.548 -10.663  16.064  0.00  0.00    +0.245 A 
ATOM     16  C   UNL     1      -6.446  -9.986  16.533  0.00  0.00    +0.204 A 
ENDROOT
BRANCH  16  19
ATOM      6  N   UNL     1      -9.716  -8.409  17.339  0.00  0.00    -0.254 NA
ATOM     19  C   UNL     1      -7.771  -9.464  16.364  0.00  0.00    +0.041 A 
ATOM     22  C   UNL     1      -8.398  -9.491  15.124  0.00  0.00    +0.015 A 
ATOM     23  C   UNL     1      -8.466  -8.918  17.431  0.00  0.00    +0.123 A 
ATOM     24  C   UNL     1      -9.683  -8.976  14.989  0.00  0.00    +0.029 A 
ATOM     25  C   UNL     1     -10.293  -8.452  16.118  0.00  0.00    +0.074 A 
BRANCH  25  26
ATOM      7  N   UNL     1     -13.971  -8.053  16.575  0.00  0.00    -0.243 NA
ATOM      8  N   UNL     1     -13.131  -6.164  15.336  0.00  0.00    -0.243 NA
ATOM     26  C   UNL     1     -11.625  -7.901  16.053  0.00  0.00    +0.037 A 
ATOM     27  C   UNL     1     -12.712  -8.537  16.618  0.00  0.00    +0.124 A 
ATOM     28  C   UNL     1     -11.897  -6.706  15.418  0.00  0.00    +0.124 A 
ATOM     29  C   UNL     1     -14.106  -6.880  15.927  0.00  0.00    +0.221 A 
ENDBRANCH  25  26
ENDBRANCH  16  19
BRANCH  14   9
ATOM      2  N   UNL     1      -2.960 -10.470  14.158  0.00  0.00    -0.287 NA
ATOM      9  C   UNL     1      -3.231 -11.107  15.462  0.00  0.00    +0.146 C 
ATOM     10  C   UNL     1      -2.022 -10.733  16.339  0.00  0.00    +0.030 C 
ATOM     11  C   UNL     1      -1.098  -9.940  15.425  0.00  0.00    +0.017 C 
ATOM     12  C   UNL     1      -1.504 -10.384  14.034  0.00  0.00    +0.085 C 
BRANCH   2  13
ATOM     13  C   UNL     1      -3.564 -11.178  13.036  0.00  0.00    +0.121 C 
BRANCH  13  15
ATOM      5  N   UNL     1      -5.632  -8.726  11.025  0.00  0.00    -0.263 NA
ATOM     15  C   UNL     1      -3.978 -10.235  11.937  0.00  0.00    -0.015 A 
ATOM     17  C   UNL     1      -3.146  -9.992  10.850  0.00  0.00    +0.008 A 
ATOM     18  C   UNL     1      -5.200  -9.583  11.977  0.00  0.00    +0.115 A 
ATOM     20  C   UNL     1      -3.556  -9.118   9.850  0.00  0.00    +0.020 A 
ATOM     21  C   UNL     1      -4.796  -8.515   9.983  0.00  0.00    +0.111 A 
ENDBRANCH  13  15
ENDBRANCH   2  13
ENDBRANCH  14   9
TORSDOF 5
ENDMDL
MODEL 7
REMARK VINA RESULT:      -6.9     15.462     20.636
REMARK  Name = 51136913
REMARK  5 active torsions:
REMARK  status: ('A' for Active; 'I' for Inactive)
REMARK    1  A    between atoms: N_2  and  C_13
REMARK    2  A    between atoms: C_9  and  C_14
REMARK    3  A    between atoms: C_13  and  C_15
REMARK    4  A    between atoms: C_16  and  C_19
REMARK    5  A    between atoms: C_25  and  C_26
REMARK                            x       y       z     vdW  Elec       q    Type
REMARK                         _______ _______ _______ _____ _____    ______ ____
ROOT
ATOM      1  O   UNL     1      10.539   6.829  -1.436  0.00  0.00    -0.336 OA
ATOM      3  N   UNL     1      10.488   5.059  -0.065  0.00  0.00    -0.190 NA
ATOM      4  N   UNL     1      10.265   7.334  -0.159  0.00  0.00    -0.056 NA
ATOM     14  C   UNL     1      10.654   5.483  -1.292  0.00  0.00    +0.245 A 
ATOM     16  C   UNL     1      10.252   6.230   0.595  0.00  0.00    +0.204 A 
ENDROOT
BRANCH  16  19
ATOM      6  N   UNL     1      10.313   5.253   4.182  0.00  0.00    -0.254 NA
ATOM     19  C   UNL     1      10.005   6.263   2.007  0.00  0.00    +0.041 A 
ATOM     22  C   UNL     1       9.253   7.282   2.578  0.00  0.00    +0.015 A 
ATOM     23  C   UNL     1      10.508   5.280   2.844  0.00  0.00    +0.123 A 
ATOM     24  C   UNL     1       9.030   7.289   3.951  0.00  0.00    +0.029 A 
ATOM     25  C   UNL     1       9.576   6.261   4.702  0.00  0.00    +0.074 A 
BRANCH  25  26
ATOM      7  N   UNL     1       8.605   7.212   8.173  0.00  0.00    -0.243 NA
ATOM      8  N   UNL     1       9.627   5.030   8.220  0.00  0.00    -0.243 NA
ATOM     26  C   UNL     1       9.386   6.203   6.131  0.00  0.00    +0.037 A 
ATOM     27  C   UNL     1       8.796   7.231   6.837  0.00  0.00    +0.124 A 
ATOM     28  C   UNL     1       9.786   5.116   6.883  0.00  0.00    +0.124 A 
ATOM     29  C   UNL     1       9.038   6.097   8.792  0.00  0.00    +0.221 A 
ENDBRANCH  25  26
ENDBRANCH  16  19
BRANCH  14   9
ATOM      2  N   UNL     1      11.784   3.501  -2.286  0.00  0.00    -0.287 NA
ATOM      9  C   UNL     1      10.953   4.693  -2.549  0.00  0.00    +0.146 C 
ATOM     10  C   UNL     1       9.682   4.143  -3.222  0.00  0.00    +0.030 C 
ATOM     11  C   UNL     1       9.915   2.645  -3.350  0.00  0.00    +0.017 C 
ATOM     12  C   UNL     1      11.425   2.514  -3.305  0.00  0.00    +0.085 C 
BRANCH   2  13
ATOM     13  C   UNL     1      13.213   3.786  -2.279  0.00  0.00    +0.121 C 
BRANCH  13  15
ATOM      5  N   UNL     1      15.673   4.083   0.583  0.00  0.00    -0.263 NA
ATOM     15  C   UNL     1      13.789   3.726  -0.889  0.00  0.00    -0.015 A 
ATOM     17  C   UNL     1      13.026   3.280   0.184  0.00  0.00    +0.008 A 
ATOM     18  C   UNL     1      15.096   4.113  -0.639  0.00  0.00    +0.115 A 
ATOM     20  C   UNL     1      13.585   3.234   1.456  0.00  0.00    +0.020 A 
ATOM     21  C   UNL     1      14.900   3.643   1.602  0.00  0.00    +0.111 A 
ENDBRANCH  13  15
ENDBRANCH   2  13
ENDBRANCH  14   9
TORSDOF 5
ENDMDL
MODEL 8
REMARK VINA RESULT:      -6.8      1.716      3.685
REMARK  Name = 51136913
REMARK  5 active torsions:
REMARK  status: ('A' for Active; 'I' for Inactive)
REMARK    1  A    between atoms: N_2  and  C_13
REMARK    2  A    between atoms: C_9  and  C_14
REMARK    3  A    between atoms: C_13  and  C_15
REMARK    4  A    between atoms: C_16  and  C_19
REMARK    5  A    between atoms: C_25  and  C_26
REMARK                            x       y       z     vdW  Elec       q    Type
REMARK                         _______ _______ _______ _____ _____    ______ ____
ROOT
ATOM      1  O   UNL     1      16.156   5.982  18.320  0.00  0.00    -0.336 OA
ATOM      3  N   UNL     1      16.765   6.946  20.249  0.00  0.00    -0.190 NA
ATOM      4  N   UNL     1      17.425   5.474  18.627  0.00  0.00    -0.056 NA
ATOM     14  C   UNL     1      15.843   6.842  19.324  0.00  0.00    +0.245 A 
ATOM     16  C   UNL     1      17.715   6.089  19.777  0.00  0.00    +0.204 A 
ENDROOT
BRANCH  16  19
ATOM      6  N   UNL     1      20.996   4.608  20.712  0.00  0.00    -0.254 NA
ATOM     19  C   UNL     1      18.946   5.869  20.480  0.00  0.00    +0.041 A 
ATOM     22  C   UNL     1      19.298   6.655  21.571  0.00  0.00    +0.015 A 
ATOM     23  C   UNL     1      19.821   4.867  20.094  0.00  0.00    +0.123 A 
ATOM     24  C   UNL     1      20.498   6.420  22.232  0.00  0.00    +0.029 A 
ATOM     25  C   UNL     1      21.304   5.394  21.768  0.00  0.00    +0.074 A 
BRANCH  25  26
ATOM      7  N   UNL     1      23.933   3.609  23.717  0.00  0.00    -0.243 NA
ATOM      8  N   UNL     1      24.828   5.708  22.943  0.00  0.00    -0.243 NA
ATOM     26  C   UNL     1      22.564   5.092  22.405  0.00  0.00    +0.037 A 
ATOM     27  C   UNL     1      22.771   3.922  23.107  0.00  0.00    +0.124 A 
ATOM     28  C   UNL     1      23.638   5.957  22.357  0.00  0.00    +0.124 A 
ATOM     29  C   UNL     1      24.904   4.534  23.597  0.00  0.00    +0.221 A 
ENDBRANCH  25  26
ENDBRANCH  16  19
BRANCH  14   9
ATOM      2  N   UNL     1      14.489   8.851  19.895  0.00  0.00    -0.287 NA
ATOM      9  C   UNL     1      14.500   7.535  19.225  0.00  0.00    +0.146 C 
ATOM     10  C   UNL     1      14.090   7.832  17.772  0.00  0.00    +0.030 C 
ATOM     11  C   UNL     1      13.811   9.328  17.734  0.00  0.00    +0.017 C 
ATOM     12  C   UNL     1      13.510   9.671  19.179  0.00  0.00    +0.085 C 
BRANCH   2  13
ATOM     13  C   UNL     1      14.198   8.769  21.320  0.00  0.00    +0.121 C 
BRANCH  13  15
ATOM      5  N   UNL     1      10.550   8.632  22.326  0.00  0.00    -0.263 NA
ATOM     15  C   UNL     1      12.815   8.232  21.579  0.00  0.00    -0.015 A 
ATOM     17  C   UNL     1      12.505   6.900  21.330  0.00  0.00    +0.008 A 
ATOM     18  C   UNL     1      11.811   9.050  22.072  0.00  0.00    +0.115 A 
ATOM     20  C   UNL     1      11.220   6.432  21.580  0.00  0.00    +0.020 A 
ATOM     21  C   UNL     1      10.287   7.330  22.073  0.00  0.00    +0.111 A 
ENDBRANCH  13  15
ENDBRANCH   2  13
ENDBRANCH  14   9
TORSDOF 5
ENDMDL
MODEL 9
REMARK VINA RESULT:      -6.7     26.769     30.781
REMARK  Name = 51136913
REMARK  5 active torsions:
REMARK  status: ('A' for Active; 'I' for Inactive)
REMARK    1  A    between atoms: N_2  and  C_13
REMARK    2  A    between atoms: C_9  and  C_14
REMARK    3  A    between atoms: C_13  and  C_15
REMARK    4  A    between atoms: C_16  and  C_19
REMARK    5  A    between atoms: C_25  and  C_26
REMARK                            x       y       z     vdW  Elec       q    Type
REMARK                         _______ _______ _______ _____ _____    ______ ____
ROOT
ATOM      1  O   UNL     1      -5.153  -9.859  15.578  0.00  0.00    -0.336 OA
ATOM      3  N   UNL     1      -5.174 -11.714  16.834  0.00  0.00    -0.190 NA
ATOM      4  N   UNL     1      -6.371  -9.847  16.270  0.00  0.00    -0.056 NA
ATOM     14  C   UNL     1      -4.510 -10.992  15.966  0.00  0.00    +0.245 A 
ATOM     16  C   UNL     1      -6.308 -10.973  16.989  0.00  0.00    +0.204 A 
ENDROOT
BRANCH  16  19
ATOM      6  N   UNL     1      -9.709 -11.332  18.450  0.00  0.00    -0.254 NA
ATOM     19  C   UNL     1      -7.362 -11.384  17.871  0.00  0.00    +0.041 A 
ATOM     22  C   UNL     1      -7.102 -12.200  18.965  0.00  0.00    +0.015 A 
ATOM     23  C   UNL     1      -8.670 -10.980  17.659  0.00  0.00    +0.123 A 
ATOM     24  C   UNL     1      -8.144 -12.583  19.803  0.00  0.00    +0.029 A 
ATOM     25  C   UNL     1      -9.417 -12.126  19.505  0.00  0.00    +0.074 A 
BRANCH  25  26
ATOM      7  N   UNL     1     -12.776 -12.035  21.118  0.00  0.00    -0.243 NA
ATOM      8  N   UNL     1     -11.574 -13.958  21.932  0.00  0.00    -0.243 NA
ATOM     26  C   UNL     1     -10.547 -12.484  20.330  0.00  0.00    +0.037 A 
ATOM     27  C   UNL     1     -11.703 -11.732  20.358  0.00  0.00    +0.124 A 
ATOM     28  C   UNL     1     -10.538 -13.597  21.146  0.00  0.00    +0.124 A 
ATOM     29  C   UNL     1     -12.645 -13.145  21.870  0.00  0.00    +0.221 A 
ENDBRANCH  25  26
ENDBRANCH  16  19
BRANCH  14   9
ATOM      2  N   UNL     1      -2.951 -10.494  14.092  0.00  0.00    -0.287 NA
ATOM      9  C   UNL     1      -3.149 -11.240  15.350  0.00  0.00    +0.146 C 
ATOM     10  C   UNL     1      -1.993 -10.788  16.261  0.00  0.00    +0.030 C 
ATOM     11  C   UNL     1      -1.165  -9.835  15.410  0.00  0.00    +0.017 C 
ATOM     12  C   UNL     1      -1.514 -10.232  13.989  0.00  0.00    +0.085 C 
BRANCH   2  13
ATOM     13  C   UNL     1      -3.466 -11.192  12.921  0.00  0.00    +0.121 C 
BRANCH  13  15
ATOM      5  N   UNL     1      -5.672  -8.734  11.070  0.00  0.00    -0.263 NA
ATOM     15  C   UNL     1      -3.950 -10.233  11.866  0.00  0.00    -0.015 A 
ATOM     17  C   UNL     1      -3.177  -9.951  10.745  0.00  0.00    +0.008 A 
ATOM     18  C   UNL     1      -5.179  -9.604  11.981  0.00  0.00    +0.115 A 
ATOM     20  C   UNL     1      -3.650  -9.062   9.787  0.00  0.00    +0.020 A 
ATOM     21  C   UNL     1      -4.892  -8.485   9.994  0.00  0.00    +0.111 A 
ENDBRANCH  13  15
ENDBRANCH   2  13
ENDBRANCH  14   9
TORSDOF 5
ENDMDL
MODEL 10
REMARK VINA RESULT:      -6.7      1.987      2.546
REMARK  Name = 51136913
REMARK  5 active torsions:
REMARK  status: ('A' for Active; 'I' for Inactive)
REMARK    1  A    between atoms: N_2  and  C_13
REMARK    2  A    between atoms: C_9  and  C_14
REMARK    3  A    between atoms: C_13  and  C_15
REMARK    4  A    between atoms: C_16  and  C_19
REMARK    5  A    between atoms: C_25  and  C_26
REMARK                            x       y       z     vdW  Elec       q    Type
REMARK                         _______ _______ _______ _____ _____    ______ ____
ROOT
ATOM      1  O   UNL     1      14.810   8.288  21.745  0.00  0.00    -0.336 OA
ATOM      3  N   UNL     1      16.887   9.103  21.541  0.00  0.00    -0.190 NA
ATOM      4  N   UNL     1      15.649   7.179  21.573  0.00  0.00    -0.056 NA
ATOM     14  C   UNL     1      15.619   9.380  21.713  0.00  0.00    +0.245 A 
ATOM     16  C   UNL     1      16.856   7.742  21.460  0.00  0.00    +0.204 A 
ENDROOT
BRANCH  16  19
ATOM      6  N   UNL     1      20.272   6.380  22.013  0.00  0.00    -0.254 NA
ATOM     19  C   UNL     1      18.051   6.972  21.265  0.00  0.00    +0.041 A 
ATOM     22  C   UNL     1      18.171   6.097  20.192  0.00  0.00    +0.015 A 
ATOM     23  C   UNL     1      19.120   7.077  22.139  0.00  0.00    +0.123 A 
ATOM     24  C   UNL     1      19.340   5.362  20.028  0.00  0.00    +0.029 A 
ATOM     25  C   UNL     1      20.352   5.539  20.958  0.00  0.00    +0.074 A 
BRANCH  25  26
ATOM      7  N   UNL     1      22.840   2.767  21.107  0.00  0.00    -0.243 NA
ATOM      8  N   UNL     1      23.936   4.755  20.297  0.00  0.00    -0.243 NA
ATOM     26  C   UNL     1      21.594   4.811  20.851  0.00  0.00    +0.037 A 
ATOM     27  C   UNL     1      21.696   3.478  21.192  0.00  0.00    +0.124 A 
ATOM     28  C   UNL     1      22.758   5.404  20.406  0.00  0.00    +0.124 A 
ATOM     29  C   UNL     1      23.906   3.458  20.659  0.00  0.00    +0.221 A 
ENDBRANCH  25  26
ENDBRANCH  16  19
BRANCH  14   9
ATOM      2  N   UNL     1      13.555  10.728  21.377  0.00  0.00    -0.287 NA
ATOM      9  C   UNL     1      14.943  10.725  21.880  0.00  0.00    +0.146 C 
ATOM     10  C   UNL     1      14.826  11.153  23.354  0.00  0.00    +0.030 C 
ATOM     11  C   UNL     1      13.346  11.433  23.571  0.00  0.00    +0.017 C 
ATOM     12  C   UNL     1      12.828  11.717  22.175  0.00  0.00    +0.085 C 
BRANCH   2  13
ATOM     13  C   UNL     1      13.461  11.002  19.948  0.00  0.00    +0.121 C 
BRANCH  13  15
ATOM      5  N   UNL     1      11.716   7.863  18.750  0.00  0.00    -0.263 NA
ATOM     15  C   UNL     1      13.165   9.755  19.158  0.00  0.00    -0.015 A 
ATOM     17  C   UNL     1      14.013   9.334  18.140  0.00  0.00    +0.008 A 
ATOM     18  C   UNL     1      12.039   8.991  19.422  0.00  0.00    +0.115 A 
ATOM     20  C   UNL     1      13.715   8.177  17.428  0.00  0.00    +0.020 A 
ATOM     21  C   UNL     1      12.565   7.484  17.768  0.00  0.00    +0.111 A 
ENDBRANCH  13  15
ENDBRANCH   2  13
ENDBRANCH  14   9
TORSDOF 5
ENDMDL
