REMARK  Name = 51137535
REMARK  7 active torsions:
REMARK  status: ('A' for Active; 'I' for Inactive)
REMARK    1  A    between atoms: N_2  and  C_7
REMARK    2  A    between atoms: N_3  and  C_17
REMARK    3  A    between atoms: N_6  and  C_24
REMARK    4  A    between atoms: N_6  and  C_25
REMARK    5  A    between atoms: N_6  and  C_26
REMARK    6  A    between atoms: C_9  and  C_16
REMARK    7  A    between atoms: C_18  and  C_19
REMARK                            x       y       z     vdW  Elec       q    Type
REMARK                         _______ _______ _______ _____ _____    ______ ____
ROOT
ATOM      1  O   UNL     1       0.775   1.264  -0.121  0.00  0.00    -0.420 OA
ATOM      4  N   UNL     1       0.752   3.351   0.682  0.00  0.00    -0.112 NA
ATOM      5  N   UNL     1       2.037   2.858   0.811  0.00  0.00    -0.107 NA
ATOM     16  C   UNL     1       0.050   2.387   0.133  0.00  0.00    +0.222 A 
ATOM     18  C   UNL     1       2.003   1.637   0.330  0.00  0.00    +0.248 A 
ENDROOT
BRANCH  18  19
ATOM     19  C   UNL     1       3.042   0.655   0.208  0.00  0.00    +0.039 A 
ATOM     20  C   UNL     1       4.334   0.949   0.644  0.00  0.00    +0.015 A 
ATOM     21  C   UNL     1       2.759  -0.594  -0.345  0.00  0.00    +0.015 A 
ATOM     22  C   UNL     1       5.343  -0.006   0.526  0.00  0.00    +0.024 A 
ATOM     23  C   UNL     1       3.769  -1.549  -0.463  0.00  0.00    +0.024 A 
ATOM     24  C   UNL     1       5.061  -1.255  -0.028  0.00  0.00    +0.029 A 
BRANCH  24   6
ATOM      6  N   UNL     1       6.082  -2.220  -0.148  0.00  0.00    -0.336 N 
ATOM     25  C   UNL     1       7.428  -1.924   0.300  0.00  0.00    +0.129 C 
ATOM     26  C   UNL     1       5.798  -3.523  -0.715  0.00  0.00    +0.129 C 
ENDBRANCH  24   6
ENDBRANCH  18  19
BRANCH  16   9
ATOM      2  N   UNL     1      -3.252   0.920  -0.472  0.00  0.00    -0.299 NA
ATOM      8  C   UNL     1      -2.195   1.255   0.484  0.00  0.00    +0.097 C 
ATOM      9  C   UNL     1      -1.413   2.357  -0.243  0.00  0.00    +0.092 C 
ATOM     10  C   UNL     1      -2.584   0.877  -1.773  0.00  0.00    +0.085 C 
ATOM     11  C   UNL     1      -1.691   2.111  -1.736  0.00  0.00    +0.029 C 
BRANCH   2   7
ATOM      3  N   UNL     1      -6.371  -1.798   0.502  0.00  0.00    -0.305 NA
ATOM      7  C   UNL     1      -3.919  -0.339  -0.148  0.00  0.00    +0.059 C 
ATOM     12  C   UNL     1      -4.564  -0.276   1.240  0.00  0.00    +0.034 C 
ATOM     13  C   UNL     1      -4.980  -0.664  -1.202  0.00  0.00    +0.034 C 
ATOM     14  C   UNL     1      -5.355  -1.553   1.536  0.00  0.00    +0.085 C 
ATOM     15  C   UNL     1      -5.758  -1.928  -0.827  0.00  0.00    +0.085 C 
ATOM     17  C   UNL     1      -7.151  -2.992   0.825  0.00  0.00    +0.104 C 
ENDBRANCH   2   7
ENDBRANCH  16   9
TORSDOF 4
