REMARK  Name = 45361711
REMARK  7 active torsions:
REMARK  status: ('A' for Active; 'I' for Inactive)
REMARK    1  A    between atoms: N_8  and  C_29
REMARK    2  A    between atoms: C_11  and  C_17
REMARK    3  A    between atoms: C_12  and  C_26
REMARK    4  A    between atoms: C_21  and  C_23
REMARK    5  A    between atoms: C_29  and  C_30
REMARK    6  A    between atoms: C_29  and  C_32
REMARK    7  A    between atoms: C_30  and  C_31
REMARK                            x       y       z     vdW  Elec       q    Type
REMARK                         _______ _______ _______ _____ _____    ______ ____
ROOT
ATOM      1  O   UNL     1       0.561  -3.998  -0.993  0.00  0.00    -0.275 OA
ATOM      2  O   UNL     1      -4.255   0.994   1.378  0.00  0.00    -0.275 OA
ATOM      5  N   UNL     1      -0.585  -2.111  -0.262  0.00  0.00    -0.287 N 
ATOM      6  N   UNL     1      -3.075  -0.713   0.330  0.00  0.00    -0.298 N 
ATOM     12  C   UNL     1      -0.583  -0.789   0.379  0.00  0.00    +0.179 C 
ATOM     15  C   UNL     1      -1.875  -0.501   1.144  0.00  0.00    +0.139 C 
ATOM     16  C   UNL     1      -1.886  -2.768  -0.414  0.00  0.00    +0.127 C 
ATOM     17  C   UNL     1       0.569  -2.834  -0.584  0.00  0.00    +0.219 C 
ATOM     18  C   UNL     1      -3.018  -1.783  -0.671  0.00  0.00    +0.127 C 
ATOM     23  C   UNL     1      -4.197   0.092   0.539  0.00  0.00    +0.219 C 
ENDROOT
BRANCH  23  21
ATOM      7  N   UNL     1      -7.871   0.459   1.091  0.00  0.00    -0.316 NA
ATOM     21  C   UNL     1      -5.389  -0.193  -0.329  0.00  0.00    +0.078 C 
ATOM     24  C   UNL     1      -6.281  -1.264   0.303  0.00  0.00    +0.028 C 
ATOM     25  C   UNL     1      -6.182   1.087  -0.604  0.00  0.00    +0.028 C 
ATOM     27  C   UNL     1      -7.097  -0.720   1.477  0.00  0.00    +0.081 C 
ATOM     28  C   UNL     1      -7.002   1.532   0.608  0.00  0.00    +0.081 C 
ATOM     40  H   UNL     1      -8.402   0.792   1.895  0.00  0.00    +0.122 HD
ENDBRANCH  23  21
BRANCH  17  11
ATOM     11  C   UNL     1       1.881  -2.126  -0.406  0.00  0.00    +0.075 C 
ATOM     13  C   UNL     1       2.881  -2.599  -1.462  0.00  0.00    +0.013 C 
ATOM     14  C   UNL     1       2.405  -2.292   1.022  0.00  0.00    +0.013 C 
ATOM     19  C   UNL     1       3.458  -3.982  -1.165  0.00  0.00    +0.001 C 
ATOM     20  C   UNL     1       3.004  -3.671   1.294  0.00  0.00    +0.001 C 
ATOM     22  C   UNL     1       4.038  -4.059   0.243  0.00  0.00    +0.000 C 
ENDBRANCH  17  11
BRANCH  12  26
ATOM      3  O   UNL     1      -0.797   0.072  -1.841  0.00  0.00    -0.274 OA
ATOM      8  N   UNL     1       0.315   1.346  -0.241  0.00  0.00    -0.302 N 
ATOM     26  C   UNL     1      -0.385   0.242  -0.696  0.00  0.00    +0.236 C 
ATOM     41  H   UNL     1       0.545   1.411   0.747  0.00  0.00    +0.150 HD
BRANCH   8  29
ATOM     29  C   UNL     1       0.656   2.469  -1.084  0.00  0.00    +0.163 C 
BRANCH  29  32
ATOM      4  O   UNL     1      -1.232   3.611  -0.067  0.00  0.00    -0.274 OA
ATOM     10  N   UNL     1      -0.695   4.103  -2.245  0.00  0.00    -0.328 N 
ATOM     32  C   UNL     1      -0.527   3.425  -1.056  0.00  0.00    +0.231 C 
ATOM     43  H   UNL     1      -1.440   4.782  -2.357  0.00  0.00    +0.145 HD
ATOM     44  H   UNL     1      -0.090   3.955  -3.047  0.00  0.00    +0.145 HD
ENDBRANCH  29  32
BRANCH  29  30
ATOM     30  C   UNL     1       1.930   3.181  -0.614  0.00  0.00    +0.069 C 
BRANCH  30  31
ATOM      9  N   UNL     1       4.719   0.859  -1.242  0.00  0.00    -0.360 N 
ATOM     31  C   UNL     1       3.134   2.271  -0.594  0.00  0.00    -0.020 A 
ATOM     33  C   UNL     1       3.967   1.994   0.526  0.00  0.00    +0.003 A 
ATOM     34  C   UNL     1       3.622   1.559  -1.665  0.00  0.00    +0.087 A 
ATOM     35  C   UNL     1       4.953   1.105   0.092  0.00  0.00    +0.047 A 
ATOM     36  C   UNL     1       3.976   2.414   1.871  0.00  0.00    +0.010 A 
ATOM     37  C   UNL     1       5.953   0.614   0.940  0.00  0.00    +0.026 A 
ATOM     38  C   UNL     1       4.970   1.931   2.730  0.00  0.00    +0.001 A 
ATOM     39  C   UNL     1       5.942   1.045   2.269  0.00  0.00    +0.002 A 
ATOM     42  H   UNL     1       5.277   0.249  -1.823  0.00  0.00    +0.165 HD
ENDBRANCH  30  31
ENDBRANCH  29  30
ENDBRANCH   8  29
ENDBRANCH  12  26
TORSDOF 7
