MODEL 1
REMARK VINA RESULT:      -6.5      0.000      0.000
REMARK  Name = 7144102
REMARK  7 active torsions:
REMARK  status: ('A' for Active; 'I' for Inactive)
REMARK    1  A    between atoms: O_3  and  C_21
REMARK    2  A    between atoms: O_3  and  C_27
REMARK    3  A    between atoms: O_4  and  C_26
REMARK    4  A    between atoms: O_4  and  C_28
REMARK    5  A    between atoms: C_14  and  C_19
REMARK    6  A    between atoms: C_16  and  C_20
REMARK    7  A    between atoms: C_20  and  C_21
REMARK                            x       y       z     vdW  Elec       q    Type
REMARK                         _______ _______ _______ _____ _____    ______ ____
ROOT
ATOM      1  O   UNL     1       7.133   9.193   4.419  0.00  0.00    -0.268 OA
ATOM      2  O   UNL     1      11.394  10.078   7.386  0.00  0.00    -0.276 OA
ATOM      5  N   UNL     1      11.216   7.808   6.928  0.00  0.00    -0.300 N 
ATOM      6  N   UNL     1       8.704   7.552   4.993  0.00  0.00    -0.311 N 
ATOM      7  C   UNL     1       9.003   6.774   7.417  0.00  0.00    +0.027 C 
ATOM      8  C   UNL     1      10.419   5.832   5.641  0.00  0.00    +0.054 C 
ATOM      9  C   UNL     1       9.475   5.472   6.788  0.00  0.00    +0.018 C 
ATOM     10  C   UNL     1      10.196   7.586   7.952  0.00  0.00    +0.113 C 
ATOM     11  C   UNL     1       8.202   7.554   6.374  0.00  0.00    +0.130 C 
ATOM     12  C   UNL     1      11.633   6.603   6.198  0.00  0.00    +0.117 C 
ATOM     13  C   UNL     1       9.710   6.663   4.567  0.00  0.00    +0.034 A 
ATOM     14  C   UNL     1      10.036   6.589   3.251  0.00  0.00    +0.002 A 
ATOM     15  C   UNL     1       8.028   8.408   4.104  0.00  0.00    +0.252 A 
ATOM     16  C   UNL     1      11.761   9.080   6.761  0.00  0.00    +0.218 C 
ATOM     17  C   UNL     1       9.364   7.460   2.305  0.00  0.00    +0.015 A 
ATOM     18  C   UNL     1       8.428   8.332   2.681  0.00  0.00    +0.071 A 
ENDROOT
BRANCH  14  19
ATOM     19  C   UNL     1      11.073   5.659   2.755  0.00  0.00    -0.016 A 
ATOM     22  C   UNL     1      12.342   6.137   2.447  0.00  0.00    +0.012 A 
ATOM     23  C   UNL     1      10.771   4.308   2.600  0.00  0.00    +0.012 A 
ATOM     24  C   UNL     1      13.320   5.259   1.980  0.00  0.00    +0.046 A 
ATOM     25  C   UNL     1      11.748   3.430   2.133  0.00  0.00    +0.046 A 
ATOM     26  C   UNL     1      13.022   3.904   1.822  0.00  0.00    +0.120 A 
BRANCH  26   4
ATOM      4  O   UNL     1      13.977   3.047   1.368  0.00  0.00    -0.495 OA
ATOM     28  C   UNL     1      15.302   3.559   1.241  0.00  0.00    +0.277 C 
ENDBRANCH  26   4
ENDBRANCH  14  19
BRANCH  16  20
ATOM     20  C   UNL     1      12.860   9.215   5.737  0.00  0.00    +0.124 C 
BRANCH  20  21
ATOM     21  C   UNL     1      14.193   9.356   6.440  0.00  0.00    +0.168 C 
BRANCH  21   3
ATOM      3  O   UNL     1      14.860   8.101   6.451  0.00  0.00    -0.382 OA
ATOM     27  C   UNL     1      15.062   7.607   5.135  0.00  0.00    +0.194 C 
ENDBRANCH  21   3
ENDBRANCH  20  21
ENDBRANCH  16  20
TORSDOF 5
ENDMDL
MODEL 2
REMARK VINA RESULT:      -5.8      2.159      4.300
REMARK  Name = 7144102
REMARK  7 active torsions:
REMARK  status: ('A' for Active; 'I' for Inactive)
REMARK    1  A    between atoms: O_3  and  C_21
REMARK    2  A    between atoms: O_3  and  C_27
REMARK    3  A    between atoms: O_4  and  C_26
REMARK    4  A    between atoms: O_4  and  C_28
REMARK    5  A    between atoms: C_14  and  C_19
REMARK    6  A    between atoms: C_16  and  C_20
REMARK    7  A    between atoms: C_20  and  C_21
REMARK                            x       y       z     vdW  Elec       q    Type
REMARK                         _______ _______ _______ _____ _____    ______ ____
ROOT
ATOM      1  O   UNL     1      10.861   5.839   8.817  0.00  0.00    -0.268 OA
ATOM      2  O   UNL     1      10.569  10.668   6.735  0.00  0.00    -0.276 OA
ATOM      5  N   UNL     1      11.831   9.293   5.351  0.00  0.00    -0.300 N 
ATOM      6  N   UNL     1      11.708   6.419   6.711  0.00  0.00    -0.311 N 
ATOM      7  C   UNL     1      13.677   8.041   6.460  0.00  0.00    +0.027 C 
ATOM      8  C   UNL     1      12.599   7.099   4.461  0.00  0.00    +0.054 C 
ATOM      9  C   UNL     1      13.942   7.290   5.164  0.00  0.00    +0.018 C 
ATOM     10  C   UNL     1      13.034   9.409   6.175  0.00  0.00    +0.113 C 
ATOM     11  C   UNL     1      12.796   7.169   7.354  0.00  0.00    +0.130 C 
ATOM     12  C   UNL     1      11.987   8.478   4.139  0.00  0.00    +0.117 C 
ATOM     13  C   UNL     1      11.629   6.274   5.312  0.00  0.00    +0.034 A 
ATOM     14  C   UNL     1      10.697   5.449   4.769  0.00  0.00    +0.002 A 
ATOM     15  C   UNL     1      10.828   5.759   7.588  0.00  0.00    +0.252 A 
ATOM     16  C   UNL     1      10.677   9.989   5.710  0.00  0.00    +0.218 C 
ATOM     17  C   UNL     1       9.770   4.755   5.642  0.00  0.00    +0.015 A 
ATOM     18  C   UNL     1       9.800   4.894   6.967  0.00  0.00    +0.071 A 
ENDROOT
BRANCH  14  19
ATOM     19  C   UNL     1      10.588   5.251   3.307  0.00  0.00    -0.016 A 
ATOM     22  C   UNL     1      11.175   4.139   2.713  0.00  0.00    +0.012 A 
ATOM     23  C   UNL     1       9.895   6.180   2.535  0.00  0.00    +0.012 A 
ATOM     24  C   UNL     1      11.071   3.953   1.334  0.00  0.00    +0.046 A 
ATOM     25  C   UNL     1       9.790   5.995   1.157  0.00  0.00    +0.046 A 
ATOM     26  C   UNL     1      10.378   4.882   0.556  0.00  0.00    +0.120 A 
BRANCH  26   4
ATOM      4  O   UNL     1      10.275   4.700  -0.789  0.00  0.00    -0.495 OA
ATOM     28  C   UNL     1      11.299   3.933  -1.421  0.00  0.00    +0.277 C 
ENDBRANCH  26   4
ENDBRANCH  14  19
BRANCH  16  20
ATOM     20  C   UNL     1       9.502   9.879   4.772  0.00  0.00    +0.124 C 
BRANCH  20  21
ATOM     21  C   UNL     1       8.523   8.855   5.305  0.00  0.00    +0.168 C 
BRANCH  21   3
ATOM      3  O   UNL     1       7.555   8.557   4.308  0.00  0.00    -0.382 OA
ATOM     27  C   UNL     1       6.785   9.703   3.971  0.00  0.00    +0.194 C 
ENDBRANCH  21   3
ENDBRANCH  20  21
ENDBRANCH  16  20
TORSDOF 5
ENDMDL
MODEL 3
REMARK VINA RESULT:      -5.7     26.188     28.785
REMARK  Name = 7144102
REMARK  7 active torsions:
REMARK  status: ('A' for Active; 'I' for Inactive)
REMARK    1  A    between atoms: O_3  and  C_21
REMARK    2  A    between atoms: O_3  and  C_27
REMARK    3  A    between atoms: O_4  and  C_26
REMARK    4  A    between atoms: O_4  and  C_28
REMARK    5  A    between atoms: C_14  and  C_19
REMARK    6  A    between atoms: C_16  and  C_20
REMARK    7  A    between atoms: C_20  and  C_21
REMARK                            x       y       z     vdW  Elec       q    Type
REMARK                         _______ _______ _______ _____ _____    ______ ____
ROOT
ATOM      1  O   UNL     1      -6.631 -14.916  15.525  0.00  0.00    -0.268 OA
ATOM      2  O   UNL     1      -3.889 -12.139  19.061  0.00  0.00    -0.276 OA
ATOM      5  N   UNL     1      -4.614 -10.738  17.356  0.00  0.00    -0.300 N 
ATOM      6  N   UNL     1      -6.381 -12.588  15.464  0.00  0.00    -0.311 N 
ATOM      7  C   UNL     1      -4.101 -11.496  15.039  0.00  0.00    +0.027 C 
ATOM      8  C   UNL     1      -6.078 -10.092  15.448  0.00  0.00    +0.054 C 
ATOM      9  C   UNL     1      -4.920 -10.342  14.482  0.00  0.00    +0.018 C 
ATOM     10  C   UNL     1      -3.555 -11.155  16.436  0.00  0.00    +0.113 C 
ATOM     11  C   UNL     1      -4.978 -12.748  15.058  0.00  0.00    +0.130 C 
ATOM     12  C   UNL     1      -5.517  -9.704  16.832  0.00  0.00    +0.117 C 
ATOM     13  C   UNL     1      -6.986 -11.319  15.570  0.00  0.00    +0.034 A 
ATOM     14  C   UNL     1      -8.321 -11.223  15.799  0.00  0.00    +0.002 A 
ATOM     15  C   UNL     1      -7.106 -13.784  15.620  0.00  0.00    +0.252 A 
ATOM     16  C   UNL     1      -4.659 -11.270  18.644  0.00  0.00    +0.218 C 
ATOM     17  C   UNL     1      -9.100 -12.434  15.969  0.00  0.00    +0.015 A 
ATOM     18  C   UNL     1      -8.552 -13.648  15.904  0.00  0.00    +0.071 A 
ENDROOT
BRANCH  14  19
ATOM     19  C   UNL     1      -9.002  -9.914  15.899  0.00  0.00    -0.016 A 
ATOM     22  C   UNL     1      -9.579  -9.345  14.769  0.00  0.00    +0.012 A 
ATOM     23  C   UNL     1      -9.064  -9.261  17.127  0.00  0.00    +0.012 A 
ATOM     24  C   UNL     1     -10.222  -8.111  14.864  0.00  0.00    +0.046 A 
ATOM     25  C   UNL     1      -9.707  -8.028  17.224  0.00  0.00    +0.046 A 
ATOM     26  C   UNL     1     -10.286  -7.452  16.093  0.00  0.00    +0.120 A 
BRANCH  26   4
ATOM      4  O   UNL     1     -10.915  -6.249  16.187  0.00  0.00    -0.495 OA
ATOM     28  C   UNL     1     -11.747  -5.864  15.094  0.00  0.00    +0.277 C 
ENDBRANCH  26   4
ENDBRANCH  14  19
BRANCH  16  20
ATOM     20  C   UNL     1      -5.734 -10.737  19.557  0.00  0.00    +0.124 C 
BRANCH  20  21
ATOM     21  C   UNL     1      -6.877 -11.727  19.625  0.00  0.00    +0.168 C 
BRANCH  21   3
ATOM      3  O   UNL     1      -8.070 -11.052  20.004  0.00  0.00    -0.382 OA
ATOM     27  C   UNL     1      -9.222 -11.833  19.720  0.00  0.00    +0.194 C 
ENDBRANCH  21   3
ENDBRANCH  20  21
ENDBRANCH  16  20
TORSDOF 5
ENDMDL
MODEL 4
REMARK VINA RESULT:      -5.7     25.261     28.471
REMARK  Name = 7144102
REMARK  7 active torsions:
REMARK  status: ('A' for Active; 'I' for Inactive)
REMARK    1  A    between atoms: O_3  and  C_21
REMARK    2  A    between atoms: O_3  and  C_27
REMARK    3  A    between atoms: O_4  and  C_26
REMARK    4  A    between atoms: O_4  and  C_28
REMARK    5  A    between atoms: C_14  and  C_19
REMARK    6  A    between atoms: C_16  and  C_20
REMARK    7  A    between atoms: C_20  and  C_21
REMARK                            x       y       z     vdW  Elec       q    Type
REMARK                         _______ _______ _______ _____ _____    ______ ____
ROOT
ATOM      1  O   UNL     1     -10.777  12.949  18.188  0.00  0.00    -0.268 OA
ATOM      2  O   UNL     1     -14.272  11.057  14.732  0.00  0.00    -0.276 OA
ATOM      5  N   UNL     1     -13.110   9.300  15.712  0.00  0.00    -0.300 N 
ATOM      6  N   UNL     1     -11.214  10.670  17.869  0.00  0.00    -0.311 N 
ATOM      7  C   UNL     1     -10.627   9.488  15.671  0.00  0.00    +0.027 C 
ATOM      8  C   UNL     1     -11.721   8.238  17.484  0.00  0.00    +0.054 C 
ATOM      9  C   UNL     1     -10.521   8.243  16.538  0.00  0.00    +0.018 C 
ATOM     10  C   UNL     1     -11.934   9.480  14.861  0.00  0.00    +0.113 C 
ATOM     11  C   UNL     1     -10.521  10.717  16.574  0.00  0.00    +0.130 C 
ATOM     12  C   UNL     1     -13.024   8.181  16.659  0.00  0.00    +0.117 C 
ATOM     13  C   UNL     1     -11.724   9.467  18.397  0.00  0.00    +0.034 A 
ATOM     14  C   UNL     1     -12.220   9.440  19.661  0.00  0.00    +0.002 A 
ATOM     15  C   UNL     1     -11.222  11.875  18.594  0.00  0.00    +0.252 A 
ATOM     16  C   UNL     1     -14.223  10.121  15.534  0.00  0.00    +0.218 C 
ATOM     17  C   UNL     1     -12.250  10.664  20.437  0.00  0.00    +0.015 A 
ATOM     18  C   UNL     1     -11.801  11.824  19.956  0.00  0.00    +0.071 A 
ENDROOT
BRANCH  14  19
ATOM     19  C   UNL     1     -12.751   8.197  20.263  0.00  0.00    -0.016 A 
ATOM     22  C   UNL     1     -11.877   7.272  20.824  0.00  0.00    +0.012 A 
ATOM     23  C   UNL     1     -14.123   7.964  20.267  0.00  0.00    +0.012 A 
ATOM     24  C   UNL     1     -12.378   6.101  21.393  0.00  0.00    +0.046 A 
ATOM     25  C   UNL     1     -14.625   6.794  20.835  0.00  0.00    +0.046 A 
ATOM     26  C   UNL     1     -13.753   5.862  21.399  0.00  0.00    +0.120 A 
BRANCH  26   4
ATOM      4  O   UNL     1     -14.242   4.720  21.955  0.00  0.00    -0.495 OA
ATOM     28  C   UNL     1     -14.470   4.730  23.363  0.00  0.00    +0.277 C 
ENDBRANCH  26   4
ENDBRANCH  14  19
BRANCH  16  20
ATOM     20  C   UNL     1     -15.424   9.828  16.399  0.00  0.00    +0.124 C 
BRANCH  20  21
ATOM     21  C   UNL     1     -15.845  11.088  17.124  0.00  0.00    +0.168 C 
BRANCH  21   3
ATOM      3  O   UNL     1     -14.777  11.544  17.945  0.00  0.00    -0.382 OA
ATOM     27  C   UNL     1     -14.724  12.963  17.989  0.00  0.00    +0.194 C 
ENDBRANCH  21   3
ENDBRANCH  20  21
ENDBRANCH  16  20
TORSDOF 5
ENDMDL
MODEL 5
REMARK VINA RESULT:      -5.6     24.965     27.462
REMARK  Name = 7144102
REMARK  7 active torsions:
REMARK  status: ('A' for Active; 'I' for Inactive)
REMARK    1  A    between atoms: O_3  and  C_21
REMARK    2  A    between atoms: O_3  and  C_27
REMARK    3  A    between atoms: O_4  and  C_26
REMARK    4  A    between atoms: O_4  and  C_28
REMARK    5  A    between atoms: C_14  and  C_19
REMARK    6  A    between atoms: C_16  and  C_20
REMARK    7  A    between atoms: C_20  and  C_21
REMARK                            x       y       z     vdW  Elec       q    Type
REMARK                         _______ _______ _______ _____ _____    ______ ____
ROOT
ATOM      1  O   UNL     1      -7.035 -14.946  17.056  0.00  0.00    -0.268 OA
ATOM      2  O   UNL     1      -8.925 -10.351  18.803  0.00  0.00    -0.276 OA
ATOM      5  N   UNL     1      -6.894 -10.005  17.730  0.00  0.00    -0.300 N 
ATOM      6  N   UNL     1      -6.055 -12.865  16.614  0.00  0.00    -0.311 N 
ATOM      7  C   UNL     1      -5.012 -11.453  18.482  0.00  0.00    +0.027 C 
ATOM      8  C   UNL     1      -5.045 -10.605  16.174  0.00  0.00    +0.054 C 
ATOM      9  C   UNL     1      -4.138 -10.891  17.371  0.00  0.00    +0.018 C 
ATOM     10  C   UNL     1      -6.104 -10.446  18.880  0.00  0.00    +0.113 C 
ATOM     11  C   UNL     1      -5.602 -12.782  18.010  0.00  0.00    +0.130 C 
ATOM     12  C   UNL     1      -6.107  -9.559  16.573  0.00  0.00    +0.117 C 
ATOM     13  C   UNL     1      -5.723 -11.880  15.663  0.00  0.00    +0.034 A 
ATOM     14  C   UNL     1      -6.032 -12.071  14.355  0.00  0.00    +0.002 A 
ATOM     15  C   UNL     1      -6.734 -14.048  16.269  0.00  0.00    +0.252 A 
ATOM     16  C   UNL     1      -8.285  -9.969  17.820  0.00  0.00    +0.218 C 
ATOM     17  C   UNL     1      -6.736 -13.277  13.962  0.00  0.00    +0.015 A 
ATOM     18  C   UNL     1      -7.089 -14.214  14.842  0.00  0.00    +0.071 A 
ENDROOT
BRANCH  14  19
ATOM     19  C   UNL     1      -5.688 -11.074  13.318  0.00  0.00    -0.016 A 
ATOM     22  C   UNL     1      -4.453 -11.136  12.680  0.00  0.00    +0.012 A 
ATOM     23  C   UNL     1      -6.604 -10.079  12.987  0.00  0.00    +0.012 A 
ATOM     24  C   UNL     1      -4.130 -10.196  11.702  0.00  0.00    +0.046 A 
ATOM     25  C   UNL     1      -6.281  -9.139  12.009  0.00  0.00    +0.046 A 
ATOM     26  C   UNL     1      -5.044  -9.196  11.366  0.00  0.00    +0.120 A 
BRANCH  26   4
ATOM      4  O   UNL     1      -4.729  -8.280  10.411  0.00  0.00    -0.495 OA
ATOM     28  C   UNL     1      -4.130  -8.770   9.213  0.00  0.00    +0.277 C 
ENDBRANCH  26   4
ENDBRANCH  14  19
BRANCH  16  20
ATOM     20  C   UNL     1      -9.026  -9.434  16.620  0.00  0.00    +0.124 C 
BRANCH  20  21
ATOM     21  C   UNL     1      -9.749  -8.160  16.999  0.00  0.00    +0.168 C 
BRANCH  21   3
ATOM      3  O   UNL     1      -9.852  -7.315  15.861  0.00  0.00    -0.382 OA
ATOM     27  C   UNL     1     -10.917  -6.385  15.997  0.00  0.00    +0.194 C 
ENDBRANCH  21   3
ENDBRANCH  20  21
ENDBRANCH  16  20
TORSDOF 5
ENDMDL
MODEL 6
REMARK VINA RESULT:      -5.6     23.639     25.939
REMARK  Name = 7144102
REMARK  7 active torsions:
REMARK  status: ('A' for Active; 'I' for Inactive)
REMARK    1  A    between atoms: O_3  and  C_21
REMARK    2  A    between atoms: O_3  and  C_27
REMARK    3  A    between atoms: O_4  and  C_26
REMARK    4  A    between atoms: O_4  and  C_28
REMARK    5  A    between atoms: C_14  and  C_19
REMARK    6  A    between atoms: C_16  and  C_20
REMARK    7  A    between atoms: C_20  and  C_21
REMARK                            x       y       z     vdW  Elec       q    Type
REMARK                         _______ _______ _______ _____ _____    ______ ____
ROOT
ATOM      1  O   UNL     1      -1.928 -10.698  16.699  0.00  0.00    -0.268 OA
ATOM      2  O   UNL     1      -5.294 -14.704  16.103  0.00  0.00    -0.276 OA
ATOM      5  N   UNL     1      -6.002 -12.891  14.835  0.00  0.00    -0.300 N 
ATOM      6  N   UNL     1      -3.735 -10.689  15.210  0.00  0.00    -0.311 N 
ATOM      7  C   UNL     1      -6.159 -10.719  16.044  0.00  0.00    +0.027 C 
ATOM      8  C   UNL     1      -5.691 -10.735  13.630  0.00  0.00    +0.054 C 
ATOM      9  C   UNL     1      -6.467 -10.014  14.732  0.00  0.00    +0.018 C 
ATOM     10  C   UNL     1      -6.584 -12.196  15.983  0.00  0.00    +0.113 C 
ATOM     11  C   UNL     1      -4.667 -10.565  16.339  0.00  0.00    +0.130 C 
ATOM     12  C   UNL     1      -6.161 -12.202  13.547  0.00  0.00    +0.117 C 
ATOM     13  C   UNL     1      -4.180 -10.675  13.872  0.00  0.00    +0.034 A 
ATOM     14  C   UNL     1      -3.276 -10.639  12.859  0.00  0.00    +0.002 A 
ATOM     15  C   UNL     1      -2.370 -10.699  15.550  0.00  0.00    +0.252 A 
ATOM     16  C   UNL     1      -5.417 -14.145  15.010  0.00  0.00    +0.218 C 
ATOM     17  C   UNL     1      -1.860 -10.653  13.172  0.00  0.00    +0.015 A 
ATOM     18  C   UNL     1      -1.408 -10.696  14.425  0.00  0.00    +0.071 A 
ENDROOT
BRANCH  14  19
ATOM     19  C   UNL     1      -3.696 -10.605  11.441  0.00  0.00    -0.016 A 
ATOM     22  C   UNL     1      -3.809 -11.792  10.724  0.00  0.00    +0.012 A 
ATOM     23  C   UNL     1      -3.977  -9.384  10.834  0.00  0.00    +0.012 A 
ATOM     24  C   UNL     1      -4.205 -11.760   9.387  0.00  0.00    +0.046 A 
ATOM     25  C   UNL     1      -4.373  -9.351   9.497  0.00  0.00    +0.046 A 
ATOM     26  C   UNL     1      -4.487 -10.538   8.773  0.00  0.00    +0.120 A 
BRANCH  26   4
ATOM      4  O   UNL     1      -4.874 -10.507   7.469  0.00  0.00    -0.495 OA
ATOM     28  C   UNL     1      -4.699 -11.702   6.710  0.00  0.00    +0.277 C 
ENDBRANCH  26   4
ENDBRANCH  14  19
BRANCH  16  20
ATOM     20  C   UNL     1      -4.905 -14.831  13.769  0.00  0.00    +0.124 C 
BRANCH  20  21
ATOM     21  C   UNL     1      -3.461 -15.235  13.974  0.00  0.00    +0.168 C 
BRANCH  21   3
ATOM      3  O   UNL     1      -2.641 -14.074  13.999  0.00  0.00    -0.382 OA
ATOM     27  C   UNL     1      -1.350 -14.336  13.466  0.00  0.00    +0.194 C 
ENDBRANCH  21   3
ENDBRANCH  20  21
ENDBRANCH  16  20
TORSDOF 5
ENDMDL
MODEL 7
REMARK VINA RESULT:      -5.5     24.125     26.498
REMARK  Name = 7144102
REMARK  7 active torsions:
REMARK  status: ('A' for Active; 'I' for Inactive)
REMARK    1  A    between atoms: O_3  and  C_21
REMARK    2  A    between atoms: O_3  and  C_27
REMARK    3  A    between atoms: O_4  and  C_26
REMARK    4  A    between atoms: O_4  and  C_28
REMARK    5  A    between atoms: C_14  and  C_19
REMARK    6  A    between atoms: C_16  and  C_20
REMARK    7  A    between atoms: C_20  and  C_21
REMARK                            x       y       z     vdW  Elec       q    Type
REMARK                         _______ _______ _______ _____ _____    ______ ____
ROOT
ATOM      1  O   UNL     1      -1.097 -11.047  15.589  0.00  0.00    -0.268 OA
ATOM      2  O   UNL     1      -4.872 -14.500  16.841  0.00  0.00    -0.276 OA
ATOM      5  N   UNL     1      -5.835 -12.510  16.129  0.00  0.00    -0.300 N 
ATOM      6  N   UNL     1      -3.386 -10.672  15.263  0.00  0.00    -0.311 N 
ATOM      7  C   UNL     1      -5.001 -10.444  17.241  0.00  0.00    +0.027 C 
ATOM      8  C   UNL     1      -5.855 -10.324  14.939  0.00  0.00    +0.054 C 
ATOM      9  C   UNL     1      -5.825  -9.598  16.283  0.00  0.00    +0.018 C 
ATOM     10  C   UNL     1      -5.624 -11.839  17.412  0.00  0.00    +0.113 C 
ATOM     11  C   UNL     1      -3.568 -10.517  16.713  0.00  0.00    +0.130 C 
ATOM     12  C   UNL     1      -6.525 -11.702  15.114  0.00  0.00    +0.117 C 
ATOM     13  C   UNL     1      -4.448 -10.488  14.356  0.00  0.00    +0.034 A 
ATOM     14  C   UNL     1      -4.205 -10.491  13.020  0.00  0.00    +0.002 A 
ATOM     15  C   UNL     1      -2.063 -10.894  14.841  0.00  0.00    +0.252 A 
ATOM     16  C   UNL     1      -5.451 -13.841  15.973  0.00  0.00    +0.218 C 
ATOM     17  C   UNL     1      -2.853 -10.722  12.546  0.00  0.00    +0.015 A 
ATOM     18  C   UNL     1      -1.833 -10.928  13.379  0.00  0.00    +0.071 A 
ENDROOT
BRANCH  14  19
ATOM     19  C   UNL     1      -5.284 -10.284  12.030  0.00  0.00    -0.016 A 
ATOM     22  C   UNL     1      -5.937 -11.382  11.478  0.00  0.00    +0.012 A 
ATOM     23  C   UNL     1      -5.641  -8.991  11.658  0.00  0.00    +0.012 A 
ATOM     24  C   UNL     1      -6.955 -11.187  10.545  0.00  0.00    +0.046 A 
ATOM     25  C   UNL     1      -6.659  -8.795  10.725  0.00  0.00    +0.046 A 
ATOM     26  C   UNL     1      -7.316  -9.892  10.168  0.00  0.00    +0.120 A 
BRANCH  26   4
ATOM      4  O   UNL     1      -8.310  -9.701   9.259  0.00  0.00    -0.495 OA
ATOM     28  C   UNL     1      -8.667  -8.353   8.960  0.00  0.00    +0.277 C 
ENDBRANCH  26   4
ENDBRANCH  14  19
BRANCH  16  20
ATOM     20  C   UNL     1      -5.768 -14.486  14.647  0.00  0.00    +0.124 C 
BRANCH  20  21
ATOM     21  C   UNL     1      -4.501 -15.053  14.045  0.00  0.00    +0.168 C 
BRANCH  21   3
ATOM      3  O   UNL     1      -3.529 -14.023  13.924  0.00  0.00    -0.382 OA
ATOM     27  C   UNL     1      -2.211 -14.529  14.088  0.00  0.00    +0.194 C 
ENDBRANCH  21   3
ENDBRANCH  20  21
ENDBRANCH  16  20
TORSDOF 5
ENDMDL
MODEL 8
REMARK VINA RESULT:      -5.5     26.542     30.116
REMARK  Name = 7144102
REMARK  7 active torsions:
REMARK  status: ('A' for Active; 'I' for Inactive)
REMARK    1  A    between atoms: O_3  and  C_21
REMARK    2  A    between atoms: O_3  and  C_27
REMARK    3  A    between atoms: O_4  and  C_26
REMARK    4  A    between atoms: O_4  and  C_28
REMARK    5  A    between atoms: C_14  and  C_19
REMARK    6  A    between atoms: C_16  and  C_20
REMARK    7  A    between atoms: C_20  and  C_21
REMARK                            x       y       z     vdW  Elec       q    Type
REMARK                         _______ _______ _______ _____ _____    ______ ____
ROOT
ATOM      1  O   UNL     1     -14.927   5.196  23.751  0.00  0.00    -0.268 OA
ATOM      2  O   UNL     1     -18.301   6.732  20.010  0.00  0.00    -0.276 OA
ATOM      5  N   UNL     1     -16.660   8.351  20.297  0.00  0.00    -0.300 N 
ATOM      6  N   UNL     1     -14.662   7.124  22.449  0.00  0.00    -0.311 N 
ATOM      7  C   UNL     1     -16.280   9.104  22.641  0.00  0.00    +0.027 C 
ATOM      8  C   UNL     1     -14.429   9.183  21.024  0.00  0.00    +0.054 C 
ATOM      9  C   UNL     1     -15.091   9.933  22.179  0.00  0.00    +0.018 C 
ATOM     10  C   UNL     1     -17.287   8.908  21.495  0.00  0.00    +0.113 C 
ATOM     11  C   UNL     1     -15.761   7.771  23.180  0.00  0.00    +0.130 C 
ATOM     12  C   UNL     1     -15.435   9.036  19.864  0.00  0.00    +0.117 C 
ATOM     13  C   UNL     1     -13.921   7.807  21.463  0.00  0.00    +0.034 A 
ATOM     14  C   UNL     1     -12.820   7.225  20.921  0.00  0.00    +0.002 A 
ATOM     15  C   UNL     1     -14.324   5.831  22.885  0.00  0.00    +0.252 A 
ATOM     16  C   UNL     1     -17.272   7.293  19.626  0.00  0.00    +0.218 C 
ATOM     17  C   UNL     1     -12.444   5.890  21.343  0.00  0.00    +0.015 A 
ATOM     18  C   UNL     1     -13.140   5.207  22.252  0.00  0.00    +0.071 A 
ENDROOT
BRANCH  14  19
ATOM     19  C   UNL     1     -12.001   7.909  19.896  0.00  0.00    -0.016 A 
ATOM     22  C   UNL     1     -12.187   7.612  18.550  0.00  0.00    +0.012 A 
ATOM     23  C   UNL     1     -11.050   8.848  20.287  0.00  0.00    +0.012 A 
ATOM     24  C   UNL     1     -11.415   8.257  17.584  0.00  0.00    +0.046 A 
ATOM     25  C   UNL     1     -10.279   9.494  19.322  0.00  0.00    +0.046 A 
ATOM     26  C   UNL     1     -10.460   9.199  17.970  0.00  0.00    +0.120 A 
BRANCH  26   4
ATOM      4  O   UNL     1      -9.708   9.830  17.028  0.00  0.00    -0.495 OA
ATOM     28  C   UNL     1     -10.403  10.419  15.930  0.00  0.00    +0.277 C 
ENDBRANCH  26   4
ENDBRANCH  14  19
BRANCH  16  20
ATOM     20  C   UNL     1     -16.604   6.821  18.359  0.00  0.00    +0.124 C 
BRANCH  20  21
ATOM     21  C   UNL     1     -17.419   7.262  17.163  0.00  0.00    +0.168 C 
BRANCH  21   3
ATOM      3  O   UNL     1     -16.596   7.272  16.003  0.00  0.00    -0.382 OA
ATOM     27  C   UNL     1     -15.381   7.972  16.233  0.00  0.00    +0.194 C 
ENDBRANCH  21   3
ENDBRANCH  20  21
ENDBRANCH  16  20
TORSDOF 5
ENDMDL
MODEL 9
REMARK VINA RESULT:      -5.5      2.562      5.702
REMARK  Name = 7144102
REMARK  7 active torsions:
REMARK  status: ('A' for Active; 'I' for Inactive)
REMARK    1  A    between atoms: O_3  and  C_21
REMARK    2  A    between atoms: O_3  and  C_27
REMARK    3  A    between atoms: O_4  and  C_26
REMARK    4  A    between atoms: O_4  and  C_28
REMARK    5  A    between atoms: C_14  and  C_19
REMARK    6  A    between atoms: C_16  and  C_20
REMARK    7  A    between atoms: C_20  and  C_21
REMARK                            x       y       z     vdW  Elec       q    Type
REMARK                         _______ _______ _______ _____ _____    ______ ____
ROOT
ATOM      1  O   UNL     1       8.593  10.443   1.737  0.00  0.00    -0.268 OA
ATOM      2  O   UNL     1      11.833   6.708  -0.079  0.00  0.00    -0.276 OA
ATOM      5  N   UNL     1      12.330   7.163   2.144  0.00  0.00    -0.300 N 
ATOM      6  N   UNL     1      10.145   9.289   3.058  0.00  0.00    -0.311 N 
ATOM      7  C   UNL     1      12.670   9.566   2.709  0.00  0.00    +0.027 C 
ATOM      8  C   UNL     1      11.830   8.021   4.427  0.00  0.00    +0.054 C 
ATOM      9  C   UNL     1      12.767   9.203   4.183  0.00  0.00    +0.018 C 
ATOM     10  C   UNL     1      13.083   8.376   1.826  0.00  0.00    +0.113 C 
ATOM     11  C   UNL     1      11.242  10.027   2.415  0.00  0.00    +0.130 C 
ATOM     12  C   UNL     1      12.284   6.820   3.572  0.00  0.00    +0.117 C 
ATOM     13  C   UNL     1      10.375   8.379   4.109  0.00  0.00    +0.034 A 
ATOM     14  C   UNL     1       9.324   7.835   4.775  0.00  0.00    +0.002 A 
ATOM     15  C   UNL     1       8.851   9.644   2.638  0.00  0.00    +0.252 A 
ATOM     16  C   UNL     1      11.783   6.399   1.115  0.00  0.00    +0.218 C 
ATOM     17  C   UNL     1       7.975   8.174   4.366  0.00  0.00    +0.015 A 
ATOM     18  C   UNL     1       7.724   9.009   3.358  0.00  0.00    +0.071 A 
ENDROOT
BRANCH  14  19
ATOM     19  C   UNL     1       9.517   6.888   5.895  0.00  0.00    -0.016 A 
ATOM     22  C   UNL     1       9.528   5.519   5.651  0.00  0.00    +0.012 A 
ATOM     23  C   UNL     1       9.687   7.376   7.188  0.00  0.00    +0.012 A 
ATOM     24  C   UNL     1       9.710   4.628   6.708  0.00  0.00    +0.046 A 
ATOM     25  C   UNL     1       9.868   6.485   8.245  0.00  0.00    +0.046 A 
ATOM     26  C   UNL     1       9.880   5.111   8.006  0.00  0.00    +0.120 A 
BRANCH  26   4
ATOM      4  O   UNL     1      10.059   4.241   9.037  0.00  0.00    -0.495 OA
ATOM     28  C   UNL     1       9.151   4.339  10.134  0.00  0.00    +0.277 C 
ENDBRANCH  26   4
ENDBRANCH  14  19
BRANCH  16  20
ATOM     20  C   UNL     1      11.084   5.125   1.517  0.00  0.00    +0.124 C 
BRANCH  20  21
ATOM     21  C   UNL     1      11.874   3.935   1.019  0.00  0.00    +0.168 C 
BRANCH  21   3
ATOM      3  O   UNL     1      13.040   3.770   1.816  0.00  0.00    -0.382 OA
ATOM     27  C   UNL     1      14.211   3.691   1.016  0.00  0.00    +0.194 C 
ENDBRANCH  21   3
ENDBRANCH  20  21
ENDBRANCH  16  20
TORSDOF 5
ENDMDL
MODEL 10
REMARK VINA RESULT:      -5.4     22.982     25.269
REMARK  Name = 7144102
REMARK  7 active torsions:
REMARK  status: ('A' for Active; 'I' for Inactive)
REMARK    1  A    between atoms: O_3  and  C_21
REMARK    2  A    between atoms: O_3  and  C_27
REMARK    3  A    between atoms: O_4  and  C_26
REMARK    4  A    between atoms: O_4  and  C_28
REMARK    5  A    between atoms: C_14  and  C_19
REMARK    6  A    between atoms: C_16  and  C_20
REMARK    7  A    between atoms: C_20  and  C_21
REMARK                            x       y       z     vdW  Elec       q    Type
REMARK                         _______ _______ _______ _____ _____    ______ ____
ROOT
ATOM      1  O   UNL     1      19.681  -5.088  21.638  0.00  0.00    -0.268 OA
ATOM      2  O   UNL     1      20.769  -1.111  24.915  0.00  0.00    -0.276 OA
ATOM      5  N   UNL     1      18.566  -1.786  25.207  0.00  0.00    -0.300 N 
ATOM      6  N   UNL     1      18.208  -4.289  23.275  0.00  0.00    -0.311 N 
ATOM      7  C   UNL     1      17.196  -1.938  23.132  0.00  0.00    +0.027 C 
ATOM      8  C   UNL     1      16.667  -3.388  25.046  0.00  0.00    +0.054 C 
ATOM      9  C   UNL     1      16.052  -2.539  23.934  0.00  0.00    +0.018 C 
ATOM     10  C   UNL     1      18.090  -1.063  24.028  0.00  0.00    +0.113 C 
ATOM     11  C   UNL     1      17.980  -3.075  22.478  0.00  0.00    +0.130 C 
ATOM     12  C   UNL     1      17.523  -2.490  25.964  0.00  0.00    +0.117 C 
ATOM     13  C   UNL     1      17.517  -4.529  24.479  0.00  0.00    +0.034 A 
ATOM     14  C   UNL     1      17.644  -5.728  25.104  0.00  0.00    +0.002 A 
ATOM     15  C   UNL     1      19.065  -5.241  22.694  0.00  0.00    +0.252 A 
ATOM     16  C   UNL     1      19.911  -1.709  25.568  0.00  0.00    +0.218 C 
ATOM     17  C   UNL     1      18.523  -6.733  24.537  0.00  0.00    +0.015 A 
ATOM     18  C   UNL     1      19.212  -6.525  23.415  0.00  0.00    +0.071 A 
ENDROOT
BRANCH  14  19
ATOM     19  C   UNL     1      16.926  -6.033  26.360  0.00  0.00    -0.016 A 
ATOM     22  C   UNL     1      15.710  -6.708  26.316  0.00  0.00    +0.012 A 
ATOM     23  C   UNL     1      17.473  -5.643  27.580  0.00  0.00    +0.012 A 
ATOM     24  C   UNL     1      15.033  -6.995  27.501  0.00  0.00    +0.046 A 
ATOM     25  C   UNL     1      16.797  -5.931  28.765  0.00  0.00    +0.046 A 
ATOM     26  C   UNL     1      15.577  -6.607  28.727  0.00  0.00    +0.120 A 
BRANCH  26   4
ATOM      4  O   UNL     1      14.917  -6.888  29.883  0.00  0.00    -0.495 OA
ATOM     28  C   UNL     1      14.268  -5.802  30.542  0.00  0.00    +0.277 C 
ENDBRANCH  26   4
ENDBRANCH  14  19
BRANCH  16  20
ATOM     20  C   UNL     1      20.311  -2.421  26.836  0.00  0.00    +0.124 C 
BRANCH  20  21
ATOM     21  C   UNL     1      21.449  -3.374  26.543  0.00  0.00    +0.168 C 
BRANCH  21   3
ATOM      3  O   UNL     1      21.028  -4.340  25.590  0.00  0.00    -0.382 OA
ATOM     27  C   UNL     1      22.136  -4.967  24.959  0.00  0.00    +0.194 C 
ENDBRANCH  21   3
ENDBRANCH  20  21
ENDBRANCH  16  20
TORSDOF 5
ENDMDL
