MODEL 1
REMARK VINA RESULT:      -7.5      0.000      0.000
REMARK  Name = 75536776
REMARK  9 active torsions:
REMARK  status: ('A' for Active; 'I' for Inactive)
REMARK    1  A    between atoms: S_1  and  C_20
REMARK    2  A    between atoms: S_1  and  C_24
REMARK    3  A    between atoms: O_3  and  C_11
REMARK    4  A    between atoms: N_7  and  C_10
REMARK    5  A    between atoms: N_7  and  C_15
REMARK    6  A    between atoms: N_8  and  C_14
REMARK    7  A    between atoms: N_9  and  C_23
REMARK    8  A    between atoms: C_12  and  C_14
REMARK    9  A    between atoms: C_15  and  C_16
REMARK                            x       y       z     vdW  Elec       q    Type
REMARK                         _______ _______ _______ _____ _____    ______ ____
ROOT
ATOM      2  O   UNL     1      12.524  13.054  23.193  0.00  0.00    -0.371 OA
ATOM     10  C   UNL     1      11.252  11.090  23.554  0.00  0.00    +0.111 C 
ATOM     11  C   UNL     1      11.984  11.415  24.844  0.00  0.00    +0.164 C 
ATOM     12  C   UNL     1      12.942  12.547  24.475  0.00  0.00    +0.165 C 
ATOM     13  C   UNL     1      11.290  12.426  22.829  0.00  0.00    +0.181 C 
ENDROOT
BRANCH  11   3
ATOM      3  O   UNL     1      11.021  11.905  25.779  0.00  0.00    -0.388 OA
ATOM     31  H   UNL     1      10.859  11.196  26.426  0.00  0.00    +0.210 HD
ENDBRANCH  11   3
BRANCH  10   7
ATOM      7  N   UNL     1      11.950  10.064  22.782  0.00  0.00    -0.305 NA
ATOM     30  H   UNL     1      12.711  10.495  22.258  0.00  0.00    +0.123 HD
BRANCH   7  15
ATOM     15  C   UNL     1      11.048   9.413  21.840  0.00  0.00    +0.116 C 
BRANCH  15  16
ATOM     16  C   UNL     1      11.622   9.380  20.448  0.00  0.00    -0.033 A 
ATOM     18  C   UNL     1      11.168   8.433  19.529  0.00  0.00    +0.007 A 
ATOM     19  C   UNL     1      12.606  10.295  20.076  0.00  0.00    +0.007 A 
ATOM     20  C   UNL     1      12.683   9.319  17.869  0.00  0.00    +0.088 A 
ATOM     21  C   UNL     1      11.698   8.403  18.239  0.00  0.00    +0.027 A 
ATOM     22  C   UNL     1      13.137  10.266  18.787  0.00  0.00    +0.027 A 
BRANCH  20   1
ATOM      1  S   UNL     1      13.350   9.278  16.256  0.00  0.00    -0.006 S 
ATOM      5  O   UNL     1      14.084   8.033  16.081  0.00  0.00    -0.170 OA
ATOM      6  O   UNL     1      12.289   9.630  15.323  0.00  0.00    -0.170 OA
ATOM     24  C   UNL     1      14.550  10.592  16.240  0.00  0.00    +0.200 C 
ENDBRANCH  20   1
ENDBRANCH  15  16
ENDBRANCH   7  15
ENDBRANCH  10   7
BRANCH  12  14
ATOM     14  C   UNL     1      14.393  12.105  24.364  0.00  0.00    +0.140 C 
BRANCH  14   8
ATOM      4  O   UNL     1      15.498  11.044  21.943  0.00  0.00    -0.253 OA
ATOM      8  N   UNL     1      14.490  10.721  24.000  0.00  0.00    -0.297 N 
ATOM      9  N   UNL     1      15.005   8.881  22.712  0.00  0.00    -0.269 N 
ATOM     17  C   UNL     1      15.047  10.276  22.790  0.00  0.00    +0.304 C 
ATOM     32  H   UNL     1      14.128  10.028  24.648  0.00  0.00    +0.150 HD
ATOM     33  H   UNL     1      14.597   8.392  23.504  0.00  0.00    +0.156 HD
BRANCH   9  23
ATOM     23  C   UNL     1      15.466   8.056  21.659  0.00  0.00    +0.035 A 
ATOM     25  C   UNL     1      16.834   7.938  21.414  0.00  0.00    +0.023 A 
ATOM     26  C   UNL     1      14.553   7.362  20.866  0.00  0.00    +0.023 A 
ATOM     27  C   UNL     1      17.289   7.125  20.377  0.00  0.00    +0.002 A 
ATOM     28  C   UNL     1      15.008   6.549  19.827  0.00  0.00    +0.002 A 
ATOM     29  C   UNL     1      16.376   6.430  19.583  0.00  0.00    +0.000 A 
ENDBRANCH   9  23
ENDBRANCH  14   8
ENDBRANCH  12  14
TORSDOF 8
ENDMDL
MODEL 2
REMARK VINA RESULT:      -6.9      1.553      2.247
REMARK  Name = 75536776
REMARK  9 active torsions:
REMARK  status: ('A' for Active; 'I' for Inactive)
REMARK    1  A    between atoms: S_1  and  C_20
REMARK    2  A    between atoms: S_1  and  C_24
REMARK    3  A    between atoms: O_3  and  C_11
REMARK    4  A    between atoms: N_7  and  C_10
REMARK    5  A    between atoms: N_7  and  C_15
REMARK    6  A    between atoms: N_8  and  C_14
REMARK    7  A    between atoms: N_9  and  C_23
REMARK    8  A    between atoms: C_12  and  C_14
REMARK    9  A    between atoms: C_15  and  C_16
REMARK                            x       y       z     vdW  Elec       q    Type
REMARK                         _______ _______ _______ _____ _____    ______ ____
ROOT
ATOM      2  O   UNL     1      12.091  13.941  23.819  0.00  0.00    -0.371 OA
ATOM     10  C   UNL     1      11.706  12.133  25.297  0.00  0.00    +0.111 C 
ATOM     11  C   UNL     1      13.034  12.769  25.673  0.00  0.00    +0.164 C 
ATOM     12  C   UNL     1      13.317  13.770  24.554  0.00  0.00    +0.165 C 
ATOM     13  C   UNL     1      11.042  13.245  24.501  0.00  0.00    +0.181 C 
ENDROOT
BRANCH  11   3
ATOM      3  O   UNL     1      12.844  13.478  26.899  0.00  0.00    -0.388 OA
ATOM     31  H   UNL     1      12.324  12.904  27.488  0.00  0.00    +0.210 HD
ENDBRANCH  11   3
BRANCH  10   7
ATOM      7  N   UNL     1      11.894  10.944  24.467  0.00  0.00    -0.305 NA
ATOM     30  H   UNL     1      12.656  11.110  23.809  0.00  0.00    +0.123 HD
BRANCH   7  15
ATOM     15  C   UNL     1      10.686  10.637  23.710  0.00  0.00    +0.116 C 
BRANCH  15  16
ATOM     16  C   UNL     1      11.004  10.008  22.380  0.00  0.00    -0.033 A 
ATOM     18  C   UNL     1      11.735  10.720  21.428  0.00  0.00    +0.007 A 
ATOM     19  C   UNL     1      10.568   8.713  22.098  0.00  0.00    +0.007 A 
ATOM     20  C   UNL     1      11.593   8.842  19.915  0.00  0.00    +0.088 A 
ATOM     21  C   UNL     1      12.029  10.137  20.196  0.00  0.00    +0.027 A 
ATOM     22  C   UNL     1      10.862   8.130  20.866  0.00  0.00    +0.027 A 
BRANCH  20   1
ATOM      1  S   UNL     1      11.958   8.114  18.371  0.00  0.00    -0.006 S 
ATOM      5  O   UNL     1      12.287   6.710  18.577  0.00  0.00    -0.170 OA
ATOM      6  O   UNL     1      10.899   8.479  17.441  0.00  0.00    -0.170 OA
ATOM     24  C   UNL     1      13.453   8.923  17.842  0.00  0.00    +0.200 C 
ENDBRANCH  20   1
ENDBRANCH  15  16
ENDBRANCH   7  15
ENDBRANCH  10   7
BRANCH  12  14
ATOM     14  C   UNL     1      14.395  13.311  23.585  0.00  0.00    +0.140 C 
BRANCH  14   8
ATOM      4  O   UNL     1      15.205  11.622  21.417  0.00  0.00    -0.253 OA
ATOM      8  N   UNL     1      14.558  11.886  23.623  0.00  0.00    -0.297 N 
ATOM      9  N   UNL     1      15.030   9.769  22.846  0.00  0.00    -0.269 N 
ATOM     17  C   UNL     1      14.960  11.124  22.513  0.00  0.00    +0.304 C 
ATOM     32  H   UNL     1      14.363  11.403  24.494  0.00  0.00    +0.150 HD
ATOM     33  H   UNL     1      14.794   9.521  23.804  0.00  0.00    +0.156 HD
BRANCH   9  23
ATOM     23  C   UNL     1      15.395   8.686  22.010  0.00  0.00    +0.035 A 
ATOM     25  C   UNL     1      14.458   7.702  21.698  0.00  0.00    +0.023 A 
ATOM     26  C   UNL     1      16.689   8.605  21.499  0.00  0.00    +0.023 A 
ATOM     27  C   UNL     1      14.816   6.636  20.874  0.00  0.00    +0.002 A 
ATOM     28  C   UNL     1      17.048   7.538  20.675  0.00  0.00    +0.002 A 
ATOM     29  C   UNL     1      16.111   6.553  20.363  0.00  0.00    +0.000 A 
ENDBRANCH   9  23
ENDBRANCH  14   8
ENDBRANCH  12  14
TORSDOF 8
ENDMDL
MODEL 3
REMARK VINA RESULT:      -6.3      6.387      8.769
REMARK  Name = 75536776
REMARK  9 active torsions:
REMARK  status: ('A' for Active; 'I' for Inactive)
REMARK    1  A    between atoms: S_1  and  C_20
REMARK    2  A    between atoms: S_1  and  C_24
REMARK    3  A    between atoms: O_3  and  C_11
REMARK    4  A    between atoms: N_7  and  C_10
REMARK    5  A    between atoms: N_7  and  C_15
REMARK    6  A    between atoms: N_8  and  C_14
REMARK    7  A    between atoms: N_9  and  C_23
REMARK    8  A    between atoms: C_12  and  C_14
REMARK    9  A    between atoms: C_15  and  C_16
REMARK                            x       y       z     vdW  Elec       q    Type
REMARK                         _______ _______ _______ _____ _____    ______ ____
ROOT
ATOM      2  O   UNL     1      21.047   7.337  20.842  0.00  0.00    -0.371 OA
ATOM     10  C   UNL     1      18.931   7.750  21.819  0.00  0.00    +0.111 C 
ATOM     11  C   UNL     1      19.457   6.442  22.382  0.00  0.00    +0.164 C 
ATOM     12  C   UNL     1      20.702   6.133  21.553  0.00  0.00    +0.165 C 
ATOM     13  C   UNL     1      20.203   8.400  21.299  0.00  0.00    +0.181 C 
ENDROOT
BRANCH  11   3
ATOM      3  O   UNL     1      19.844   6.676  23.738  0.00  0.00    -0.388 OA
ATOM     31  H   UNL     1      20.655   6.163  23.900  0.00  0.00    +0.210 HD
ENDBRANCH  11   3
BRANCH  10   7
ATOM      7  N   UNL     1      17.982   7.525  20.730  0.00  0.00    -0.305 NA
ATOM     30  H   UNL     1      17.477   8.391  20.539  0.00  0.00    +0.123 HD
BRANCH   7  15
ATOM     15  C   UNL     1      17.015   6.493  21.082  0.00  0.00    +0.116 C 
BRANCH  15  16
ATOM     16  C   UNL     1      15.599   6.995  20.985  0.00  0.00    -0.033 A 
ATOM     18  C   UNL     1      14.852   6.755  19.831  0.00  0.00    +0.007 A 
ATOM     19  C   UNL     1      15.033   7.699  22.047  0.00  0.00    +0.007 A 
ATOM     20  C   UNL     1      12.975   7.924  20.804  0.00  0.00    +0.088 A 
ATOM     21  C   UNL     1      13.540   7.219  19.741  0.00  0.00    +0.027 A 
ATOM     22  C   UNL     1      13.722   8.163  21.958  0.00  0.00    +0.027 A 
BRANCH  20   1
ATOM      1  S   UNL     1      11.334   8.509  20.689  0.00  0.00    -0.006 S 
ATOM      5  O   UNL     1      11.291   9.888  21.158  0.00  0.00    -0.170 OA
ATOM      6  O   UNL     1      10.833   8.181  19.362  0.00  0.00    -0.170 OA
ATOM     24  C   UNL     1      10.432   7.533  21.872  0.00  0.00    +0.200 C 
ENDBRANCH  20   1
ENDBRANCH  15  16
ENDBRANCH   7  15
ENDBRANCH  10   7
BRANCH  12  14
ATOM     14  C   UNL     1      20.497   5.020  20.536  0.00  0.00    +0.140 C 
BRANCH  14   8
ATOM      4  O   UNL     1      22.125   3.480  22.321  0.00  0.00    -0.253 OA
ATOM      8  N   UNL     1      21.734   4.367  20.220  0.00  0.00    -0.297 N 
ATOM      9  N   UNL     1      23.634   3.110  20.562  0.00  0.00    -0.269 N 
ATOM     17  C   UNL     1      22.479   3.627  21.153  0.00  0.00    +0.304 C 
ATOM     32  H   UNL     1      22.095   4.454  19.276  0.00  0.00    +0.150 HD
ATOM     33  H   UNL     1      23.780   3.326  19.579  0.00  0.00    +0.156 HD
BRANCH   9  23
ATOM     23  C   UNL     1      24.638   2.315  21.166  0.00  0.00    +0.035 A 
ATOM     25  C   UNL     1      24.383   0.975  21.455  0.00  0.00    +0.023 A 
ATOM     26  C   UNL     1      25.879   2.871  21.471  0.00  0.00    +0.023 A 
ATOM     27  C   UNL     1      25.371   0.190  22.050  0.00  0.00    +0.002 A 
ATOM     28  C   UNL     1      26.868   2.087  22.066  0.00  0.00    +0.002 A 
ATOM     29  C   UNL     1      26.613   0.746  22.355  0.00  0.00    +0.000 A 
ENDBRANCH   9  23
ENDBRANCH  14   8
ENDBRANCH  12  14
TORSDOF 8
ENDMDL
MODEL 4
REMARK VINA RESULT:      -6.2     27.468     29.102
REMARK  Name = 75536776
REMARK  9 active torsions:
REMARK  status: ('A' for Active; 'I' for Inactive)
REMARK    1  A    between atoms: S_1  and  C_20
REMARK    2  A    between atoms: S_1  and  C_24
REMARK    3  A    between atoms: O_3  and  C_11
REMARK    4  A    between atoms: N_7  and  C_10
REMARK    5  A    between atoms: N_7  and  C_15
REMARK    6  A    between atoms: N_8  and  C_14
REMARK    7  A    between atoms: N_9  and  C_23
REMARK    8  A    between atoms: C_12  and  C_14
REMARK    9  A    between atoms: C_15  and  C_16
REMARK                            x       y       z     vdW  Elec       q    Type
REMARK                         _______ _______ _______ _____ _____    ______ ____
ROOT
ATOM      2  O   UNL     1      -8.992 -11.087  16.673  0.00  0.00    -0.371 OA
ATOM     10  C   UNL     1      -7.467  -9.360  17.217  0.00  0.00    +0.111 C 
ATOM     11  C   UNL     1      -8.732  -8.714  16.678  0.00  0.00    +0.164 C 
ATOM     12  C   UNL     1      -9.569  -9.877  16.149  0.00  0.00    +0.165 C 
ATOM     13  C   UNL     1      -7.966 -10.741  17.610  0.00  0.00    +0.181 C 
ENDROOT
BRANCH  11   3
ATOM      3  O   UNL     1      -9.413  -8.109  17.779  0.00  0.00    -0.388 OA
ATOM     31  H   UNL     1      -9.867  -8.821  18.265  0.00  0.00    +0.210 HD
ENDBRANCH  11   3
BRANCH  10   7
ATOM      7  N   UNL     1      -6.432  -9.458  16.189  0.00  0.00    -0.305 NA
ATOM     30  H   UNL     1      -6.686 -10.189  15.524  0.00  0.00    +0.123 HD
BRANCH   7  15
ATOM     15  C   UNL     1      -5.141  -9.793  16.776  0.00  0.00    +0.116 C 
BRANCH  15  16
ATOM     16  C   UNL     1      -4.398 -10.811  15.952  0.00  0.00    -0.033 A 
ATOM     18  C   UNL     1      -3.035 -10.644  15.699  0.00  0.00    +0.007 A 
ATOM     19  C   UNL     1      -5.070 -11.920  15.440  0.00  0.00    +0.007 A 
ATOM     20  C   UNL     1      -3.021 -12.696  14.425  0.00  0.00    +0.088 A 
ATOM     21  C   UNL     1      -2.347 -11.587  14.936  0.00  0.00    +0.027 A 
ATOM     22  C   UNL     1      -4.382 -12.863  14.677  0.00  0.00    +0.027 A 
BRANCH  20   1
ATOM      1  S   UNL     1      -2.160 -13.874  13.466  0.00  0.00    -0.006 S 
ATOM      5  O   UNL     1      -2.764 -13.936  12.142  0.00  0.00    -0.170 OA
ATOM      6  O   UNL     1      -0.735 -13.605  13.598  0.00  0.00    -0.170 OA
ATOM     24  C   UNL     1      -2.500 -15.428  14.263  0.00  0.00    +0.200 C 
ENDBRANCH  20   1
ENDBRANCH  15  16
ENDBRANCH   7  15
ENDBRANCH  10   7
BRANCH  12  14
ATOM     14  C   UNL     1      -9.585  -9.973  14.631  0.00  0.00    +0.140 C 
BRANCH  14   8
ATOM      4  O   UNL     1      -7.655 -11.059  12.813  0.00  0.00    -0.253 OA
ATOM      8  N   UNL     1      -8.469  -9.282  14.052  0.00  0.00    -0.297 N 
ATOM      9  N   UNL     1      -6.582  -8.972  12.768  0.00  0.00    -0.269 N 
ATOM     17  C   UNL     1      -7.562  -9.885  13.165  0.00  0.00    +0.304 C 
ATOM     32  H   UNL     1      -8.323  -8.311  14.306  0.00  0.00    +0.150 HD
ATOM     33  H   UNL     1      -6.649  -8.033  13.153  0.00  0.00    +0.156 HD
BRANCH   9  23
ATOM     23  C   UNL     1      -5.497  -9.191  11.886  0.00  0.00    +0.035 A 
ATOM     25  C   UNL     1      -4.468 -10.058  12.251  0.00  0.00    +0.023 A 
ATOM     26  C   UNL     1      -5.458  -8.541  10.653  0.00  0.00    +0.023 A 
ATOM     27  C   UNL     1      -3.398 -10.275  11.383  0.00  0.00    +0.002 A 
ATOM     28  C   UNL     1      -4.388  -8.757   9.784  0.00  0.00    +0.002 A 
ATOM     29  C   UNL     1      -3.357  -9.624  10.150  0.00  0.00    +0.000 A 
ENDBRANCH   9  23
ENDBRANCH  14   8
ENDBRANCH  12  14
TORSDOF 8
ENDMDL
MODEL 5
REMARK VINA RESULT:      -6.2     27.135     29.802
REMARK  Name = 75536776
REMARK  9 active torsions:
REMARK  status: ('A' for Active; 'I' for Inactive)
REMARK    1  A    between atoms: S_1  and  C_20
REMARK    2  A    between atoms: S_1  and  C_24
REMARK    3  A    between atoms: O_3  and  C_11
REMARK    4  A    between atoms: N_7  and  C_10
REMARK    5  A    between atoms: N_7  and  C_15
REMARK    6  A    between atoms: N_8  and  C_14
REMARK    7  A    between atoms: N_9  and  C_23
REMARK    8  A    between atoms: C_12  and  C_14
REMARK    9  A    between atoms: C_15  and  C_16
REMARK                            x       y       z     vdW  Elec       q    Type
REMARK                         _______ _______ _______ _____ _____    ______ ____
ROOT
ATOM      2  O   UNL     1      -2.018 -10.193  13.748  0.00  0.00    -0.371 OA
ATOM     10  C   UNL     1      -2.115 -12.205  14.991  0.00  0.00    +0.111 C 
ATOM     11  C   UNL     1      -2.084 -12.569  13.517  0.00  0.00    +0.164 C 
ATOM     12  C   UNL     1      -2.245 -11.238  12.784  0.00  0.00    +0.165 C 
ATOM     13  C   UNL     1      -1.574 -10.785  14.973  0.00  0.00    +0.181 C 
ENDROOT
BRANCH  11   3
ATOM      3  O   UNL     1      -0.792 -13.108  13.230  0.00  0.00    -0.388 OA
ATOM     31  H   UNL     1      -0.677 -13.897  13.788  0.00  0.00    +0.210 HD
ENDBRANCH  11   3
BRANCH  10   7
ATOM      7  N   UNL     1      -3.476 -12.233  15.524  0.00  0.00    -0.305 NA
ATOM     30  H   UNL     1      -4.113 -11.820  14.842  0.00  0.00    +0.123 HD
BRANCH   7  15
ATOM     15  C   UNL     1      -3.569 -11.473  16.764  0.00  0.00    +0.116 C 
BRANCH  15  16
ATOM     16  C   UNL     1      -4.846 -11.765  17.506  0.00  0.00    -0.033 A 
ATOM     18  C   UNL     1      -5.092 -11.158  18.738  0.00  0.00    +0.007 A 
ATOM     19  C   UNL     1      -5.785 -12.642  16.962  0.00  0.00    +0.007 A 
ATOM     20  C   UNL     1      -7.213 -12.305  18.880  0.00  0.00    +0.088 A 
ATOM     21  C   UNL     1      -6.275 -11.428  19.425  0.00  0.00    +0.027 A 
ATOM     22  C   UNL     1      -6.968 -12.912  17.648  0.00  0.00    +0.027 A 
BRANCH  20   1
ATOM      1  S   UNL     1      -8.693 -12.646  19.742  0.00  0.00    -0.006 S 
ATOM      5  O   UNL     1      -8.452 -13.735  20.680  0.00  0.00    -0.170 OA
ATOM      6  O   UNL     1      -9.232 -11.383  20.224  0.00  0.00    -0.170 OA
ATOM     24  C   UNL     1      -9.797 -13.273  18.495  0.00  0.00    +0.200 C 
ENDBRANCH  20   1
ENDBRANCH  15  16
ENDBRANCH   7  15
ENDBRANCH  10   7
BRANCH  12  14
ATOM     14  C   UNL     1      -3.626 -11.040  12.179  0.00  0.00    +0.140 C 
BRANCH  14   8
ATOM      4  O   UNL     1      -5.933 -11.893  13.647  0.00  0.00    -0.253 OA
ATOM      8  N   UNL     1      -4.453 -10.228  13.024  0.00  0.00    -0.297 N 
ATOM      9  N   UNL     1      -6.182  -9.703  14.454  0.00  0.00    -0.269 N 
ATOM     17  C   UNL     1      -5.573 -10.720  13.714  0.00  0.00    +0.304 C 
ATOM     32  H   UNL     1      -4.223  -9.244  13.119  0.00  0.00    +0.150 HD
ATOM     33  H   UNL     1      -5.755  -8.782  14.401  0.00  0.00    +0.156 HD
BRANCH   9  23
ATOM     23  C   UNL     1      -7.329  -9.796  15.279  0.00  0.00    +0.035 A 
ATOM     25  C   UNL     1      -8.465 -10.459  14.818  0.00  0.00    +0.023 A 
ATOM     26  C   UNL     1      -7.322  -9.224  16.550  0.00  0.00    +0.023 A 
ATOM     27  C   UNL     1      -9.596 -10.551  15.629  0.00  0.00    +0.002 A 
ATOM     28  C   UNL     1      -8.452  -9.316  17.362  0.00  0.00    +0.002 A 
ATOM     29  C   UNL     1      -9.590  -9.980  16.901  0.00  0.00    +0.000 A 
ENDBRANCH   9  23
ENDBRANCH  14   8
ENDBRANCH  12  14
TORSDOF 8
ENDMDL
MODEL 6
REMARK VINA RESULT:      -6.1     27.293     29.502
REMARK  Name = 75536776
REMARK  9 active torsions:
REMARK  status: ('A' for Active; 'I' for Inactive)
REMARK    1  A    between atoms: S_1  and  C_20
REMARK    2  A    between atoms: S_1  and  C_24
REMARK    3  A    between atoms: O_3  and  C_11
REMARK    4  A    between atoms: N_7  and  C_10
REMARK    5  A    between atoms: N_7  and  C_15
REMARK    6  A    between atoms: N_8  and  C_14
REMARK    7  A    between atoms: N_9  and  C_23
REMARK    8  A    between atoms: C_12  and  C_14
REMARK    9  A    between atoms: C_15  and  C_16
REMARK                            x       y       z     vdW  Elec       q    Type
REMARK                         _______ _______ _______ _____ _____    ______ ____
ROOT
ATOM      2  O   UNL     1      -2.855 -12.715  12.817  0.00  0.00    -0.371 OA
ATOM     10  C   UNL     1      -4.113 -10.755  12.399  0.00  0.00    +0.111 C 
ATOM     11  C   UNL     1      -2.655 -10.352  12.534  0.00  0.00    +0.164 C 
ATOM     12  C   UNL     1      -1.945 -11.616  13.016  0.00  0.00    +0.165 C 
ATOM     13  C   UNL     1      -4.001 -12.241  12.102  0.00  0.00    +0.181 C 
ENDROOT
BRANCH  11   3
ATOM      3  O   UNL     1      -2.175 -10.015  11.231  0.00  0.00    -0.388 OA
ATOM     31  H   UNL     1      -2.800  -9.373  10.850  0.00  0.00    +0.210 HD
ENDBRANCH  11   3
BRANCH  10   7
ATOM      7  N   UNL     1      -4.851 -10.530  13.641  0.00  0.00    -0.305 NA
ATOM     30  H   UNL     1      -4.238 -10.714  14.435  0.00  0.00    +0.123 HD
BRANCH   7  15
ATOM     15  C   UNL     1      -6.006 -11.415  13.732  0.00  0.00    +0.116 C 
BRANCH  15  16
ATOM     16  C   UNL     1      -7.032 -10.899  14.706  0.00  0.00    -0.033 A 
ATOM     18  C   UNL     1      -8.319 -11.439  14.716  0.00  0.00    +0.007 A 
ATOM     19  C   UNL     1      -6.697  -9.882  15.599  0.00  0.00    +0.007 A 
ATOM     20  C   UNL     1      -8.932  -9.944  16.511  0.00  0.00    +0.088 A 
ATOM     21  C   UNL     1      -9.269 -10.961  15.618  0.00  0.00    +0.027 A 
ATOM     22  C   UNL     1      -7.646  -9.404  16.502  0.00  0.00    +0.027 A 
BRANCH  20   1
ATOM      1  S   UNL     1     -10.123  -9.343  17.638  0.00  0.00    -0.006 S 
ATOM      5  O   UNL     1      -9.980 -10.056  18.900  0.00  0.00    -0.170 OA
ATOM      6  O   UNL     1     -10.065  -7.889  17.618  0.00  0.00    -0.170 OA
ATOM     24  C   UNL     1     -11.683  -9.838  16.939  0.00  0.00    +0.200 C 
ENDBRANCH  20   1
ENDBRANCH  15  16
ENDBRANCH   7  15
ENDBRANCH  10   7
BRANCH  12  14
ATOM     14  C   UNL     1      -1.561 -11.575  14.487  0.00  0.00    +0.140 C 
BRANCH  14   8
ATOM      4  O   UNL     1      -3.386 -10.444  16.384  0.00  0.00    -0.253 OA
ATOM      8  N   UNL     1      -2.509 -12.287  15.295  0.00  0.00    -0.297 N 
ATOM      9  N   UNL     1      -4.181 -12.603  16.848  0.00  0.00    -0.269 N 
ATOM     17  C   UNL     1      -3.374 -11.659  16.206  0.00  0.00    +0.304 C 
ATOM     32  H   UNL     1      -2.549 -13.297  15.209  0.00  0.00    +0.150 HD
ATOM     33  H   UNL     1      -4.045 -13.575  16.584  0.00  0.00    +0.156 HD
BRANCH   9  23
ATOM     23  C   UNL     1      -5.176 -12.372  17.828  0.00  0.00    +0.035 A 
ATOM     25  C   UNL     1      -4.889 -11.575  18.936  0.00  0.00    +0.023 A 
ATOM     26  C   UNL     1      -6.441 -12.940  17.686  0.00  0.00    +0.023 A 
ATOM     27  C   UNL     1      -5.868 -11.347  19.903  0.00  0.00    +0.002 A 
ATOM     28  C   UNL     1      -7.421 -12.713  18.653  0.00  0.00    +0.002 A 
ATOM     29  C   UNL     1      -7.134 -11.916  19.761  0.00  0.00    +0.000 A 
ENDBRANCH   9  23
ENDBRANCH  14   8
ENDBRANCH  12  14
TORSDOF 8
ENDMDL
MODEL 7
REMARK VINA RESULT:      -5.9     27.025     29.472
REMARK  Name = 75536776
REMARK  9 active torsions:
REMARK  status: ('A' for Active; 'I' for Inactive)
REMARK    1  A    between atoms: S_1  and  C_20
REMARK    2  A    between atoms: S_1  and  C_24
REMARK    3  A    between atoms: O_3  and  C_11
REMARK    4  A    between atoms: N_7  and  C_10
REMARK    5  A    between atoms: N_7  and  C_15
REMARK    6  A    between atoms: N_8  and  C_14
REMARK    7  A    between atoms: N_9  and  C_23
REMARK    8  A    between atoms: C_12  and  C_14
REMARK    9  A    between atoms: C_15  and  C_16
REMARK                            x       y       z     vdW  Elec       q    Type
REMARK                         _______ _______ _______ _____ _____    ______ ____
ROOT
ATOM      2  O   UNL     1      -3.871 -12.286  15.598  0.00  0.00    -0.371 OA
ATOM     10  C   UNL     1      -2.110 -11.168  14.481  0.00  0.00    +0.111 C 
ATOM     11  C   UNL     1      -2.250 -10.552  15.863  0.00  0.00    +0.164 C 
ATOM     12  C   UNL     1      -3.530 -11.163  16.432  0.00  0.00    +0.165 C 
ATOM     13  C   UNL     1      -2.810 -12.504  14.662  0.00  0.00    +0.181 C 
ENDROOT
BRANCH  11   3
ATOM      3  O   UNL     1      -1.137 -10.985  16.647  0.00  0.00    -0.388 OA
ATOM     31  H   UNL     1      -1.005 -11.932  16.465  0.00  0.00    +0.210 HD
ENDBRANCH  11   3
BRANCH  10   7
ATOM      7  N   UNL     1      -2.783 -10.364  13.462  0.00  0.00    -0.305 NA
ATOM     30  H   UNL     1      -3.695 -10.773  13.259  0.00  0.00    +0.123 HD
BRANCH   7  15
ATOM     15  C   UNL     1      -2.007 -10.325  12.229  0.00  0.00    +0.116 C 
BRANCH  15  16
ATOM     16  C   UNL     1      -2.887 -10.420  11.010  0.00  0.00    -0.033 A 
ATOM     18  C   UNL     1      -3.369 -11.661  10.593  0.00  0.00    +0.007 A 
ATOM     19  C   UNL     1      -3.221  -9.268  10.299  0.00  0.00    +0.007 A 
ATOM     20  C   UNL     1      -4.518 -10.596   8.755  0.00  0.00    +0.088 A 
ATOM     21  C   UNL     1      -4.185 -11.749   9.465  0.00  0.00    +0.027 A 
ATOM     22  C   UNL     1      -4.036  -9.355   9.171  0.00  0.00    +0.027 A 
BRANCH  20   1
ATOM      1  S   UNL     1      -5.535 -10.707   7.340  0.00  0.00    -0.006 S 
ATOM      5  O   UNL     1      -6.147  -9.408   7.096  0.00  0.00    -0.170 OA
ATOM      6  O   UNL     1      -4.768 -11.354   6.285  0.00  0.00    -0.170 OA
ATOM     24  C   UNL     1      -6.844 -11.812   7.821  0.00  0.00    +0.200 C 
ENDBRANCH  20   1
ENDBRANCH  15  16
ENDBRANCH   7  15
ENDBRANCH  10   7
BRANCH  12  14
ATOM     14  C   UNL     1      -4.709 -10.201  16.445  0.00  0.00    +0.140 C 
BRANCH  14   8
ATOM      4  O   UNL     1      -7.081 -11.766  16.813  0.00  0.00    -0.253 OA
ATOM      8  N   UNL     1      -5.473 -10.330  17.653  0.00  0.00    -0.297 N 
ATOM      9  N   UNL     1      -7.160 -11.051  19.047  0.00  0.00    -0.269 N 
ATOM     17  C   UNL     1      -6.630 -11.119  17.756  0.00  0.00    +0.304 C 
ATOM     32  H   UNL     1      -5.166  -9.815  18.472  0.00  0.00    +0.150 HD
ATOM     33  H   UNL     1      -6.662 -10.466  19.714  0.00  0.00    +0.156 HD
BRANCH   9  23
ATOM     23  C   UNL     1      -8.313 -11.700  19.549  0.00  0.00    +0.035 A 
ATOM     25  C   UNL     1      -9.516 -11.004  19.648  0.00  0.00    +0.023 A 
ATOM     26  C   UNL     1      -8.245 -13.036  19.944  0.00  0.00    +0.023 A 
ATOM     27  C   UNL     1     -10.653 -11.643  20.142  0.00  0.00    +0.002 A 
ATOM     28  C   UNL     1      -9.382 -13.675  20.438  0.00  0.00    +0.002 A 
ATOM     29  C   UNL     1     -10.586 -12.978  20.537  0.00  0.00    +0.000 A 
ENDBRANCH   9  23
ENDBRANCH  14   8
ENDBRANCH  12  14
TORSDOF 8
ENDMDL
MODEL 8
REMARK VINA RESULT:      -5.9     14.555     19.108
REMARK  Name = 75536776
REMARK  9 active torsions:
REMARK  status: ('A' for Active; 'I' for Inactive)
REMARK    1  A    between atoms: S_1  and  C_20
REMARK    2  A    between atoms: S_1  and  C_24
REMARK    3  A    between atoms: O_3  and  C_11
REMARK    4  A    between atoms: N_7  and  C_10
REMARK    5  A    between atoms: N_7  and  C_15
REMARK    6  A    between atoms: N_8  and  C_14
REMARK    7  A    between atoms: N_9  and  C_23
REMARK    8  A    between atoms: C_12  and  C_14
REMARK    9  A    between atoms: C_15  and  C_16
REMARK                            x       y       z     vdW  Elec       q    Type
REMARK                         _______ _______ _______ _____ _____    ______ ____
ROOT
ATOM      2  O   UNL     1      13.589   5.182  -0.220  0.00  0.00    -0.371 OA
ATOM     10  C   UNL     1      15.505   5.600   1.106  0.00  0.00    +0.111 C 
ATOM     11  C   UNL     1      15.498   4.124   0.749  0.00  0.00    +0.164 C 
ATOM     12  C   UNL     1      14.139   3.889   0.092  0.00  0.00    +0.165 C 
ATOM     13  C   UNL     1      14.579   6.181   0.050  0.00  0.00    +0.181 C 
ENDROOT
BRANCH  11   3
ATOM      3  O   UNL     1      16.529   3.906  -0.217  0.00  0.00    -0.388 OA
ATOM     31  H   UNL     1      16.117   3.477  -0.987  0.00  0.00    +0.210 HD
ENDBRANCH  11   3
BRANCH  10   7
ATOM      7  N   UNL     1      14.970   5.833   2.447  0.00  0.00    -0.305 NA
ATOM     30  H   UNL     1      13.960   5.689   2.436  0.00  0.00    +0.123 HD
BRANCH   7  15
ATOM     15  C   UNL     1      15.240   7.195   2.890  0.00  0.00    +0.116 C 
BRANCH  15  16
ATOM     16  C   UNL     1      14.198   7.685   3.861  0.00  0.00    -0.033 A 
ATOM     18  C   UNL     1      14.231   7.264   5.191  0.00  0.00    +0.007 A 
ATOM     19  C   UNL     1      13.200   8.559   3.432  0.00  0.00    +0.007 A 
ATOM     20  C   UNL     1      12.269   8.592   5.660  0.00  0.00    +0.088 A 
ATOM     21  C   UNL     1      13.267   7.718   6.090  0.00  0.00    +0.027 A 
ATOM     22  C   UNL     1      12.235   9.013   4.330  0.00  0.00    +0.027 A 
BRANCH  20   1
ATOM      1  S   UNL     1      11.059   9.157   6.785  0.00  0.00    -0.006 S 
ATOM      5  O   UNL     1      10.020   9.861   6.046  0.00  0.00    -0.170 OA
ATOM      6  O   UNL     1      10.701   8.045   7.654  0.00  0.00    -0.170 OA
ATOM     24  C   UNL     1      11.905  10.372   7.772  0.00  0.00    +0.200 C 
ENDBRANCH  20   1
ENDBRANCH  15  16
ENDBRANCH   7  15
ENDBRANCH  10   7
BRANCH  12  14
ATOM     14  C   UNL     1      13.151   3.152   0.984  0.00  0.00    +0.140 C 
BRANCH  14   8
ATOM      4  O   UNL     1      10.533   4.058   1.711  0.00  0.00    -0.253 OA
ATOM      8  N   UNL     1      12.804   3.934   2.135  0.00  0.00    -0.297 N 
ATOM      9  N   UNL     1      11.458   5.090   3.605  0.00  0.00    -0.269 N 
ATOM     17  C   UNL     1      11.492   4.342   2.425  0.00  0.00    +0.304 C 
ATOM     32  H   UNL     1      13.547   4.216   2.766  0.00  0.00    +0.150 HD
ATOM     33  H   UNL     1      12.346   5.235   4.079  0.00  0.00    +0.156 HD
BRANCH   9  23
ATOM     23  C   UNL     1      10.332   5.676   4.231  0.00  0.00    +0.035 A 
ATOM     25  C   UNL     1       9.650   6.717   3.602  0.00  0.00    +0.023 A 
ATOM     26  C   UNL     1       9.904   5.212   5.474  0.00  0.00    +0.023 A 
ATOM     27  C   UNL     1       8.540   7.295   4.218  0.00  0.00    +0.002 A 
ATOM     28  C   UNL     1       8.794   5.790   6.090  0.00  0.00    +0.002 A 
ATOM     29  C   UNL     1       8.112   6.832   5.461  0.00  0.00    +0.000 A 
ENDBRANCH   9  23
ENDBRANCH  14   8
ENDBRANCH  12  14
TORSDOF 8
ENDMDL
MODEL 9
REMARK VINA RESULT:      -5.8     27.094     29.344
REMARK  Name = 75536776
REMARK  9 active torsions:
REMARK  status: ('A' for Active; 'I' for Inactive)
REMARK    1  A    between atoms: S_1  and  C_20
REMARK    2  A    between atoms: S_1  and  C_24
REMARK    3  A    between atoms: O_3  and  C_11
REMARK    4  A    between atoms: N_7  and  C_10
REMARK    5  A    between atoms: N_7  and  C_15
REMARK    6  A    between atoms: N_8  and  C_14
REMARK    7  A    between atoms: N_9  and  C_23
REMARK    8  A    between atoms: C_12  and  C_14
REMARK    9  A    between atoms: C_15  and  C_16
REMARK                            x       y       z     vdW  Elec       q    Type
REMARK                         _______ _______ _______ _____ _____    ______ ____
ROOT
ATOM      2  O   UNL     1      -8.060 -11.735  18.508  0.00  0.00    -0.371 OA
ATOM     10  C   UNL     1      -5.799 -12.323  18.889  0.00  0.00    +0.111 C 
ATOM     11  C   UNL     1      -5.991 -10.887  19.345  0.00  0.00    +0.164 C 
ATOM     12  C   UNL     1      -7.393 -10.511  18.869  0.00  0.00    +0.165 C 
ATOM     13  C   UNL     1      -7.228 -12.840  18.878  0.00  0.00    +0.181 C 
ENDROOT
BRANCH  11   3
ATOM      3  O   UNL     1      -5.963 -10.877  20.774  0.00  0.00    -0.388 OA
ATOM     31  H   UNL     1      -5.220 -11.440  21.053  0.00  0.00    +0.210 HD
ENDBRANCH  11   3
BRANCH  10   7
ATOM      7  N   UNL     1      -5.214 -12.391  17.551  0.00  0.00    -0.305 NA
ATOM     30  H   UNL     1      -4.797 -13.311  17.412  0.00  0.00    +0.123 HD
BRANCH   7  15
ATOM     15  C   UNL     1      -4.176 -11.381  17.382  0.00  0.00    +0.116 C 
BRANCH  15  16
ATOM     16  C   UNL     1      -3.912 -11.089  15.928  0.00  0.00    -0.033 A 
ATOM     18  C   UNL     1      -4.971 -11.043  15.021  0.00  0.00    +0.007 A 
ATOM     19  C   UNL     1      -2.608 -10.863  15.487  0.00  0.00    +0.007 A 
ATOM     20  C   UNL     1      -3.422 -10.547  13.236  0.00  0.00    +0.088 A 
ATOM     21  C   UNL     1      -4.726 -10.773  13.676  0.00  0.00    +0.027 A 
ATOM     22  C   UNL     1      -2.362 -10.592  14.142  0.00  0.00    +0.027 A 
BRANCH  20   1
ATOM      1  S   UNL     1      -3.115 -10.212  11.550  0.00  0.00    -0.006 S 
ATOM      5  O   UNL     1      -4.156  -9.325  11.049  0.00  0.00    -0.170 OA
ATOM      6  O   UNL     1      -1.716  -9.834  11.415  0.00  0.00    -0.170 OA
ATOM     24  C   UNL     1      -3.338 -11.781  10.740  0.00  0.00    +0.200 C 
ENDBRANCH  20   1
ENDBRANCH  15  16
ENDBRANCH   7  15
ENDBRANCH  10   7
BRANCH  12  14
ATOM     14  C   UNL     1      -7.399  -9.589  17.660  0.00  0.00    +0.140 C 
BRANCH  14   8
ATOM      4  O   UNL     1      -9.260  -9.001  15.563  0.00  0.00    -0.253 OA
ATOM      8  N   UNL     1      -8.491  -8.660  17.718  0.00  0.00    -0.297 N 
ATOM      9  N   UNL     1     -10.326  -7.472  16.990  0.00  0.00    -0.269 N 
ATOM     17  C   UNL     1      -9.364  -8.425  16.643  0.00  0.00    +0.304 C 
ATOM     32  H   UNL     1      -8.633  -8.139  18.577  0.00  0.00    +0.150 HD
ATOM     33  H   UNL     1     -10.272  -7.090  17.931  0.00  0.00    +0.156 HD
BRANCH   9  23
ATOM     23  C   UNL     1     -11.377  -6.967  16.188  0.00  0.00    +0.035 A 
ATOM     25  C   UNL     1     -11.131  -5.926  15.294  0.00  0.00    +0.023 A 
ATOM     26  C   UNL     1     -12.656  -7.511  16.291  0.00  0.00    +0.023 A 
ATOM     27  C   UNL     1     -12.166  -5.427  14.502  0.00  0.00    +0.002 A 
ATOM     28  C   UNL     1     -13.692  -7.013  15.500  0.00  0.00    +0.002 A 
ATOM     29  C   UNL     1     -13.446  -5.971  14.605  0.00  0.00    +0.000 A 
ENDBRANCH   9  23
ENDBRANCH  14   8
ENDBRANCH  12  14
TORSDOF 8
ENDMDL
MODEL 10
REMARK VINA RESULT:      -5.7     26.883     29.452
REMARK  Name = 75536776
REMARK  9 active torsions:
REMARK  status: ('A' for Active; 'I' for Inactive)
REMARK    1  A    between atoms: S_1  and  C_20
REMARK    2  A    between atoms: S_1  and  C_24
REMARK    3  A    between atoms: O_3  and  C_11
REMARK    4  A    between atoms: N_7  and  C_10
REMARK    5  A    between atoms: N_7  and  C_15
REMARK    6  A    between atoms: N_8  and  C_14
REMARK    7  A    between atoms: N_9  and  C_23
REMARK    8  A    between atoms: C_12  and  C_14
REMARK    9  A    between atoms: C_15  and  C_16
REMARK                            x       y       z     vdW  Elec       q    Type
REMARK                         _______ _______ _______ _____ _____    ______ ____
ROOT
ATOM      2  O   UNL     1      -3.473 -12.707  14.914  0.00  0.00    -0.371 OA
ATOM     10  C   UNL     1      -1.839 -11.023  14.602  0.00  0.00    +0.111 C 
ATOM     11  C   UNL     1      -2.559 -10.738  15.908  0.00  0.00    +0.164 C 
ATOM     12  C   UNL     1      -3.728 -11.721  15.931  0.00  0.00    +0.165 C 
ATOM     13  C   UNL     1      -2.161 -12.492  14.383  0.00  0.00    +0.181 C 
ENDROOT
BRANCH  11   3
ATOM      3  O   UNL     1      -1.663 -11.052  16.976  0.00  0.00    -0.388 OA
ATOM     31  H   UNL     1      -2.170 -11.545  17.644  0.00  0.00    +0.210 HD
ENDBRANCH  11   3
BRANCH  10   7
ATOM      7  N   UNL     1      -2.366 -10.210  13.507  0.00  0.00    -0.305 NA
ATOM     30  H   UNL     1      -3.369 -10.375  13.417  0.00  0.00    +0.123 HD
BRANCH   7  15
ATOM     15  C   UNL     1      -1.725 -10.553  12.244  0.00  0.00    +0.116 C 
BRANCH  15  16
ATOM     16  C   UNL     1      -2.713 -10.601  11.109  0.00  0.00    -0.033 A 
ATOM     18  C   UNL     1      -3.016  -9.440  10.397  0.00  0.00    +0.007 A 
ATOM     19  C   UNL     1      -3.327 -11.807  10.769  0.00  0.00    +0.007 A 
ATOM     20  C   UNL     1      -4.544 -10.691   9.007  0.00  0.00    +0.088 A 
ATOM     21  C   UNL     1      -3.931  -9.485   9.346  0.00  0.00    +0.027 A 
ATOM     22  C   UNL     1      -4.242 -11.852   9.718  0.00  0.00    +0.027 A 
BRANCH  20   1
ATOM      1  S   UNL     1      -5.694 -10.746   7.693  0.00  0.00    -0.006 S 
ATOM      5  O   UNL     1      -6.815 -11.591   8.083  0.00  0.00    -0.170 OA
ATOM      6  O   UNL     1      -5.936  -9.380   7.252  0.00  0.00    -0.170 OA
ATOM     24  C   UNL     1      -4.834 -11.598   6.388  0.00  0.00    +0.200 C 
ENDBRANCH  20   1
ENDBRANCH  15  16
ENDBRANCH   7  15
ENDBRANCH  10   7
BRANCH  12  14
ATOM     14  C   UNL     1      -5.074 -11.073  15.642  0.00  0.00    +0.140 C 
BRANCH  14   8
ATOM      4  O   UNL     1      -7.502 -10.259  14.358  0.00  0.00    -0.253 OA
ATOM      8  N   UNL     1      -5.293 -10.933  14.231  0.00  0.00    -0.297 N 
ATOM      9  N   UNL     1      -6.433 -10.483  12.280  0.00  0.00    -0.269 N 
ATOM     17  C   UNL     1      -6.517 -10.528  13.675  0.00  0.00    +0.304 C 
ATOM     32  H   UNL     1      -4.525 -11.149  13.603  0.00  0.00    +0.150 HD
ATOM     33  H   UNL     1      -5.539 -10.737  11.868  0.00  0.00    +0.156 HD
BRANCH   9  23
ATOM     23  C   UNL     1      -7.447 -10.123  11.360  0.00  0.00    +0.035 A 
ATOM     25  C   UNL     1      -7.337  -8.940  10.631  0.00  0.00    +0.023 A 
ATOM     26  C   UNL     1      -8.554 -10.952  11.184  0.00  0.00    +0.023 A 
ATOM     27  C   UNL     1      -8.335  -8.585   9.724  0.00  0.00    +0.002 A 
ATOM     28  C   UNL     1      -9.554 -10.597  10.277  0.00  0.00    +0.002 A 
ATOM     29  C   UNL     1      -9.444  -9.413   9.547  0.00  0.00    +0.000 A 
ENDBRANCH   9  23
ENDBRANCH  14   8
ENDBRANCH  12  14
TORSDOF 8
ENDMDL
