REMARK  Name = 38028655
REMARK  11 active torsions:
REMARK  status: ('A' for Active; 'I' for Inactive)
REMARK    1  A    between atoms: N_3  and  C_13
REMARK    2  A    between atoms: N_4  and  C_20
REMARK    3  A    between atoms: C_6  and  C_10
REMARK    4  A    between atoms: C_7  and  C_13
REMARK    5  A    between atoms: C_9  and  C_14
REMARK    6  A    between atoms: C_10  and  C_15
REMARK    7  A    between atoms: C_10  and  C_16
REMARK    8  A    between atoms: C_11  and  C_17
REMARK    9  A    between atoms: C_14  and  C_18
REMARK   10  A    between atoms: C_19  and  C_21
REMARK   11  A    between atoms: C_20  and  C_23
REMARK                            x       y       z     vdW  Elec       q    Type
REMARK                         _______ _______ _______ _____ _____    ______ ____
ROOT
ATOM      6  C   UNL     1       0.513   1.971   0.722  0.00  0.00    +0.000 C 
ATOM      7  C   UNL     1      -0.360   2.884  -0.174  0.00  0.00    +0.032 C 
ATOM      8  C   UNL     1       1.924   1.830   0.131  0.00  0.00    +0.012 C 
ATOM      9  C   UNL     1       1.904   1.241  -1.292  0.00  0.00    +0.023 C 
ATOM     11  C   UNL     1       0.868   1.918  -2.167  0.00  0.00    -0.073 C 
ATOM     12  C   UNL     1      -0.129   2.659  -1.650  0.00  0.00    -0.022 C 
ATOM     17  C   UNL     1       1.030   1.761  -3.653  0.00  0.00    +0.039 C 
ENDROOT
BRANCH   6  10
ATOM     10  C   UNL     1       0.603   2.500   2.157  0.00  0.00    -0.013 C 
ATOM     15  C   UNL     1       1.655   3.600   2.254  0.00  0.00    +0.007 C 
ATOM     16  C   UNL     1       0.917   1.364   3.125  0.00  0.00    +0.007 C 
ENDBRANCH   6  10
BRANCH   7  13
ATOM     13  C   UNL     1      -1.850   2.707   0.142  0.00  0.00    +0.112 C 
BRANCH  13   3
ATOM      2  O   UNL     1      -2.975   0.756   1.922  0.00  0.00    -0.269 OA
ATOM      3  N   UNL     1      -2.289   1.391  -0.202  0.00  0.00    -0.310 N 
ATOM     19  C   UNL     1      -2.826   0.503   0.729  0.00  0.00    +0.262 C 
ATOM     28  H   UNL     1      -2.244   1.103  -1.176  0.00  0.00    +0.149 HD
BRANCH  19  21
ATOM      5  N   UNL     1      -2.994  -1.047  -1.100  0.00  0.00    -0.250 NA
ATOM     21  C   UNL     1      -3.211  -0.838   0.218  0.00  0.00    +0.125 A 
ATOM     22  C   UNL     1      -3.753  -1.783   1.074  0.00  0.00    +0.033 A 
ATOM     24  C   UNL     1      -4.094  -3.022   0.544  0.00  0.00    +0.004 A 
ATOM     25  C   UNL     1      -3.339  -2.263  -1.580  0.00  0.00    +0.111 A 
ATOM     26  C   UNL     1      -3.886  -3.274  -0.808  0.00  0.00    +0.020 A 
ENDBRANCH  19  21
ENDBRANCH  13   3
ENDBRANCH   7  13
BRANCH   9  14
ATOM     14  C   UNL     1       1.687  -0.276  -1.259  0.00  0.00    +0.103 C 
BRANCH  14  18
ATOM      1  O   UNL     1       3.981  -0.463  -0.511  0.00  0.00    -0.276 OA
ATOM      4  N   UNL     1       2.700  -2.385  -0.768  0.00  0.00    -0.304 N 
ATOM     18  C   UNL     1       2.924  -1.017  -0.804  0.00  0.00    +0.214 C 
ATOM     29  H   UNL     1       1.782  -2.744  -1.015  0.00  0.00    +0.150 HD
BRANCH   4  20
ATOM     20  C   UNL     1       3.709  -3.340  -0.371  0.00  0.00    +0.193 C 
BRANCH  20  23
ATOM     23  C   UNL     1       3.664  -3.587   1.070  0.00  0.00    -0.087 C 
ATOM     27  C   UNL     1       3.630  -3.792   2.252  0.00  0.00    +0.005 C 
ENDBRANCH  20  23
ENDBRANCH   4  20
ENDBRANCH  14  18
ENDBRANCH   9  14
TORSDOF 8
