MODEL 1
REMARK VINA RESULT:      -7.6      0.000      0.000
REMARK  Name = 45360772
REMARK  7 active torsions:
REMARK  status: ('A' for Active; 'I' for Inactive)
REMARK    1  A    between atoms: O_3  and  C_23
REMARK    2  A    between atoms: N_6  and  C_10
REMARK    3  A    between atoms: N_6  and  C_17
REMARK    4  A    between atoms: C_9  and  C_14
REMARK    5  A    between atoms: C_14  and  C_16
REMARK    6  A    between atoms: C_16  and  C_18
REMARK    7  A    between atoms: C_17  and  C_24
REMARK                            x       y       z     vdW  Elec       q    Type
REMARK                         _______ _______ _______ _____ _____    ______ ____
ROOT
ATOM      1  O   UNL     1     -18.479   1.126  22.557  0.00  0.00    -0.274 OA
ATOM      4  N   UNL     1     -16.836   3.257  25.024  0.00  0.00    -0.286 NA
ATOM      5  N   UNL     1     -17.590   0.591  24.581  0.00  0.00    -0.313 N 
ATOM      8  C   UNL     1     -17.716   2.976  23.882  0.00  0.00    +0.145 C 
ATOM      9  C   UNL     1     -17.039   2.378  26.169  0.00  0.00    +0.075 C 
ATOM     10  C   UNL     1     -15.737   4.242  23.265  0.00  0.00    +0.070 C 
ATOM     11  C   UNL     1     -17.024   3.653  22.688  0.00  0.00    +0.048 C 
ATOM     12  C   UNL     1     -15.478   3.389  24.500  0.00  0.00    +0.104 C 
ATOM     13  C   UNL     1     -16.846   0.922  25.775  0.00  0.00    +0.123 C 
ATOM     15  C   UNL     1     -17.939   1.493  23.605  0.00  0.00    +0.230 C 
ATOM     30  H   UNL     1     -17.763  -0.392  24.394  0.00  0.00    +0.149 HD
ENDROOT
BRANCH  10   6
ATOM      6  N   UNL     1     -14.634   4.243  22.318  0.00  0.00    -0.308 NA
ATOM     31  H   UNL     1     -14.185   3.326  22.329  0.00  0.00    +0.123 HD
BRANCH   6  17
ATOM     17  C   UNL     1     -13.646   5.257  22.665  0.00  0.00    +0.116 C 
BRANCH  17  24
ATOM     24  C   UNL     1     -13.337   6.159  21.501  0.00  0.00    -0.034 A 
ATOM     25  C   UNL     1     -12.013   6.375  21.119  0.00  0.00    +0.005 A 
ATOM     26  C   UNL     1     -14.374   6.780  20.804  0.00  0.00    +0.005 A 
ATOM     27  C   UNL     1     -11.725   7.212  20.041  0.00  0.00    +0.000 A 
ATOM     28  C   UNL     1     -14.086   7.617  19.726  0.00  0.00    +0.000 A 
ATOM     29  C   UNL     1     -12.762   7.833  19.344  0.00  0.00    +0.000 A 
ENDBRANCH  17  24
ENDBRANCH   6  17
ENDBRANCH  10   6
BRANCH   9  14
ATOM     14  C   UNL     1     -16.157   2.744  27.363  0.00  0.00    +0.029 C 
BRANCH  14  16
ATOM     16  C   UNL     1     -16.872   2.557  28.693  0.00  0.00    +0.097 C 
BRANCH  16  18
ATOM      2  O   UNL     1     -16.421   0.315  29.314  0.00  0.00    -0.276 OA
ATOM      7  N   UNL     1     -15.321   1.967  30.524  0.00  0.00    -0.301 N 
ATOM     18  C   UNL     1     -16.188   1.508  29.532  0.00  0.00    +0.216 C 
ATOM     19  C   UNL     1     -14.585   1.007  31.350  0.00  0.00    +0.110 C 
ATOM     20  C   UNL     1     -15.025   3.378  30.807  0.00  0.00    +0.110 C 
ATOM     21  C   UNL     1     -14.809   1.281  32.834  0.00  0.00    +0.050 C 
ATOM     22  C   UNL     1     -15.256   3.694  32.281  0.00  0.00    +0.050 C 
ATOM     23  C   UNL     1     -14.482   2.733  33.183  0.00  0.00    +0.118 C 
BRANCH  23   3
ATOM      3  O   UNL     1     -14.832   2.994  34.538  0.00  0.00    -0.392 OA
ATOM     32  H   UNL     1     -14.355   2.353  35.092  0.00  0.00    +0.210 HD
ENDBRANCH  23   3
ENDBRANCH  16  18
ENDBRANCH  14  16
ENDBRANCH   9  14
TORSDOF 7
ENDMDL
MODEL 2
REMARK VINA RESULT:      -7.3     27.849     32.014
REMARK  Name = 45360772
REMARK  7 active torsions:
REMARK  status: ('A' for Active; 'I' for Inactive)
REMARK    1  A    between atoms: O_3  and  C_23
REMARK    2  A    between atoms: N_6  and  C_10
REMARK    3  A    between atoms: N_6  and  C_17
REMARK    4  A    between atoms: C_9  and  C_14
REMARK    5  A    between atoms: C_14  and  C_16
REMARK    6  A    between atoms: C_16  and  C_18
REMARK    7  A    between atoms: C_17  and  C_24
REMARK                            x       y       z     vdW  Elec       q    Type
REMARK                         _______ _______ _______ _____ _____    ______ ____
ROOT
ATOM      1  O   UNL     1      10.182   7.238  22.341  0.00  0.00    -0.274 OA
ATOM      4  N   UNL     1      12.406   9.401  20.416  0.00  0.00    -0.286 NA
ATOM      5  N   UNL     1      11.078   9.257  22.884  0.00  0.00    -0.313 N 
ATOM      8  C   UNL     1      11.409   8.337  20.595  0.00  0.00    +0.145 C 
ATOM      9  C   UNL     1      12.102  10.635  21.131  0.00  0.00    +0.075 C 
ATOM     10  C   UNL     1      13.562   7.501  19.842  0.00  0.00    +0.070 C 
ATOM     11  C   UNL     1      12.142   7.049  20.186  0.00  0.00    +0.048 C 
ATOM     12  C   UNL     1      13.721   8.799  20.625  0.00  0.00    +0.104 C 
ATOM     13  C   UNL     1      11.957  10.374  22.622  0.00  0.00    +0.123 C 
ATOM     15  C   UNL     1      10.859   8.217  22.012  0.00  0.00    +0.230 C 
ATOM     30  H   UNL     1      10.689   9.175  23.818  0.00  0.00    +0.149 HD
ENDROOT
BRANCH  10   6
ATOM      6  N   UNL     1      14.571   6.505  20.160  0.00  0.00    -0.308 NA
ATOM     31  H   UNL     1      14.907   6.661  21.111  0.00  0.00    +0.123 HD
BRANCH   6  17
ATOM     17  C   UNL     1      15.699   6.591  19.241  0.00  0.00    +0.116 C 
BRANCH  17  24
ATOM     24  C   UNL     1      17.007   6.743  19.973  0.00  0.00    -0.034 A 
ATOM     25  C   UNL     1      17.164   7.761  20.913  0.00  0.00    +0.005 A 
ATOM     26  C   UNL     1      18.060   5.867  19.710  0.00  0.00    +0.005 A 
ATOM     27  C   UNL     1      18.375   7.904  21.591  0.00  0.00    +0.000 A 
ATOM     28  C   UNL     1      19.270   6.009  20.388  0.00  0.00    +0.000 A 
ATOM     29  C   UNL     1      19.428   7.028  21.328  0.00  0.00    +0.000 A 
ENDBRANCH  17  24
ENDBRANCH   6  17
ENDBRANCH  10   6
BRANCH   9  14
ATOM     14  C   UNL     1      13.123  11.741  20.864  0.00  0.00    +0.029 C 
BRANCH  14  16
ATOM     16  C   UNL     1      12.915  12.411  19.514  0.00  0.00    +0.097 C 
BRANCH  16  18
ATOM      2  O   UNL     1      14.825  13.785  19.236  0.00  0.00    -0.276 OA
ATOM      7  N   UNL     1      14.705  11.892  17.894  0.00  0.00    -0.301 N 
ATOM     18  C   UNL     1      14.234  12.764  18.875  0.00  0.00    +0.216 C 
ATOM     19  C   UNL     1      16.002  12.143  17.259  0.00  0.00    +0.110 C 
ATOM     20  C   UNL     1      14.024  10.671  17.443  0.00  0.00    +0.110 C 
ATOM     21  C   UNL     1      15.867  12.172  15.739  0.00  0.00    +0.050 C 
ATOM     22  C   UNL     1      13.856  10.673  15.927  0.00  0.00    +0.050 C 
ATOM     23  C   UNL     1      15.191  10.903  15.220  0.00  0.00    +0.118 C 
BRANCH  23   3
ATOM      3  O   UNL     1      14.955  11.020  13.821  0.00  0.00    -0.392 OA
ATOM     32  H   UNL     1      15.210  10.177  13.410  0.00  0.00    +0.210 HD
ENDBRANCH  23   3
ENDBRANCH  16  18
ENDBRANCH  14  16
ENDBRANCH   9  14
TORSDOF 7
ENDMDL
MODEL 3
REMARK VINA RESULT:      -7.2     28.089     31.432
REMARK  Name = 45360772
REMARK  7 active torsions:
REMARK  status: ('A' for Active; 'I' for Inactive)
REMARK    1  A    between atoms: O_3  and  C_23
REMARK    2  A    between atoms: N_6  and  C_10
REMARK    3  A    between atoms: N_6  and  C_17
REMARK    4  A    between atoms: C_9  and  C_14
REMARK    5  A    between atoms: C_14  and  C_16
REMARK    6  A    between atoms: C_16  and  C_18
REMARK    7  A    between atoms: C_17  and  C_24
REMARK                            x       y       z     vdW  Elec       q    Type
REMARK                         _______ _______ _______ _____ _____    ______ ____
ROOT
ATOM      1  O   UNL     1      10.553   8.471  18.929  0.00  0.00    -0.274 OA
ATOM      4  N   UNL     1      13.105   7.533  21.364  0.00  0.00    -0.286 NA
ATOM      5  N   UNL     1      12.738   7.927  18.611  0.00  0.00    -0.313 N 
ATOM      8  C   UNL     1      11.731   7.710  20.877  0.00  0.00    +0.145 C 
ATOM      9  C   UNL     1      13.993   6.856  20.427  0.00  0.00    +0.075 C 
ATOM     10  C   UNL     1      12.297   9.227  22.687  0.00  0.00    +0.070 C 
ATOM     11  C   UNL     1      11.146   8.819  21.766  0.00  0.00    +0.048 C 
ATOM     12  C   UNL     1      13.539   8.819  21.906  0.00  0.00    +0.104 C 
ATOM     13  C   UNL     1      14.057   7.606  19.105  0.00  0.00    +0.123 C 
ATOM     15  C   UNL     1      11.627   8.089  19.403  0.00  0.00    +0.230 C 
ATOM     30  H   UNL     1      12.651   8.163  17.627  0.00  0.00    +0.149 HD
ENDROOT
BRANCH  10   6
ATOM      6  N   UNL     1      12.271  10.636  23.042  0.00  0.00    -0.308 NA
ATOM     31  H   UNL     1      12.590  10.743  24.006  0.00  0.00    +0.123 HD
BRANCH   6  17
ATOM     17  C   UNL     1      10.924  11.181  22.927  0.00  0.00    +0.116 C 
BRANCH  17  24
ATOM     24  C   UNL     1      10.769  12.461  23.705  0.00  0.00    -0.034 A 
ATOM     25  C   UNL     1      10.529  13.660  23.033  0.00  0.00    +0.005 A 
ATOM     26  C   UNL     1      10.867  12.449  25.096  0.00  0.00    +0.005 A 
ATOM     27  C   UNL     1      10.387  14.846  23.751  0.00  0.00    +0.000 A 
ATOM     28  C   UNL     1      10.725  13.636  25.815  0.00  0.00    +0.000 A 
ATOM     29  C   UNL     1      10.484  14.834  25.143  0.00  0.00    +0.000 A 
ENDBRANCH  17  24
ENDBRANCH   6  17
ENDBRANCH  10   6
BRANCH   9  14
ATOM     14  C   UNL     1      15.394   6.626  20.996  0.00  0.00    +0.029 C 
BRANCH  14  16
ATOM     16  C   UNL     1      16.481   7.250  20.134  0.00  0.00    +0.097 C 
BRANCH  16  18
ATOM      2  O   UNL     1      17.157   5.330  18.921  0.00  0.00    -0.276 OA
ATOM      7  N   UNL     1      18.774   6.338  20.251  0.00  0.00    -0.301 N 
ATOM     18  C   UNL     1      17.494   6.218  19.709  0.00  0.00    +0.216 C 
ATOM     19  C   UNL     1      19.825   5.399  19.851  0.00  0.00    +0.110 C 
ATOM     20  C   UNL     1      19.205   7.382  21.190  0.00  0.00    +0.110 C 
ATOM     21  C   UNL     1      20.465   4.745  21.072  0.00  0.00    +0.050 C 
ATOM     22  C   UNL     1      19.835   6.764  22.435  0.00  0.00    +0.050 C 
ATOM     23  C   UNL     1      20.959   5.797  22.066  0.00  0.00    +0.118 C 
BRANCH  23   3
ATOM      3  O   UNL     1      21.423   5.160  23.251  0.00  0.00    -0.392 OA
ATOM     32  H   UNL     1      20.882   4.363  23.386  0.00  0.00    +0.210 HD
ENDBRANCH  23   3
ENDBRANCH  16  18
ENDBRANCH  14  16
ENDBRANCH   9  14
TORSDOF 7
ENDMDL
MODEL 4
REMARK VINA RESULT:      -7.2     31.315     34.828
REMARK  Name = 45360772
REMARK  7 active torsions:
REMARK  status: ('A' for Active; 'I' for Inactive)
REMARK    1  A    between atoms: O_3  and  C_23
REMARK    2  A    between atoms: N_6  and  C_10
REMARK    3  A    between atoms: N_6  and  C_17
REMARK    4  A    between atoms: C_9  and  C_14
REMARK    5  A    between atoms: C_14  and  C_16
REMARK    6  A    between atoms: C_16  and  C_18
REMARK    7  A    between atoms: C_17  and  C_24
REMARK                            x       y       z     vdW  Elec       q    Type
REMARK                         _______ _______ _______ _____ _____    ______ ____
ROOT
ATOM      1  O   UNL     1      20.416   8.547  23.577  0.00  0.00    -0.274 OA
ATOM      4  N   UNL     1      18.431   6.480  21.316  0.00  0.00    -0.286 NA
ATOM      5  N   UNL     1      18.762   9.143  22.136  0.00  0.00    -0.313 N 
ATOM      8  C   UNL     1      19.283   6.735  22.485  0.00  0.00    +0.145 C 
ATOM      9  C   UNL     1      17.318   7.410  21.170  0.00  0.00    +0.075 C 
ATOM     10  C   UNL     1      20.384   5.396  20.783  0.00  0.00    +0.070 C 
ATOM     11  C   UNL     1      20.593   5.992  22.176  0.00  0.00    +0.048 C 
ATOM     12  C   UNL     1      19.317   6.293  20.169  0.00  0.00    +0.104 C 
ATOM     13  C   UNL     1      17.819   8.844  21.082  0.00  0.00    +0.123 C 
ATOM     15  C   UNL     1      19.552   8.210  22.762  0.00  0.00    +0.230 C 
ATOM     30  H   UNL     1      18.936  10.121  22.344  0.00  0.00    +0.149 HD
ENDROOT
BRANCH  10   6
ATOM      6  N   UNL     1      21.608   5.330  20.001  0.00  0.00    -0.308 NA
ATOM     31  H   UNL     1      21.627   4.449  19.485  0.00  0.00    +0.123 HD
BRANCH   6  17
ATOM     17  C   UNL     1      22.783   5.399  20.860  0.00  0.00    +0.116 C 
BRANCH  17  24
ATOM     24  C   UNL     1      23.464   4.062  20.986  0.00  0.00    -0.034 A 
ATOM     25  C   UNL     1      23.126   3.203  22.032  0.00  0.00    +0.005 A 
ATOM     26  C   UNL     1      24.432   3.682  20.056  0.00  0.00    +0.005 A 
ATOM     27  C   UNL     1      23.757   1.965  22.149  0.00  0.00    +0.000 A 
ATOM     28  C   UNL     1      25.063   2.443  20.174  0.00  0.00    +0.000 A 
ATOM     29  C   UNL     1      24.725   1.585  21.220  0.00  0.00    +0.000 A 
ENDBRANCH  17  24
ENDBRANCH   6  17
ENDBRANCH  10   6
BRANCH   9  14
ATOM     14  C   UNL     1      16.413   7.072  19.984  0.00  0.00    +0.029 C 
BRANCH  14  16
ATOM     16  C   UNL     1      15.461   8.206  19.637  0.00  0.00    +0.097 C 
BRANCH  16  18
ATOM      2  O   UNL     1      13.716   7.236  18.361  0.00  0.00    -0.276 OA
ATOM      7  N   UNL     1      13.210   7.785  20.562  0.00  0.00    -0.301 N 
ATOM     18  C   UNL     1      14.054   7.697  19.455  0.00  0.00    +0.216 C 
ATOM     19  C   UNL     1      11.841   7.268  20.476  0.00  0.00    +0.110 C 
ATOM     20  C   UNL     1      13.583   8.327  21.875  0.00  0.00    +0.110 C 
ATOM     21  C   UNL     1      10.830   8.334  20.888  0.00  0.00    +0.050 C 
ATOM     22  C   UNL     1      12.602   9.411  22.312  0.00  0.00    +0.050 C 
ATOM     23  C   UNL     1      11.161   8.906  22.266  0.00  0.00    +0.118 C 
BRANCH  23   3
ATOM      3  O   UNL     1      10.286   9.990  22.561  0.00  0.00    -0.392 OA
ATOM     32  H   UNL     1       9.411   9.766  22.201  0.00  0.00    +0.210 HD
ENDBRANCH  23   3
ENDBRANCH  16  18
ENDBRANCH  14  16
ENDBRANCH   9  14
TORSDOF 7
ENDMDL
MODEL 5
REMARK VINA RESULT:      -7.1     27.170     30.807
REMARK  Name = 45360772
REMARK  7 active torsions:
REMARK  status: ('A' for Active; 'I' for Inactive)
REMARK    1  A    between atoms: O_3  and  C_23
REMARK    2  A    between atoms: N_6  and  C_10
REMARK    3  A    between atoms: N_6  and  C_17
REMARK    4  A    between atoms: C_9  and  C_14
REMARK    5  A    between atoms: C_14  and  C_16
REMARK    6  A    between atoms: C_16  and  C_18
REMARK    7  A    between atoms: C_17  and  C_24
REMARK                            x       y       z     vdW  Elec       q    Type
REMARK                         _______ _______ _______ _____ _____    ______ ____
ROOT
ATOM      1  O   UNL     1       9.885   7.432  22.609  0.00  0.00    -0.274 OA
ATOM      4  N   UNL     1      12.357   9.755  21.261  0.00  0.00    -0.286 NA
ATOM      5  N   UNL     1      10.546   7.768  20.459  0.00  0.00    -0.313 N 
ATOM      8  C   UNL     1      11.726   8.942  22.309  0.00  0.00    +0.145 C 
ATOM      9  C   UNL     1      12.592   9.045  20.010  0.00  0.00    +0.075 C 
ATOM     10  C   UNL     1      11.478  11.329  22.683  0.00  0.00    +0.070 C 
ATOM     11  C   UNL     1      11.153   9.968  23.300  0.00  0.00    +0.048 C 
ATOM     12  C   UNL     1      11.628  11.020  21.199  0.00  0.00    +0.104 C 
ATOM     13  C   UNL     1      11.293   8.487  19.452  0.00  0.00    +0.123 C 
ATOM     15  C   UNL     1      10.631   8.006  21.809  0.00  0.00    +0.230 C 
ATOM     30  H   UNL     1       9.827   7.126  20.140  0.00  0.00    +0.149 HD
ENDROOT
BRANCH  10   6
ATOM      6  N   UNL     1      10.471  12.339  22.966  0.00  0.00    -0.308 NA
ATOM     31  H   UNL     1      10.670  13.173  22.411  0.00  0.00    +0.123 HD
BRANCH   6  17
ATOM     17  C   UNL     1      10.476  12.701  24.378  0.00  0.00    +0.116 C 
BRANCH  17  24
ATOM     24  C   UNL     1      11.731  13.439  24.763  0.00  0.00    -0.034 A 
ATOM     25  C   UNL     1      12.569  12.921  25.750  0.00  0.00    +0.005 A 
ATOM     26  C   UNL     1      12.055  14.641  24.133  0.00  0.00    +0.005 A 
ATOM     27  C   UNL     1      13.731  13.604  26.108  0.00  0.00    +0.000 A 
ATOM     28  C   UNL     1      13.217  15.324  24.491  0.00  0.00    +0.000 A 
ATOM     29  C   UNL     1      14.055  14.806  25.478  0.00  0.00    +0.000 A 
ENDBRANCH  17  24
ENDBRANCH   6  17
ENDBRANCH  10   6
BRANCH   9  14
ATOM     14  C   UNL     1      13.314   9.901  18.968  0.00  0.00    +0.029 C 
BRANCH  14  16
ATOM     16  C   UNL     1      14.667   9.323  18.578  0.00  0.00    +0.097 C 
BRANCH  16  18
ATOM      2  O   UNL     1      15.875  10.379  20.321  0.00  0.00    -0.276 OA
ATOM      7  N   UNL     1      16.139   8.079  20.123  0.00  0.00    -0.301 N 
ATOM     18  C   UNL     1      15.612   9.316  19.752  0.00  0.00    +0.216 C 
ATOM     19  C   UNL     1      17.029   7.984  21.283  0.00  0.00    +0.110 C 
ATOM     20  C   UNL     1      15.844   6.798  19.465  0.00  0.00    +0.110 C 
ATOM     21  C   UNL     1      18.339   7.296  20.909  0.00  0.00    +0.050 C 
ATOM     22  C   UNL     1      17.133   6.089  19.061  0.00  0.00    +0.050 C 
ATOM     23  C   UNL     1      18.083   5.941  20.249  0.00  0.00    +0.118 C 
BRANCH  23   3
ATOM      3  O   UNL     1      19.311   5.390  19.788  0.00  0.00    -0.392 OA
ATOM     32  H   UNL     1      20.013   5.696  20.388  0.00  0.00    +0.210 HD
ENDBRANCH  23   3
ENDBRANCH  16  18
ENDBRANCH  14  16
ENDBRANCH   9  14
TORSDOF 7
ENDMDL
MODEL 6
REMARK VINA RESULT:      -7.0     31.519     35.233
REMARK  Name = 45360772
REMARK  7 active torsions:
REMARK  status: ('A' for Active; 'I' for Inactive)
REMARK    1  A    between atoms: O_3  and  C_23
REMARK    2  A    between atoms: N_6  and  C_10
REMARK    3  A    between atoms: N_6  and  C_17
REMARK    4  A    between atoms: C_9  and  C_14
REMARK    5  A    between atoms: C_14  and  C_16
REMARK    6  A    between atoms: C_16  and  C_18
REMARK    7  A    between atoms: C_17  and  C_24
REMARK                            x       y       z     vdW  Elec       q    Type
REMARK                         _______ _______ _______ _____ _____    ______ ____
ROOT
ATOM      1  O   UNL     1      20.831   8.427  23.667  0.00  0.00    -0.274 OA
ATOM      4  N   UNL     1      18.678   6.505  21.432  0.00  0.00    -0.286 NA
ATOM      5  N   UNL     1      19.230   9.141  22.218  0.00  0.00    -0.313 N 
ATOM      8  C   UNL     1      19.550   6.702  22.598  0.00  0.00    +0.145 C 
ATOM      9  C   UNL     1      17.646   7.523  21.274  0.00  0.00    +0.075 C 
ATOM     10  C   UNL     1      20.533   5.255  20.913  0.00  0.00    +0.070 C 
ATOM     11  C   UNL     1      20.793   5.849  22.298  0.00  0.00    +0.048 C 
ATOM     12  C   UNL     1      19.544   6.230  20.287  0.00  0.00    +0.104 C 
ATOM     13  C   UNL     1      18.264   8.908  21.168  0.00  0.00    +0.123 C 
ATOM     15  C   UNL     1      19.941   8.153  22.856  0.00  0.00    +0.230 C 
ATOM     30  H   UNL     1      19.486  10.104  22.414  0.00  0.00    +0.149 HD
ENDROOT
BRANCH  10   6
ATOM      6  N   UNL     1      21.746   5.078  20.131  0.00  0.00    -0.308 NA
ATOM     31  H   UNL     1      21.713   4.170  19.666  0.00  0.00    +0.123 HD
BRANCH   6  17
ATOM     17  C   UNL     1      22.929   5.129  20.982  0.00  0.00    +0.116 C 
BRANCH  17  24
ATOM     24  C   UNL     1      23.406   3.752  21.361  0.00  0.00    -0.034 A 
ATOM     25  C   UNL     1      23.193   3.271  22.653  0.00  0.00    +0.005 A 
ATOM     26  C   UNL     1      24.061   2.957  20.420  0.00  0.00    +0.005 A 
ATOM     27  C   UNL     1      23.635   1.996  23.005  0.00  0.00    +0.000 A 
ATOM     28  C   UNL     1      24.504   1.682  20.772  0.00  0.00    +0.000 A 
ATOM     29  C   UNL     1      24.290   1.202  22.064  0.00  0.00    +0.000 A 
ENDBRANCH  17  24
ENDBRANCH   6  17
ENDBRANCH  10   6
BRANCH   9  14
ATOM     14  C   UNL     1      16.715   7.245  20.093  0.00  0.00    +0.029 C 
BRANCH  14  16
ATOM     16  C   UNL     1      15.466   6.479  20.505  0.00  0.00    +0.097 C 
BRANCH  16  18
ATOM      2  O   UNL     1      13.983   7.613  21.964  0.00  0.00    -0.276 OA
ATOM      7  N   UNL     1      13.715   8.020  19.691  0.00  0.00    -0.301 N 
ATOM     18  C   UNL     1      14.324   7.420  20.794  0.00  0.00    +0.216 C 
ATOM     19  C   UNL     1      12.628   8.981  19.894  0.00  0.00    +0.110 C 
ATOM     20  C   UNL     1      14.100   7.810  18.289  0.00  0.00    +0.110 C 
ATOM     21  C   UNL     1      11.395   8.586  19.087  0.00  0.00    +0.050 C 
ATOM     22  C   UNL     1      12.892   7.395  17.454  0.00  0.00    +0.050 C 
ATOM     23  C   UNL     1      11.740   8.387  17.611  0.00  0.00    +0.118 C 
BRANCH  23   3
ATOM      3  O   UNL     1      10.605   7.886  16.914  0.00  0.00    -0.392 OA
ATOM     32  H   UNL     1      10.124   8.649  16.552  0.00  0.00    +0.210 HD
ENDBRANCH  23   3
ENDBRANCH  16  18
ENDBRANCH  14  16
ENDBRANCH   9  14
TORSDOF 7
ENDMDL
MODEL 7
REMARK VINA RESULT:      -7.0      1.845      2.420
REMARK  Name = 45360772
REMARK  7 active torsions:
REMARK  status: ('A' for Active; 'I' for Inactive)
REMARK    1  A    between atoms: O_3  and  C_23
REMARK    2  A    between atoms: N_6  and  C_10
REMARK    3  A    between atoms: N_6  and  C_17
REMARK    4  A    between atoms: C_9  and  C_14
REMARK    5  A    between atoms: C_14  and  C_16
REMARK    6  A    between atoms: C_16  and  C_18
REMARK    7  A    between atoms: C_17  and  C_24
REMARK                            x       y       z     vdW  Elec       q    Type
REMARK                         _______ _______ _______ _____ _____    ______ ____
ROOT
ATOM      1  O   UNL     1     -17.242   1.657  22.201  0.00  0.00    -0.274 OA
ATOM      4  N   UNL     1     -17.235   4.553  24.424  0.00  0.00    -0.286 NA
ATOM      5  N   UNL     1     -16.847   1.774  24.437  0.00  0.00    -0.313 N 
ATOM      8  C   UNL     1     -17.591   3.807  23.209  0.00  0.00    +0.145 C 
ATOM      9  C   UNL     1     -17.440   3.815  25.664  0.00  0.00    +0.075 C 
ATOM     10  C   UNL     1     -16.092   5.668  22.773  0.00  0.00    +0.070 C 
ATOM     11  C   UNL     1     -16.866   4.549  22.075  0.00  0.00    +0.048 C 
ATOM     12  C   UNL     1     -15.919   5.148  24.194  0.00  0.00    +0.104 C 
ATOM     13  C   UNL     1     -16.645   2.519  25.660  0.00  0.00    +0.123 C 
ATOM     15  C   UNL     1     -17.192   2.336  23.232  0.00  0.00    +0.230 C 
ATOM     30  H   UNL     1     -16.604   0.788  24.444  0.00  0.00    +0.149 HD
ENDROOT
BRANCH  10   6
ATOM      6  N   UNL     1     -14.835   5.988  22.116  0.00  0.00    -0.308 NA
ATOM     31  H   UNL     1     -14.164   6.306  22.817  0.00  0.00    +0.123 HD
BRANCH   6  17
ATOM     17  C   UNL     1     -15.016   7.042  21.125  0.00  0.00    +0.116 C 
BRANCH  17  24
ATOM     24  C   UNL     1     -13.743   7.331  20.376  0.00  0.00    -0.034 A 
ATOM     25  C   UNL     1     -12.509   7.108  20.987  0.00  0.00    +0.005 A 
ATOM     26  C   UNL     1     -13.797   7.823  19.072  0.00  0.00    +0.005 A 
ATOM     27  C   UNL     1     -11.329   7.376  20.294  0.00  0.00    +0.000 A 
ATOM     28  C   UNL     1     -12.616   8.091  18.379  0.00  0.00    +0.000 A 
ATOM     29  C   UNL     1     -11.383   7.868  18.990  0.00  0.00    +0.000 A 
ENDBRANCH  17  24
ENDBRANCH   6  17
ENDBRANCH  10   6
BRANCH   9  14
ATOM     14  C   UNL     1     -17.127   4.647  26.909  0.00  0.00    +0.029 C 
BRANCH  14  16
ATOM     16  C   UNL     1     -17.516   3.936  28.196  0.00  0.00    +0.097 C 
BRANCH  16  18
ATOM      2  O   UNL     1     -16.088   5.259  29.547  0.00  0.00    -0.276 OA
ATOM      7  N   UNL     1     -15.962   2.958  29.848  0.00  0.00    -0.301 N 
ATOM     18  C   UNL     1     -16.460   4.118  29.256  0.00  0.00    +0.216 C 
ATOM     19  C   UNL     1     -14.966   3.056  30.919  0.00  0.00    +0.110 C 
ATOM     20  C   UNL     1     -16.384   1.589  29.523  0.00  0.00    +0.110 C 
ATOM     21  C   UNL     1     -13.736   2.212  30.598  0.00  0.00    +0.050 C 
ATOM     22  C   UNL     1     -15.179   0.718  29.179  0.00  0.00    +0.050 C 
ATOM     23  C   UNL     1     -14.124   0.767  30.284  0.00  0.00    +0.118 C 
BRANCH  23   3
ATOM      3  O   UNL     1     -12.977   0.042  29.854  0.00  0.00    -0.392 OA
ATOM     32  H   UNL     1     -13.084  -0.877  30.151  0.00  0.00    +0.210 HD
ENDBRANCH  23   3
ENDBRANCH  16  18
ENDBRANCH  14  16
ENDBRANCH   9  14
TORSDOF 7
ENDMDL
MODEL 8
REMARK VINA RESULT:      -7.0     19.119     21.959
REMARK  Name = 45360772
REMARK  7 active torsions:
REMARK  status: ('A' for Active; 'I' for Inactive)
REMARK    1  A    between atoms: O_3  and  C_23
REMARK    2  A    between atoms: N_6  and  C_10
REMARK    3  A    between atoms: N_6  and  C_17
REMARK    4  A    between atoms: C_9  and  C_14
REMARK    5  A    between atoms: C_14  and  C_16
REMARK    6  A    between atoms: C_16  and  C_18
REMARK    7  A    between atoms: C_17  and  C_24
REMARK                            x       y       z     vdW  Elec       q    Type
REMARK                         _______ _______ _______ _____ _____    ______ ____
ROOT
ATOM      1  O   UNL     1      -5.167 -13.689  17.626  0.00  0.00    -0.274 OA
ATOM      4  N   UNL     1      -3.722 -10.715  16.080  0.00  0.00    -0.286 NA
ATOM      5  N   UNL     1      -4.020 -13.475  15.674  0.00  0.00    -0.313 N 
ATOM      8  C   UNL     1      -4.240 -11.518  17.196  0.00  0.00    +0.145 C 
ATOM      9  C   UNL     1      -2.766 -11.414  15.230  0.00  0.00    +0.075 C 
ATOM     10  C   UNL     1      -5.657  -9.621  16.656  0.00  0.00    +0.070 C 
ATOM     11  C   UNL     1      -5.523 -10.792  17.630  0.00  0.00    +0.048 C 
ATOM     12  C   UNL     1      -4.870 -10.081  15.435  0.00  0.00    +0.104 C 
ATOM     13  C   UNL     1      -3.380 -12.679  14.652  0.00  0.00    +0.123 C 
ATOM     15  C   UNL     1      -4.535 -12.972  16.844  0.00  0.00    +0.230 C 
ATOM     30  H   UNL     1      -4.206 -14.450  15.461  0.00  0.00    +0.149 HD
ENDROOT
BRANCH  10   6
ATOM      6  N   UNL     1      -7.039  -9.279  16.361  0.00  0.00    -0.308 NA
ATOM     31  H   UNL     1      -7.101  -8.277  16.172  0.00  0.00    +0.123 HD
BRANCH   6  17
ATOM     17  C   UNL     1      -7.910  -9.602  17.484  0.00  0.00    +0.116 C 
BRANCH  17  24
ATOM     24  C   UNL     1      -9.294  -9.038  17.299  0.00  0.00    -0.034 A 
ATOM     25  C   UNL     1      -9.503  -7.980  16.416  0.00  0.00    +0.005 A 
ATOM     26  C   UNL     1     -10.366  -9.575  18.013  0.00  0.00    +0.005 A 
ATOM     27  C   UNL     1     -10.785  -7.457  16.245  0.00  0.00    +0.000 A 
ATOM     28  C   UNL     1     -11.647  -9.051  17.842  0.00  0.00    +0.000 A 
ATOM     29  C   UNL     1     -11.857  -7.993  16.958  0.00  0.00    +0.000 A 
ENDBRANCH  17  24
ENDBRANCH   6  17
ENDBRANCH  10   6
BRANCH   9  14
ATOM     14  C   UNL     1      -2.195 -10.526  14.123  0.00  0.00    +0.029 C 
BRANCH  14  16
ATOM     16  C   UNL     1      -2.123 -11.241  12.783  0.00  0.00    +0.097 C 
BRANCH  16  18
ATOM      2  O   UNL     1      -1.277  -9.499  11.418  0.00  0.00    -0.276 OA
ATOM      7  N   UNL     1      -3.401 -10.285  10.897  0.00  0.00    -0.301 N 
ATOM     18  C   UNL     1      -2.221 -10.262  11.640  0.00  0.00    +0.216 C 
ATOM     19  C   UNL     1      -3.552  -9.395   9.743  0.00  0.00    +0.110 C 
ATOM     20  C   UNL     1      -4.540 -11.182  11.138  0.00  0.00    +0.110 C 
ATOM     21  C   UNL     1      -4.829  -8.568   9.858  0.00  0.00    +0.050 C 
ATOM     22  C   UNL     1      -5.834 -10.386  11.276  0.00  0.00    +0.050 C 
ATOM     23  C   UNL     1      -6.049  -9.462  10.077  0.00  0.00    +0.118 C 
BRANCH  23   3
ATOM      3  O   UNL     1      -7.199  -8.659  10.319  0.00  0.00    -0.392 OA
ATOM     32  H   UNL     1      -7.327  -8.612  11.282  0.00  0.00    +0.210 HD
ENDBRANCH  23   3
ENDBRANCH  16  18
ENDBRANCH  14  16
ENDBRANCH   9  14
TORSDOF 7
ENDMDL
MODEL 9
REMARK VINA RESULT:      -6.8     18.280     20.919
REMARK  Name = 45360772
REMARK  7 active torsions:
REMARK  status: ('A' for Active; 'I' for Inactive)
REMARK    1  A    between atoms: O_3  and  C_23
REMARK    2  A    between atoms: N_6  and  C_10
REMARK    3  A    between atoms: N_6  and  C_17
REMARK    4  A    between atoms: C_9  and  C_14
REMARK    5  A    between atoms: C_14  and  C_16
REMARK    6  A    between atoms: C_16  and  C_18
REMARK    7  A    between atoms: C_17  and  C_24
REMARK                            x       y       z     vdW  Elec       q    Type
REMARK                         _______ _______ _______ _____ _____    ______ ____
ROOT
ATOM      1  O   UNL     1      -7.580 -12.994  19.244  0.00  0.00    -0.274 OA
ATOM      4  N   UNL     1      -5.550 -10.367  17.726  0.00  0.00    -0.286 NA
ATOM      5  N   UNL     1      -5.842 -13.157  17.786  0.00  0.00    -0.313 N 
ATOM      8  C   UNL     1      -6.449 -10.938  18.738  0.00  0.00    +0.145 C 
ATOM      9  C   UNL     1      -4.405 -11.207  17.397  0.00  0.00    +0.075 C 
ATOM     10  C   UNL     1      -7.506  -9.210  17.399  0.00  0.00    +0.070 C 
ATOM     11  C   UNL     1      -7.764 -10.160  18.569  0.00  0.00    +0.048 C 
ATOM     12  C   UNL     1      -6.386  -9.892  16.626  0.00  0.00    +0.104 C 
ATOM     13  C   UNL     1      -4.860 -12.571  16.903  0.00  0.00    +0.123 C 
ATOM     15  C   UNL     1      -6.688 -12.438  18.596  0.00  0.00    +0.230 C 
ATOM     30  H   UNL     1      -5.998 -14.158  17.716  0.00  0.00    +0.149 HD
ENDROOT
BRANCH  10   6
ATOM      6  N   UNL     1      -8.693  -8.955  16.599  0.00  0.00    -0.308 NA
ATOM     31  H   UNL     1      -8.488  -8.216  15.925  0.00  0.00    +0.123 HD
BRANCH   6  17
ATOM     17  C   UNL     1      -9.809  -8.532  17.437  0.00  0.00    +0.116 C 
BRANCH  17  24
ATOM     24  C   UNL     1     -10.842  -7.770  16.650  0.00  0.00    -0.034 A 
ATOM     25  C   UNL     1     -12.167  -8.206  16.634  0.00  0.00    +0.005 A 
ATOM     26  C   UNL     1     -10.475  -6.628  15.938  0.00  0.00    +0.005 A 
ATOM     27  C   UNL     1     -13.125  -7.501  15.905  0.00  0.00    +0.000 A 
ATOM     28  C   UNL     1     -11.432  -5.924  15.209  0.00  0.00    +0.000 A 
ATOM     29  C   UNL     1     -12.757  -6.360  15.193  0.00  0.00    +0.000 A 
ENDBRANCH  17  24
ENDBRANCH   6  17
ENDBRANCH  10   6
BRANCH   9  14
ATOM     14  C   UNL     1      -3.455 -10.549  16.395  0.00  0.00    +0.029 C 
BRANCH  14  16
ATOM     16  C   UNL     1      -3.305 -11.360  15.117  0.00  0.00    +0.097 C 
BRANCH  16  18
ATOM      2  O   UNL     1      -1.465  -9.969  14.575  0.00  0.00    -0.276 OA
ATOM      7  N   UNL     1      -2.643 -10.874  12.787  0.00  0.00    -0.301 N 
ATOM     18  C   UNL     1      -2.385 -10.670  14.143  0.00  0.00    +0.216 C 
ATOM     19  C   UNL     1      -1.764 -10.274  11.780  0.00  0.00    +0.110 C 
ATOM     20  C   UNL     1      -3.729 -11.701  12.244  0.00  0.00    +0.110 C 
ATOM     21  C   UNL     1      -2.568  -9.454  10.775  0.00  0.00    +0.050 C 
ATOM     22  C   UNL     1      -4.567 -10.907  11.246  0.00  0.00    +0.050 C 
ATOM     23  C   UNL     1      -3.693 -10.285  10.158  0.00  0.00    +0.118 C 
BRANCH  23   3
ATOM      3  O   UNL     1      -4.507  -9.458   9.333  0.00  0.00    -0.392 OA
ATOM     32  H   UNL     1      -4.096  -8.578   9.306  0.00  0.00    +0.210 HD
ENDBRANCH  23   3
ENDBRANCH  16  18
ENDBRANCH  14  16
ENDBRANCH   9  14
TORSDOF 7
ENDMDL
MODEL 10
REMARK VINA RESULT:      -6.7     29.517     33.600
REMARK  Name = 45360772
REMARK  7 active torsions:
REMARK  status: ('A' for Active; 'I' for Inactive)
REMARK    1  A    between atoms: O_3  and  C_23
REMARK    2  A    between atoms: N_6  and  C_10
REMARK    3  A    between atoms: N_6  and  C_17
REMARK    4  A    between atoms: C_9  and  C_14
REMARK    5  A    between atoms: C_14  and  C_16
REMARK    6  A    between atoms: C_16  and  C_18
REMARK    7  A    between atoms: C_17  and  C_24
REMARK                            x       y       z     vdW  Elec       q    Type
REMARK                         _______ _______ _______ _____ _____    ______ ____
ROOT
ATOM      1  O   UNL     1      12.263  10.314  21.517  0.00  0.00    -0.274 OA
ATOM      4  N   UNL     1      12.975   8.852  18.249  0.00  0.00    -0.286 NA
ATOM      5  N   UNL     1      13.162  11.270  19.660  0.00  0.00    -0.313 N 
ATOM      8  C   UNL     1      12.301   8.937  19.552  0.00  0.00    +0.145 C 
ATOM      9  C   UNL     1      13.006  10.106  17.506  0.00  0.00    +0.075 C 
ATOM     10  C   UNL     1      13.787   7.024  19.376  0.00  0.00    +0.070 C 
ATOM     11  C   UNL     1      12.799   7.705  20.324  0.00  0.00    +0.048 C 
ATOM     12  C   UNL     1      14.241   8.155  18.463  0.00  0.00    +0.104 C 
ATOM     13  C   UNL     1      13.688  11.198  18.316  0.00  0.00    +0.123 C 
ATOM     15  C   UNL     1      12.592  10.215  20.331  0.00  0.00    +0.230 C 
ATOM     30  H   UNL     1      13.332  12.123  20.185  0.00  0.00    +0.149 HD
ENDROOT
BRANCH  10   6
ATOM      6  N   UNL     1      14.881   6.363  20.070  0.00  0.00    -0.308 NA
ATOM     31  H   UNL     1      15.064   6.854  20.946  0.00  0.00    +0.123 HD
BRANCH   6  17
ATOM     17  C   UNL     1      16.094   6.371  19.262  0.00  0.00    +0.116 C 
BRANCH  17  24
ATOM     24  C   UNL     1      17.307   6.737  20.076  0.00  0.00    -0.034 A 
ATOM     25  C   UNL     1      17.279   7.862  20.901  0.00  0.00    +0.005 A 
ATOM     26  C   UNL     1      18.458   5.953  20.005  0.00  0.00    +0.005 A 
ATOM     27  C   UNL     1      18.402   8.202  21.654  0.00  0.00    +0.000 A 
ATOM     28  C   UNL     1      19.581   6.293  20.758  0.00  0.00    +0.000 A 
ATOM     29  C   UNL     1      19.553   7.417  21.583  0.00  0.00    +0.000 A 
ENDBRANCH  17  24
ENDBRANCH   6  17
ENDBRANCH  10   6
BRANCH   9  14
ATOM     14  C   UNL     1      13.650   9.963  16.127  0.00  0.00    +0.029 C 
BRANCH  14  16
ATOM     16  C   UNL     1      14.025  11.306  15.517  0.00  0.00    +0.097 C 
BRANCH  16  18
ATOM      2  O   UNL     1      15.327  10.359  13.779  0.00  0.00    -0.276 OA
ATOM      7  N   UNL     1      16.323  12.058  15.013  0.00  0.00    -0.301 N 
ATOM     18  C   UNL     1      15.278  11.193  14.687  0.00  0.00    +0.216 C 
ATOM     19  C   UNL     1      17.557  12.039  14.223  0.00  0.00    +0.110 C 
ATOM     20  C   UNL     1      16.294  13.059  16.088  0.00  0.00    +0.110 C 
ATOM     21  C   UNL     1      18.776  11.850  15.121  0.00  0.00    +0.050 C 
ATOM     22  C   UNL     1      17.491  12.889  17.019  0.00  0.00    +0.050 C 
ATOM     23  C   UNL     1      18.806  12.893  16.239  0.00  0.00    +0.118 C 
BRANCH  23   3
ATOM      3  O   UNL     1      19.872  12.607  17.137  0.00  0.00    -0.392 OA
ATOM     32  H   UNL     1      20.132  13.443  17.558  0.00  0.00    +0.210 HD
ENDBRANCH  23   3
ENDBRANCH  16  18
ENDBRANCH  14  16
ENDBRANCH   9  14
TORSDOF 7
ENDMDL
