MODEL 1
REMARK VINA RESULT:      -8.3      0.000      0.000
REMARK  Name = 45783592
REMARK  7 active torsions:
REMARK  status: ('A' for Active; 'I' for Inactive)
REMARK    1  A    between atoms: O_1  and  C_14
REMARK    2  A    between atoms: O_1  and  C_27
REMARK    3  A    between atoms: N_3  and  C_12
REMARK    4  A    between atoms: N_4  and  C_28
REMARK    5  A    between atoms: C_8  and  C_13
REMARK    6  A    between atoms: C_12  and  C_17
REMARK    7  A    between atoms: C_24  and  C_29
REMARK                            x       y       z     vdW  Elec       q    Type
REMARK                         _______ _______ _______ _____ _____    ______ ____
ROOT
ATOM      2  O   UNL     1     -16.489   2.219  24.095  0.00  0.00    -0.336 OA
ATOM      5  N   UNL     1     -15.501   4.104  24.794  0.00  0.00    -0.190 NA
ATOM      6  N   UNL     1     -16.165   2.941  22.938  0.00  0.00    -0.056 NA
ATOM     13  C   UNL     1     -16.064   2.975  25.141  0.00  0.00    +0.245 A 
ATOM     24  C   UNL     1     -15.585   4.039  23.433  0.00  0.00    +0.204 A 
ENDROOT
BRANCH  24  29
ATOM      7  N   UNL     1     -15.528   7.016  21.207  0.00  0.00    -0.221 NA
ATOM     27  C   UNL     1     -14.197   7.110  20.992  0.00  0.00    +0.215 A 
ATOM     29  C   UNL     1     -15.082   5.088  22.596  0.00  0.00    +0.041 A 
ATOM     32  C   UNL     1     -13.260   6.245  21.534  0.00  0.00    +0.068 A 
ATOM     33  C   UNL     1     -13.720   5.217  22.351  0.00  0.00    +0.018 A 
ATOM     34  C   UNL     1     -15.937   6.005  22.006  0.00  0.00    +0.126 A 
BRANCH  27   1
ATOM      1  O   UNL     1     -13.770   8.130  20.184  0.00  0.00    -0.473 OA
BRANCH   1  14
ATOM     14  C   UNL     1     -12.410   8.087  19.764  0.00  0.00    +0.175 C 
ATOM     15  C   UNL     1     -12.342   7.755  18.274  0.00  0.00    +0.044 C 
ATOM     16  C   UNL     1     -11.735   9.422  20.076  0.00  0.00    +0.044 C 
ATOM     18  C   UNL     1     -10.909   7.793  17.755  0.00  0.00    +0.004 C 
ATOM     19  C   UNL     1     -10.302   9.460  19.557  0.00  0.00    +0.004 C 
ATOM     20  C   UNL     1     -10.234   9.126  18.068  0.00  0.00    +0.000 C 
ENDBRANCH   1  14
ENDBRANCH  27   1
ENDBRANCH  24  29
BRANCH  13   8
ATOM      3  N   UNL     1     -17.318   3.162  27.282  0.00  0.00    -0.287 NA
ATOM      8  C   UNL     1     -16.301   2.406  26.524  0.00  0.00    +0.146 C 
ATOM      9  C   UNL     1     -16.832   0.962  26.491  0.00  0.00    +0.030 C 
ATOM     10  C   UNL     1     -17.950   2.208  28.193  0.00  0.00    +0.085 C 
ATOM     11  C   UNL     1     -18.118   0.991  27.306  0.00  0.00    +0.017 C 
BRANCH   3  12
ATOM     12  C   UNL     1     -16.771   4.314  27.987  0.00  0.00    +0.122 C 
BRANCH  12  17
ATOM      4  N   UNL     1     -17.035   4.111  31.653  0.00  0.00    -0.349 N 
ATOM     17  C   UNL     1     -16.650   4.060  29.467  0.00  0.00    -0.008 A 
ATOM     21  C   UNL     1     -15.675   3.246  30.110  0.00  0.00    +0.004 A 
ATOM     22  C   UNL     1     -17.471   4.577  30.441  0.00  0.00    +0.091 A 
ATOM     23  C   UNL     1     -15.939   3.296  31.480  0.00  0.00    +0.049 A 
ATOM     25  C   UNL     1     -14.589   2.470  29.656  0.00  0.00    +0.010 A 
ATOM     26  C   UNL     1     -15.169   2.606  32.423  0.00  0.00    +0.026 A 
ATOM     28  C   UNL     1     -17.649   4.438  32.921  0.00  0.00    +0.149 C 
ATOM     30  C   UNL     1     -13.811   1.775  30.588  0.00  0.00    +0.001 A 
ATOM     31  C   UNL     1     -14.098   1.843  31.949  0.00  0.00    +0.002 A 
ENDBRANCH  12  17
ENDBRANCH   3  12
ENDBRANCH  13   8
TORSDOF 6
ENDMDL
MODEL 2
REMARK VINA RESULT:      -7.9      2.550     10.626
REMARK  Name = 45783592
REMARK  7 active torsions:
REMARK  status: ('A' for Active; 'I' for Inactive)
REMARK    1  A    between atoms: O_1  and  C_14
REMARK    2  A    between atoms: O_1  and  C_27
REMARK    3  A    between atoms: N_3  and  C_12
REMARK    4  A    between atoms: N_4  and  C_28
REMARK    5  A    between atoms: C_8  and  C_13
REMARK    6  A    between atoms: C_12  and  C_17
REMARK    7  A    between atoms: C_24  and  C_29
REMARK                            x       y       z     vdW  Elec       q    Type
REMARK                         _______ _______ _______ _____ _____    ______ ____
ROOT
ATOM      2  O   UNL     1     -16.035   4.853  20.863  0.00  0.00    -0.336 OA
ATOM      5  N   UNL     1     -17.646   5.330  22.345  0.00  0.00    -0.190 NA
ATOM      6  N   UNL     1     -15.586   4.365  22.097  0.00  0.00    -0.056 NA
ATOM     13  C   UNL     1     -17.254   5.406  21.098  0.00  0.00    +0.245 A 
ATOM     24  C   UNL     1     -16.591   4.683  22.920  0.00  0.00    +0.204 A 
ENDROOT
BRANCH  24  29
ATOM      7  N   UNL     1     -17.138   4.998  26.583  0.00  0.00    -0.221 NA
ATOM     27  C   UNL     1     -16.565   3.846  26.996  0.00  0.00    +0.215 A 
ATOM     29  C   UNL     1     -16.570   4.372  24.319  0.00  0.00    +0.041 A 
ATOM     32  C   UNL     1     -15.981   2.921  26.145  0.00  0.00    +0.068 A 
ATOM     33  C   UNL     1     -15.989   3.197  24.781  0.00  0.00    +0.018 A 
ATOM     34  C   UNL     1     -17.126   5.232  25.251  0.00  0.00    +0.126 A 
BRANCH  27   1
ATOM      1  O   UNL     1     -16.570   3.598  28.343  0.00  0.00    -0.473 OA
BRANCH   1  14
ATOM     14  C   UNL     1     -15.643   2.628  28.818  0.00  0.00    +0.175 C 
ATOM     15  C   UNL     1     -14.674   3.282  29.801  0.00  0.00    +0.044 C 
ATOM     16  C   UNL     1     -16.401   1.468  29.462  0.00  0.00    +0.044 C 
ATOM     18  C   UNL     1     -13.721   2.261  30.414  0.00  0.00    +0.004 C 
ATOM     19  C   UNL     1     -15.448   0.446  30.074  0.00  0.00    +0.004 C 
ATOM     20  C   UNL     1     -14.477   1.101  31.055  0.00  0.00    +0.000 C 
ENDBRANCH   1  14
ENDBRANCH  27   1
ENDBRANCH  24  29
BRANCH  13   8
ATOM      3  N   UNL     1     -17.025   6.441  18.848  0.00  0.00    -0.287 NA
ATOM      8  C   UNL     1     -17.962   6.013  19.905  0.00  0.00    +0.146 C 
ATOM      9  C   UNL     1     -18.911   5.021  19.208  0.00  0.00    +0.030 C 
ATOM     10  C   UNL     1     -17.749   6.326  17.582  0.00  0.00    +0.085 C 
ATOM     11  C   UNL     1     -18.469   5.004  17.752  0.00  0.00    +0.017 C 
BRANCH   3  12
ATOM     12  C   UNL     1     -16.497   7.783  19.057  0.00  0.00    +0.122 C 
BRANCH  12  17
ATOM      4  N   UNL     1     -13.323   8.275  17.261  0.00  0.00    -0.349 N 
ATOM     17  C   UNL     1     -15.078   7.910  18.571  0.00  0.00    -0.008 A 
ATOM     21  C   UNL     1     -13.898   7.675  19.331  0.00  0.00    +0.004 A 
ATOM     22  C   UNL     1     -14.692   8.278  17.303  0.00  0.00    +0.091 A 
ATOM     23  C   UNL     1     -12.812   7.911  18.486  0.00  0.00    +0.049 A 
ATOM     25  C   UNL     1     -13.649   7.281  20.662  0.00  0.00    +0.010 A 
ATOM     26  C   UNL     1     -11.484   7.774  18.906  0.00  0.00    +0.026 A 
ATOM     28  C   UNL     1     -12.543   8.611  16.089  0.00  0.00    +0.149 C 
ATOM     30  C   UNL     1     -12.326   7.139  21.095  0.00  0.00    +0.001 A 
ATOM     31  C   UNL     1     -11.262   7.382  20.229  0.00  0.00    +0.002 A 
ENDBRANCH  12  17
ENDBRANCH   3  12
ENDBRANCH  13   8
TORSDOF 6
ENDMDL
MODEL 3
REMARK VINA RESULT:      -7.9     17.320     19.716
REMARK  Name = 45783592
REMARK  7 active torsions:
REMARK  status: ('A' for Active; 'I' for Inactive)
REMARK    1  A    between atoms: O_1  and  C_14
REMARK    2  A    between atoms: O_1  and  C_27
REMARK    3  A    between atoms: N_3  and  C_12
REMARK    4  A    between atoms: N_4  and  C_28
REMARK    5  A    between atoms: C_8  and  C_13
REMARK    6  A    between atoms: C_12  and  C_17
REMARK    7  A    between atoms: C_24  and  C_29
REMARK                            x       y       z     vdW  Elec       q    Type
REMARK                         _______ _______ _______ _____ _____    ______ ____
ROOT
ATOM      2  O   UNL     1      -8.412 -11.343  15.641  0.00  0.00    -0.336 OA
ATOM      5  N   UNL     1      -8.904  -9.619  16.984  0.00  0.00    -0.190 NA
ATOM      6  N   UNL     1      -9.223 -10.483  14.889  0.00  0.00    -0.056 NA
ATOM     13  C   UNL     1      -8.275 -10.761  16.861  0.00  0.00    +0.245 A 
ATOM     24  C   UNL     1      -9.471  -9.490  15.749  0.00  0.00    +0.204 A 
ENDROOT
BRANCH  24  29
ATOM      7  N   UNL     1     -10.809  -6.022  15.733  0.00  0.00    -0.221 NA
ATOM     27  C   UNL     1     -11.784  -6.161  14.808  0.00  0.00    +0.215 A 
ATOM     29  C   UNL     1     -10.280  -8.358  15.407  0.00  0.00    +0.041 A 
ATOM     32  C   UNL     1     -12.065  -7.348  14.148  0.00  0.00    +0.068 A 
ATOM     33  C   UNL     1     -11.293  -8.463  14.460  0.00  0.00    +0.018 A 
ATOM     34  C   UNL     1     -10.080  -7.127  16.010  0.00  0.00    +0.126 A 
BRANCH  27   1
ATOM      1  O   UNL     1     -12.530  -5.049  14.519  0.00  0.00    -0.473 OA
BRANCH   1  14
ATOM     14  C   UNL     1     -12.997  -4.922  13.180  0.00  0.00    +0.175 C 
ATOM     15  C   UNL     1     -14.479  -4.553  13.187  0.00  0.00    +0.044 C 
ATOM     16  C   UNL     1     -12.159  -3.879  12.442  0.00  0.00    +0.044 C 
ATOM     18  C   UNL     1     -15.004  -4.309  11.775  0.00  0.00    +0.004 C 
ATOM     19  C   UNL     1     -12.683  -3.636  11.031  0.00  0.00    +0.004 C 
ATOM     20  C   UNL     1     -14.166  -3.269  11.037  0.00  0.00    +0.000 C 
ENDBRANCH   1  14
ENDBRANCH  27   1
ENDBRANCH  24  29
BRANCH  13   8
ATOM      3  N   UNL     1      -5.990 -11.452  17.560  0.00  0.00    -0.287 NA
ATOM      8  C   UNL     1      -7.431 -11.505  17.874  0.00  0.00    +0.146 C 
ATOM      9  C   UNL     1      -7.545 -10.916  19.292  0.00  0.00    +0.030 C 
ATOM     10  C   UNL     1      -5.284 -11.536  18.839  0.00  0.00    +0.085 C 
ATOM     11  C   UNL     1      -6.113 -10.618  19.715  0.00  0.00    +0.017 C 
BRANCH   3  12
ATOM     12  C   UNL     1      -5.565 -12.491  16.631  0.00  0.00    +0.122 C 
BRANCH  12  17
ATOM      4  N   UNL     1      -4.375 -11.299  13.359  0.00  0.00    -0.349 N 
ATOM     17  C   UNL     1      -4.847 -11.918  15.438  0.00  0.00    -0.008 A 
ATOM     21  C   UNL     1      -3.569 -11.292  15.439  0.00  0.00    +0.004 A 
ATOM     22  C   UNL     1      -5.317 -11.907  14.145  0.00  0.00    +0.091 A 
ATOM     23  C   UNL     1      -3.297 -10.913  14.123  0.00  0.00    +0.049 A 
ATOM     25  C   UNL     1      -2.614 -11.012  16.437  0.00  0.00    +0.010 A 
ATOM     26  C   UNL     1      -2.114 -10.265  13.752  0.00  0.00    +0.026 A 
ATOM     28  C   UNL     1      -4.511 -11.098  11.932  0.00  0.00    +0.149 C 
ATOM     30  C   UNL     1      -1.425 -10.364  16.081  0.00  0.00    +0.001 A 
ATOM     31  C   UNL     1      -1.181  -9.997  14.759  0.00  0.00    +0.002 A 
ENDBRANCH  12  17
ENDBRANCH   3  12
ENDBRANCH  13   8
TORSDOF 6
ENDMDL
MODEL 4
REMARK VINA RESULT:      -7.8     17.197     20.259
REMARK  Name = 45783592
REMARK  7 active torsions:
REMARK  status: ('A' for Active; 'I' for Inactive)
REMARK    1  A    between atoms: O_1  and  C_14
REMARK    2  A    between atoms: O_1  and  C_27
REMARK    3  A    between atoms: N_3  and  C_12
REMARK    4  A    between atoms: N_4  and  C_28
REMARK    5  A    between atoms: C_8  and  C_13
REMARK    6  A    between atoms: C_12  and  C_17
REMARK    7  A    between atoms: C_24  and  C_29
REMARK                            x       y       z     vdW  Elec       q    Type
REMARK                         _______ _______ _______ _____ _____    ______ ____
ROOT
ATOM      2  O   UNL     1      -8.638 -10.969  17.266  0.00  0.00    -0.336 OA
ATOM      5  N   UNL     1      -8.163  -9.408  15.731  0.00  0.00    -0.190 NA
ATOM      6  N   UNL     1      -9.788 -10.177  17.146  0.00  0.00    -0.056 NA
ATOM     13  C   UNL     1      -7.730 -10.448  16.399  0.00  0.00    +0.245 A 
ATOM     24  C   UNL     1      -9.430  -9.280  16.222  0.00  0.00    +0.204 A 
ENDROOT
BRANCH  24  29
ATOM      7  N   UNL     1     -11.900  -7.453  14.130  0.00  0.00    -0.221 NA
ATOM     27  C   UNL     1     -12.007  -6.315  14.850  0.00  0.00    +0.215 A 
ATOM     29  C   UNL     1     -10.311  -8.244  15.771  0.00  0.00    +0.041 A 
ATOM     32  C   UNL     1     -11.309  -6.070  16.023  0.00  0.00    +0.068 A 
ATOM     33  C   UNL     1     -10.447  -7.059  16.485  0.00  0.00    +0.018 A 
ATOM     34  C   UNL     1     -11.053  -8.391  14.610  0.00  0.00    +0.126 A 
BRANCH  27   1
ATOM      1  O   UNL     1     -12.861  -5.357  14.373  0.00  0.00    -0.473 OA
BRANCH   1  14
ATOM     14  C   UNL     1     -12.870  -5.150  12.965  0.00  0.00    +0.175 C 
ATOM     15  C   UNL     1     -14.307  -5.195  12.448  0.00  0.00    +0.044 C 
ATOM     16  C   UNL     1     -12.194  -3.819  12.638  0.00  0.00    +0.044 C 
ATOM     18  C   UNL     1     -14.377  -4.882  10.957  0.00  0.00    +0.004 C 
ATOM     19  C   UNL     1     -12.265  -3.506  11.147  0.00  0.00    +0.004 C 
ATOM     20  C   UNL     1     -13.701  -3.553  10.630  0.00  0.00    +0.000 C 
ENDBRANCH   1  14
ENDBRANCH  27   1
ENDBRANCH  24  29
BRANCH  13   8
ATOM      3  N   UNL     1      -5.602 -10.749  15.148  0.00  0.00    -0.287 NA
ATOM      8  C   UNL     1      -6.383 -11.135  16.339  0.00  0.00    +0.146 C 
ATOM      9  C   UNL     1      -5.479 -10.777  17.533  0.00  0.00    +0.030 C 
ATOM     10  C   UNL     1      -4.192 -10.859  15.524  0.00  0.00    +0.085 C 
ATOM     11  C   UNL     1      -4.190 -10.255  16.914  0.00  0.00    +0.017 C 
BRANCH   3  12
ATOM     12  C   UNL     1      -5.918 -11.545  13.970  0.00  0.00    +0.122 C 
BRANCH  12  17
ATOM      4  N   UNL     1      -6.848  -9.477  11.071  0.00  0.00    -0.349 N 
ATOM     17  C   UNL     1      -6.018 -10.697  12.729  0.00  0.00    -0.008 A 
ATOM     21  C   UNL     1      -4.938 -10.273  11.905  0.00  0.00    +0.004 A 
ATOM     22  C   UNL     1      -7.178 -10.192  12.191  0.00  0.00    +0.091 A 
ATOM     23  C   UNL     1      -5.486  -9.509  10.873  0.00  0.00    +0.049 A 
ATOM     25  C   UNL     1      -3.542 -10.466  11.938  0.00  0.00    +0.010 A 
ATOM     26  C   UNL     1      -4.706  -8.927   9.868  0.00  0.00    +0.026 A 
ATOM     28  C   UNL     1      -7.805  -8.792  10.229  0.00  0.00    +0.149 C 
ATOM     30  C   UNL     1      -2.749  -9.890  10.940  0.00  0.00    +0.001 A 
ATOM     31  C   UNL     1      -3.324  -9.132   9.921  0.00  0.00    +0.002 A 
ENDBRANCH  12  17
ENDBRANCH   3  12
ENDBRANCH  13   8
TORSDOF 6
ENDMDL
MODEL 5
REMARK VINA RESULT:      -7.7     17.944     19.955
REMARK  Name = 45783592
REMARK  7 active torsions:
REMARK  status: ('A' for Active; 'I' for Inactive)
REMARK    1  A    between atoms: O_1  and  C_14
REMARK    2  A    between atoms: O_1  and  C_27
REMARK    3  A    between atoms: N_3  and  C_12
REMARK    4  A    between atoms: N_4  and  C_28
REMARK    5  A    between atoms: C_8  and  C_13
REMARK    6  A    between atoms: C_12  and  C_17
REMARK    7  A    between atoms: C_24  and  C_29
REMARK                            x       y       z     vdW  Elec       q    Type
REMARK                         _______ _______ _______ _____ _____    ______ ____
ROOT
ATOM      2  O   UNL     1      -6.667 -11.512  20.282  0.00  0.00    -0.336 OA
ATOM      5  N   UNL     1      -7.146 -12.432  18.297  0.00  0.00    -0.190 NA
ATOM      6  N   UNL     1      -5.597 -11.191  19.436  0.00  0.00    -0.056 NA
ATOM     13  C   UNL     1      -7.533 -12.244  19.533  0.00  0.00    +0.245 A 
ATOM     24  C   UNL     1      -5.954 -11.768  18.284  0.00  0.00    +0.204 A 
ENDROOT
BRANCH  24  29
ATOM      7  N   UNL     1      -4.533 -12.635  14.961  0.00  0.00    -0.221 NA
ATOM     27  C   UNL     1      -3.629 -11.638  14.835  0.00  0.00    +0.215 A 
ATOM     29  C   UNL     1      -5.142 -11.701  17.105  0.00  0.00    +0.041 A 
ATOM     32  C   UNL     1      -3.426 -10.651  15.786  0.00  0.00    +0.068 A 
ATOM     33  C   UNL     1      -4.201 -10.691  16.941  0.00  0.00    +0.018 A 
ATOM     34  C   UNL     1      -5.268 -12.641  16.096  0.00  0.00    +0.126 A 
BRANCH  27   1
ATOM      1  O   UNL     1      -2.878 -11.622  13.690  0.00  0.00    -0.473 OA
BRANCH   1  14
ATOM     14  C   UNL     1      -3.029 -10.489  12.842  0.00  0.00    +0.175 C 
ATOM     15  C   UNL     1      -1.834 -10.392  11.895  0.00  0.00    +0.044 C 
ATOM     16  C   UNL     1      -4.347 -10.593  12.077  0.00  0.00    +0.044 C 
ATOM     18  C   UNL     1      -1.997  -9.249  10.899  0.00  0.00    +0.004 C 
ATOM     19  C   UNL     1      -4.510  -9.450  11.081  0.00  0.00    +0.004 C 
ATOM     20  C   UNL     1      -3.314  -9.352  10.136  0.00  0.00    +0.000 C 
ENDBRANCH   1  14
ENDBRANCH  27   1
ENDBRANCH  24  29
BRANCH  13   8
ATOM      3  N   UNL     1     -10.020 -12.221  19.582  0.00  0.00    -0.287 NA
ATOM      8  C   UNL     1      -8.791 -12.720  20.228  0.00  0.00    +0.146 C 
ATOM      9  C   UNL     1      -8.935 -14.253  20.213  0.00  0.00    +0.030 C 
ATOM     10  C   UNL     1     -11.055 -13.225  19.831  0.00  0.00    +0.085 C 
ATOM     11  C   UNL     1     -10.301 -14.518  19.596  0.00  0.00    +0.017 C 
BRANCH   3  12
ATOM     12  C   UNL     1     -10.417 -10.898  20.046  0.00  0.00    +0.122 C 
BRANCH  12  17
ATOM      4  N   UNL     1     -12.787  -9.209  17.792  0.00  0.00    -0.349 N 
ATOM     17  C   UNL     1     -11.152 -10.127  18.981  0.00  0.00    -0.008 A 
ATOM     21  C   UNL     1     -10.568  -9.427  17.888  0.00  0.00    +0.004 A 
ATOM     22  C   UNL     1     -12.516  -9.975  18.894  0.00  0.00    +0.091 A 
ATOM     23  C   UNL     1     -11.615  -8.861  17.158  0.00  0.00    +0.049 A 
ATOM     25  C   UNL     1      -9.245  -9.220  17.448  0.00  0.00    +0.010 A 
ATOM     26  C   UNL     1     -11.405  -8.094  16.006  0.00  0.00    +0.026 A 
ATOM     28  C   UNL     1     -14.117  -8.831  17.368  0.00  0.00    +0.149 C 
ATOM     30  C   UNL     1      -9.020  -8.457  16.297  0.00  0.00    +0.001 A 
ATOM     31  C   UNL     1     -10.085  -7.903  15.588  0.00  0.00    +0.002 A 
ENDBRANCH  12  17
ENDBRANCH   3  12
ENDBRANCH  13   8
TORSDOF 6
ENDMDL
MODEL 6
REMARK VINA RESULT:      -7.7     17.176     19.686
REMARK  Name = 45783592
REMARK  7 active torsions:
REMARK  status: ('A' for Active; 'I' for Inactive)
REMARK    1  A    between atoms: O_1  and  C_14
REMARK    2  A    between atoms: O_1  and  C_27
REMARK    3  A    between atoms: N_3  and  C_12
REMARK    4  A    between atoms: N_4  and  C_28
REMARK    5  A    between atoms: C_8  and  C_13
REMARK    6  A    between atoms: C_12  and  C_17
REMARK    7  A    between atoms: C_24  and  C_29
REMARK                            x       y       z     vdW  Elec       q    Type
REMARK                         _______ _______ _______ _____ _____    ______ ____
ROOT
ATOM      2  O   UNL     1      -9.052 -11.413  15.923  0.00  0.00    -0.336 OA
ATOM      5  N   UNL     1      -8.954  -9.440  16.980  0.00  0.00    -0.190 NA
ATOM      6  N   UNL     1      -9.941 -10.565  15.249  0.00  0.00    -0.056 NA
ATOM     13  C   UNL     1      -8.514 -10.673  16.928  0.00  0.00    +0.245 A 
ATOM     24  C   UNL     1      -9.826  -9.421  15.930  0.00  0.00    +0.204 A 
ENDROOT
BRANCH  24  29
ATOM      7  N   UNL     1     -12.111  -7.132  14.098  0.00  0.00    -0.221 NA
ATOM     27  C   UNL     1     -12.011  -6.037  14.883  0.00  0.00    +0.215 A 
ATOM     29  C   UNL     1     -10.569  -8.243  15.591  0.00  0.00    +0.041 A 
ATOM     32  C   UNL     1     -11.222  -5.968  16.021  0.00  0.00    +0.068 A 
ATOM     33  C   UNL     1     -10.491  -7.098  16.375  0.00  0.00    +0.018 A 
ATOM     34  C   UNL     1     -11.386  -8.210  14.473  0.00  0.00    +0.126 A 
BRANCH  27   1
ATOM      1  O   UNL     1     -12.740  -4.939  14.513  0.00  0.00    -0.473 OA
BRANCH   1  14
ATOM     14  C   UNL     1     -13.099  -4.842  13.139  0.00  0.00    +0.175 C 
ATOM     15  C   UNL     1     -14.575  -4.468  13.018  0.00  0.00    +0.044 C 
ATOM     16  C   UNL     1     -12.200  -3.820  12.445  0.00  0.00    +0.044 C 
ATOM     18  C   UNL     1     -14.984  -4.256  11.564  0.00  0.00    +0.004 C 
ATOM     19  C   UNL     1     -12.609  -3.608  10.991  0.00  0.00    +0.004 C 
ATOM     20  C   UNL     1     -14.085  -3.236  10.871  0.00  0.00    +0.000 C 
ENDBRANCH   1  14
ENDBRANCH  27   1
ENDBRANCH  24  29
BRANCH  13   8
ATOM      3  N   UNL     1      -6.113 -11.090  17.424  0.00  0.00    -0.287 NA
ATOM      8  C   UNL     1      -7.508 -11.371  17.816  0.00  0.00    +0.146 C 
ATOM      9  C   UNL     1      -7.599 -10.922  19.286  0.00  0.00    +0.030 C 
ATOM     10  C   UNL     1      -5.314 -11.178  18.646  0.00  0.00    +0.085 C 
ATOM     11  C   UNL     1      -6.195 -10.461  19.650  0.00  0.00    +0.017 C 
BRANCH   3  12
ATOM     12  C   UNL     1      -5.619 -11.979  16.381  0.00  0.00    +0.122 C 
BRANCH  12  17
ATOM      4  N   UNL     1      -2.336 -10.633  15.400  0.00  0.00    -0.349 N 
ATOM     17  C   UNL     1      -4.384 -11.431  15.715  0.00  0.00    -0.008 A 
ATOM     21  C   UNL     1      -4.215 -11.174  14.325  0.00  0.00    +0.004 A 
ATOM     22  C   UNL     1      -3.213 -11.089  16.349  0.00  0.00    +0.091 A 
ATOM     23  C   UNL     1      -2.923 -10.675  14.155  0.00  0.00    +0.049 A 
ATOM     25  C   UNL     1      -5.041 -11.319  13.192  0.00  0.00    +0.010 A 
ATOM     26  C   UNL     1      -2.412 -10.312  12.904  0.00  0.00    +0.026 A 
ATOM     28  C   UNL     1      -0.992 -10.179  15.683  0.00  0.00    +0.149 C 
ATOM     30  C   UNL     1      -4.544 -10.959  11.935  0.00  0.00    +0.001 A 
ATOM     31  C   UNL     1      -3.249 -10.463  11.795  0.00  0.00    +0.002 A 
ENDBRANCH  12  17
ENDBRANCH   3  12
ENDBRANCH  13   8
TORSDOF 6
ENDMDL
MODEL 7
REMARK VINA RESULT:      -7.6     30.774     35.762
REMARK  Name = 45783592
REMARK  7 active torsions:
REMARK  status: ('A' for Active; 'I' for Inactive)
REMARK    1  A    between atoms: O_1  and  C_14
REMARK    2  A    between atoms: O_1  and  C_27
REMARK    3  A    between atoms: N_3  and  C_12
REMARK    4  A    between atoms: N_4  and  C_28
REMARK    5  A    between atoms: C_8  and  C_13
REMARK    6  A    between atoms: C_12  and  C_17
REMARK    7  A    between atoms: C_24  and  C_29
REMARK                            x       y       z     vdW  Elec       q    Type
REMARK                         _______ _______ _______ _____ _____    ______ ____
ROOT
ATOM      2  O   UNL     1      10.522   8.678   7.009  0.00  0.00    -0.336 OA
ATOM      5  N   UNL     1      12.205   7.218   6.774  0.00  0.00    -0.190 NA
ATOM      6  N   UNL     1      11.682   9.445   6.841  0.00  0.00    -0.056 NA
ATOM     13  C   UNL     1      10.918   7.379   6.957  0.00  0.00    +0.245 A 
ATOM     24  C   UNL     1      12.631   8.513   6.708  0.00  0.00    +0.204 A 
ENDROOT
BRANCH  24  29
ATOM      7  N   UNL     1      15.748  10.522   6.454  0.00  0.00    -0.221 NA
ATOM     27  C   UNL     1      16.625   9.540   6.149  0.00  0.00    +0.215 A 
ATOM     29  C   UNL     1      14.012   8.841   6.512  0.00  0.00    +0.041 A 
ATOM     32  C   UNL     1      16.277   8.205   6.010  0.00  0.00    +0.068 A 
ATOM     33  C   UNL     1      14.943   7.858   6.196  0.00  0.00    +0.018 A 
ATOM     34  C   UNL     1      14.461  10.147   6.628  0.00  0.00    +0.126 A 
BRANCH  27   1
ATOM      1  O   UNL     1      17.932   9.908   5.970  0.00  0.00    -0.473 OA
BRANCH   1  14
ATOM     14  C   UNL     1      18.871   8.857   5.771  0.00  0.00    +0.175 C 
ATOM     15  C   UNL     1      19.534   9.012   4.403  0.00  0.00    +0.044 C 
ATOM     16  C   UNL     1      19.900   8.868   6.900  0.00  0.00    +0.044 C 
ATOM     18  C   UNL     1      20.620   7.964   4.183  0.00  0.00    +0.004 C 
ATOM     19  C   UNL     1      20.986   7.820   6.680  0.00  0.00    +0.004 C 
ATOM     20  C   UNL     1      21.647   7.974   5.312  0.00  0.00    +0.000 C 
ENDBRANCH   1  14
ENDBRANCH  27   1
ENDBRANCH  24  29
BRANCH  13   8
ATOM      3  N   UNL     1      10.049   5.157   6.252  0.00  0.00    -0.287 NA
ATOM      8  C   UNL     1       9.833   6.335   7.115  0.00  0.00    +0.146 C 
ATOM      9  C   UNL     1       9.759   5.766   8.544  0.00  0.00    +0.030 C 
ATOM     10  C   UNL     1       9.445   4.020   6.946  0.00  0.00    +0.085 C 
ATOM     11  C   UNL     1       9.882   4.258   8.378  0.00  0.00    +0.017 C 
BRANCH   3  12
ATOM     12  C   UNL     1       9.515   5.325   4.907  0.00  0.00    +0.122 C 
BRANCH  12  17
ATOM      4  N   UNL     1      12.002   4.315   2.389  0.00  0.00    -0.349 N 
ATOM     17  C   UNL     1      10.587   5.192   3.858  0.00  0.00    -0.008 A 
ATOM     21  C   UNL     1      11.328   6.253   3.265  0.00  0.00    +0.004 A 
ATOM     22  C   UNL     1      11.024   4.014   3.299  0.00  0.00    +0.091 A 
ATOM     23  C   UNL     1      12.208   5.675   2.348  0.00  0.00    +0.049 A 
ATOM     25  C   UNL     1      11.335   7.654   3.423  0.00  0.00    +0.010 A 
ATOM     26  C   UNL     1      13.098   6.431   1.576  0.00  0.00    +0.026 A 
ATOM     28  C   UNL     1      12.706   3.333   1.594  0.00  0.00    +0.149 C 
ATOM     30  C   UNL     1      12.220   8.422   2.658  0.00  0.00    +0.001 A 
ATOM     31  C   UNL     1      13.087   7.818   1.750  0.00  0.00    +0.002 A 
ENDBRANCH  12  17
ENDBRANCH   3  12
ENDBRANCH  13   8
TORSDOF 6
ENDMDL
MODEL 8
REMARK VINA RESULT:      -7.5     15.898     17.882
REMARK  Name = 45783592
REMARK  7 active torsions:
REMARK  status: ('A' for Active; 'I' for Inactive)
REMARK    1  A    between atoms: O_1  and  C_14
REMARK    2  A    between atoms: O_1  and  C_27
REMARK    3  A    between atoms: N_3  and  C_12
REMARK    4  A    between atoms: N_4  and  C_28
REMARK    5  A    between atoms: C_8  and  C_13
REMARK    6  A    between atoms: C_12  and  C_17
REMARK    7  A    between atoms: C_24  and  C_29
REMARK                            x       y       z     vdW  Elec       q    Type
REMARK                         _______ _______ _______ _____ _____    ______ ____
ROOT
ATOM      2  O   UNL     1      -8.354 -10.962  16.263  0.00  0.00    -0.336 OA
ATOM      5  N   UNL     1      -8.273  -8.774  16.734  0.00  0.00    -0.190 NA
ATOM      6  N   UNL     1      -9.494 -10.395  15.679  0.00  0.00    -0.056 NA
ATOM     13  C   UNL     1      -7.691  -9.939  16.864  0.00  0.00    +0.245 A 
ATOM     24  C   UNL     1      -9.375  -9.103  16.000  0.00  0.00    +0.204 A 
ENDROOT
BRANCH  24  29
ATOM      7  N   UNL     1     -11.346  -5.951  15.968  0.00  0.00    -0.221 NA
ATOM     27  C   UNL     1     -12.150  -6.200  14.911  0.00  0.00    +0.215 A 
ATOM     29  C   UNL     1     -10.338  -8.119  15.605  0.00  0.00    +0.041 A 
ATOM     32  C   UNL     1     -12.110  -7.366  14.162  0.00  0.00    +0.068 A 
ATOM     33  C   UNL     1     -11.184  -8.338  14.523  0.00  0.00    +0.018 A 
ATOM     34  C   UNL     1     -10.458  -6.920  16.289  0.00  0.00    +0.126 A 
BRANCH  27   1
ATOM      1  O   UNL     1     -13.054  -5.227  14.577  0.00  0.00    -0.473 OA
BRANCH   1  14
ATOM     14  C   UNL     1     -13.264  -4.999  13.188  0.00  0.00    +0.175 C 
ATOM     15  C   UNL     1     -14.713  -4.575  12.950  0.00  0.00    +0.044 C 
ATOM     16  C   UNL     1     -12.279  -3.945  12.686  0.00  0.00    +0.044 C 
ATOM     18  C   UNL     1     -14.962  -4.224  11.487  0.00  0.00    +0.004 C 
ATOM     19  C   UNL     1     -12.528  -3.595  11.223  0.00  0.00    +0.004 C 
ATOM     20  C   UNL     1     -13.977  -3.172  10.985  0.00  0.00    +0.000 C 
ENDBRANCH   1  14
ENDBRANCH  27   1
ENDBRANCH  24  29
BRANCH  13   8
ATOM      3  N   UNL     1      -6.486 -11.590  18.283  0.00  0.00    -0.287 NA
ATOM      8  C   UNL     1      -6.404 -10.295  17.578  0.00  0.00    +0.146 C 
ATOM      9  C   UNL     1      -5.212 -10.448  16.615  0.00  0.00    +0.030 C 
ATOM     10  C   UNL     1      -5.130 -12.138  18.300  0.00  0.00    +0.085 C 
ATOM     11  C   UNL     1      -4.652 -11.836  16.894  0.00  0.00    +0.017 C 
BRANCH   3  12
ATOM     12  C   UNL     1      -7.049 -11.480  19.622  0.00  0.00    +0.122 C 
BRANCH  12  17
ATOM      4  N   UNL     1      -9.932 -13.747  19.932  0.00  0.00    -0.349 N 
ATOM     17  C   UNL     1      -8.385 -12.169  19.727  0.00  0.00    -0.008 A 
ATOM     21  C   UNL     1      -9.664 -11.545  19.691  0.00  0.00    +0.004 A 
ATOM     22  C   UNL     1      -8.582 -13.521  19.876  0.00  0.00    +0.091 A 
ATOM     23  C   UNL     1     -10.616 -12.558  19.822  0.00  0.00    +0.049 A 
ATOM     25  C   UNL     1     -10.104 -10.213  19.559  0.00  0.00    +0.010 A 
ATOM     26  C   UNL     1     -11.993 -12.304  19.828  0.00  0.00    +0.026 A 
ATOM     28  C   UNL     1     -10.534 -15.054  20.087  0.00  0.00    +0.149 C 
ATOM     30  C   UNL     1     -11.477  -9.945  19.563  0.00  0.00    +0.001 A 
ATOM     31  C   UNL     1     -12.405 -10.975  19.695  0.00  0.00    +0.002 A 
ENDBRANCH  12  17
ENDBRANCH   3  12
ENDBRANCH  13   8
TORSDOF 6
ENDMDL
MODEL 9
REMARK VINA RESULT:      -7.4      2.006     10.648
REMARK  Name = 45783592
REMARK  7 active torsions:
REMARK  status: ('A' for Active; 'I' for Inactive)
REMARK    1  A    between atoms: O_1  and  C_14
REMARK    2  A    between atoms: O_1  and  C_27
REMARK    3  A    between atoms: N_3  and  C_12
REMARK    4  A    between atoms: N_4  and  C_28
REMARK    5  A    between atoms: C_8  and  C_13
REMARK    6  A    between atoms: C_12  and  C_17
REMARK    7  A    between atoms: C_24  and  C_29
REMARK                            x       y       z     vdW  Elec       q    Type
REMARK                         _______ _______ _______ _____ _____    ______ ____
ROOT
ATOM      2  O   UNL     1     -16.438   3.969  21.887  0.00  0.00    -0.336 OA
ATOM      5  N   UNL     1     -15.996   4.757  23.937  0.00  0.00    -0.190 NA
ATOM      6  N   UNL     1     -16.685   2.911  22.772  0.00  0.00    -0.056 NA
ATOM     13  C   UNL     1     -16.037   5.017  22.654  0.00  0.00    +0.245 A 
ATOM     24  C   UNL     1     -16.403   3.454  23.961  0.00  0.00    +0.204 A 
ENDROOT
BRANCH  24  29
ATOM      7  N   UNL     1     -16.187   2.641  27.582  0.00  0.00    -0.221 NA
ATOM     27  C   UNL     1     -16.694   1.389  27.562  0.00  0.00    +0.215 A 
ATOM     29  C   UNL     1     -16.514   2.723  25.188  0.00  0.00    +0.041 A 
ATOM     32  C   UNL     1     -17.126   0.745  26.413  0.00  0.00    +0.068 A 
ATOM     33  C   UNL     1     -17.031   1.432  25.207  0.00  0.00    +0.018 A 
ATOM     34  C   UNL     1     -16.109   3.278  26.391  0.00  0.00    +0.126 A 
BRANCH  27   1
ATOM      1  O   UNL     1     -16.777   0.734  28.761  0.00  0.00    -0.473 OA
BRANCH   1  14
ATOM     14  C   UNL     1     -15.750   1.003  29.710  0.00  0.00    +0.175 C 
ATOM     15  C   UNL     1     -16.120   2.237  30.531  0.00  0.00    +0.044 C 
ATOM     16  C   UNL     1     -15.538  -0.222  30.597  0.00  0.00    +0.044 C 
ATOM     18  C   UNL     1     -15.096   2.509  31.628  0.00  0.00    +0.004 C 
ATOM     19  C   UNL     1     -14.514   0.050  31.694  0.00  0.00    +0.004 C 
ATOM     20  C   UNL     1     -14.883   1.285  32.514  0.00  0.00    +0.000 C 
ENDBRANCH   1  14
ENDBRANCH  27   1
ENDBRANCH  24  29
BRANCH  13   8
ATOM      3  N   UNL     1     -14.635   6.122  20.922  0.00  0.00    -0.287 NA
ATOM      8  C   UNL     1     -15.704   6.300  21.924  0.00  0.00    +0.146 C 
ATOM      9  C   UNL     1     -16.898   6.858  21.128  0.00  0.00    +0.030 C 
ATOM     10  C   UNL     1     -14.884   7.110  19.872  0.00  0.00    +0.085 C 
ATOM     11  C   UNL     1     -16.387   7.017  19.703  0.00  0.00    +0.017 C 
BRANCH   3  12
ATOM     12  C   UNL     1     -13.296   6.244  21.483  0.00  0.00    +0.122 C 
BRANCH  12  17
ATOM      4  N   UNL     1     -11.285   8.932  19.973  0.00  0.00    -0.349 N 
ATOM     17  C   UNL     1     -12.617   7.515  21.044  0.00  0.00    -0.008 A 
ATOM     21  C   UNL     1     -12.865   8.824  21.545  0.00  0.00    +0.004 A 
ATOM     22  C   UNL     1     -11.642   7.614  20.079  0.00  0.00    +0.091 A 
ATOM     23  C   UNL     1     -12.016   9.693  20.857  0.00  0.00    +0.049 A 
ATOM     25  C   UNL     1     -13.731   9.353  22.523  0.00  0.00    +0.010 A 
ATOM     26  C   UNL     1     -11.991  11.072  21.097  0.00  0.00    +0.026 A 
ATOM     28  C   UNL     1     -10.283   9.434  19.058  0.00  0.00    +0.149 C 
ATOM     30  C   UNL     1     -13.717  10.730  22.773  0.00  0.00    +0.001 A 
ATOM     31  C   UNL     1     -12.859  11.574  22.071  0.00  0.00    +0.002 A 
ENDBRANCH  12  17
ENDBRANCH   3  12
ENDBRANCH  13   8
TORSDOF 6
ENDMDL
MODEL 10
REMARK VINA RESULT:      -7.4      3.129      9.303
REMARK  Name = 45783592
REMARK  7 active torsions:
REMARK  status: ('A' for Active; 'I' for Inactive)
REMARK    1  A    between atoms: O_1  and  C_14
REMARK    2  A    between atoms: O_1  and  C_27
REMARK    3  A    between atoms: N_3  and  C_12
REMARK    4  A    between atoms: N_4  and  C_28
REMARK    5  A    between atoms: C_8  and  C_13
REMARK    6  A    between atoms: C_12  and  C_17
REMARK    7  A    between atoms: C_24  and  C_29
REMARK                            x       y       z     vdW  Elec       q    Type
REMARK                         _______ _______ _______ _____ _____    ______ ____
ROOT
ATOM      2  O   UNL     1     -15.430   5.994  20.442  0.00  0.00    -0.336 OA
ATOM      5  N   UNL     1     -14.539   6.461  22.443  0.00  0.00    -0.190 NA
ATOM      6  N   UNL     1     -16.102   5.182  21.366  0.00  0.00    -0.056 NA
ATOM     13  C   UNL     1     -14.528   6.714  21.159  0.00  0.00    +0.245 A 
ATOM     24  C   UNL     1     -15.521   5.516  22.523  0.00  0.00    +0.204 A 
ENDROOT
BRANCH  24  29
ATOM      7  N   UNL     1     -17.229   5.016  25.786  0.00  0.00    -0.221 NA
ATOM     27  C   UNL     1     -16.655   3.853  26.165  0.00  0.00    +0.215 A 
ATOM     29  C   UNL     1     -15.895   4.923  23.772  0.00  0.00    +0.041 A 
ATOM     32  C   UNL     1     -15.708   3.174  25.414  0.00  0.00    +0.068 A 
ATOM     33  C   UNL     1     -15.326   3.727  24.196  0.00  0.00    +0.018 A 
ATOM     34  C   UNL     1     -16.833   5.522  24.596  0.00  0.00    +0.126 A 
BRANCH  27   1
ATOM      1  O   UNL     1     -17.047   3.330  27.368  0.00  0.00    -0.473 OA
BRANCH   1  14
ATOM     14  C   UNL     1     -16.055   2.637  28.118  0.00  0.00    +0.175 C 
ATOM     15  C   UNL     1     -15.485   3.561  29.193  0.00  0.00    +0.044 C 
ATOM     16  C   UNL     1     -16.661   1.373  28.725  0.00  0.00    +0.044 C 
ATOM     18  C   UNL     1     -14.486   2.834  30.087  0.00  0.00    +0.004 C 
ATOM     19  C   UNL     1     -15.663   0.646  29.619  0.00  0.00    +0.004 C 
ATOM     20  C   UNL     1     -15.091   1.570  30.693  0.00  0.00    +0.000 C 
ENDBRANCH   1  14
ENDBRANCH  27   1
ENDBRANCH  24  29
BRANCH  13   8
ATOM      3  N   UNL     1     -13.054   8.716  21.236  0.00  0.00    -0.287 NA
ATOM      8  C   UNL     1     -13.664   7.682  20.379  0.00  0.00    +0.146 C 
ATOM      9  C   UNL     1     -12.472   6.992  19.689  0.00  0.00    +0.030 C 
ATOM     10  C   UNL     1     -11.792   9.092  20.598  0.00  0.00    +0.085 C 
ATOM     11  C   UNL     1     -11.242   7.746  20.173  0.00  0.00    +0.017 C 
BRANCH   3  12
ATOM     12  C   UNL     1     -13.921   9.866  21.456  0.00  0.00    +0.122 C 
BRANCH  12  17
ATOM      4  N   UNL     1     -15.521  10.004  24.767  0.00  0.00    -0.349 N 
ATOM     17  C   UNL     1     -14.317  10.003  22.902  0.00  0.00    -0.008 A 
ATOM     21  C   UNL     1     -13.469  10.388  23.979  0.00  0.00    +0.004 A 
ATOM     22  C   UNL     1     -15.571   9.774  23.418  0.00  0.00    +0.091 A 
ATOM     23  C   UNL     1     -14.250  10.381  25.137  0.00  0.00    +0.049 A 
ATOM     25  C   UNL     1     -12.109  10.744  24.080  0.00  0.00    +0.010 A 
ATOM     26  C   UNL     1     -13.736  10.713  26.396  0.00  0.00    +0.026 A 
ATOM     28  C   UNL     1     -16.651   9.867  25.660  0.00  0.00    +0.149 C 
ATOM     30  C   UNL     1     -11.582  11.078  25.332  0.00  0.00    +0.001 A 
ATOM     31  C   UNL     1     -12.385  11.063  26.471  0.00  0.00    +0.002 A 
ENDBRANCH  12  17
ENDBRANCH   3  12
ENDBRANCH  13   8
TORSDOF 6
ENDMDL
