MODEL 1
REMARK VINA RESULT:      -6.4      0.000      0.000
REMARK  Name = 26742943
REMARK  12 active torsions:
REMARK  status: ('A' for Active; 'I' for Inactive)
REMARK    1  A    between atoms: N_5  and  C_20
REMARK    2  A    between atoms: N_7  and  C_22
REMARK    3  A    between atoms: C_8  and  C_14
REMARK    4  A    between atoms: C_9  and  C_12
REMARK    5  A    between atoms: C_12  and  C_15
REMARK    6  A    between atoms: C_14  and  C_16
REMARK    7  A    between atoms: C_18  and  C_19
REMARK    8  A    between atoms: C_19  and  C_21
REMARK    9  A    between atoms: C_20  and  C_22
REMARK   10  A    between atoms: C_21  and  C_23
REMARK   11  A    between atoms: C_23  and  C_24
REMARK   12  A    between atoms: C_25  and  C_26
REMARK                            x       y       z     vdW  Elec       q    Type
REMARK                         _______ _______ _______ _____ _____    ______ ____
ROOT
ATOM      4  N   UNL     1      14.077   8.877  16.337  0.00  0.00    -0.316 NA
ATOM      8  C   UNL     1      13.057   8.887  19.106  0.00  0.00    +0.004 C 
ATOM      9  C   UNL     1      14.316   8.094  18.680  0.00  0.00    +0.012 C 
ATOM     10  C   UNL     1      12.844  10.053  18.125  0.00  0.00    +0.019 C 
ATOM     11  C   UNL     1      14.268   7.706  17.193  0.00  0.00    +0.085 C 
ATOM     13  C   UNL     1      12.848   9.597  16.667  0.00  0.00    +0.081 C 
ATOM     27  H   UNL     1      14.041   8.579  15.362  0.00  0.00    +0.122 HD
ENDROOT
BRANCH   9  12
ATOM     12  C   UNL     1      14.569   6.861  19.550  0.00  0.00    +0.064 C 
BRANCH  12  15
ATOM      1  O   UNL     1      17.901   5.602  19.032  0.00  0.00    -0.359 OA
ATOM      6  N   UNL     1      16.555   5.695  18.697  0.00  0.00    -0.083 NA
ATOM     15  C   UNL     1      16.030   6.522  19.606  0.00  0.00    +0.084 A 
ATOM     17  C   UNL     1      16.986   6.976  20.531  0.00  0.00    +0.071 A 
ATOM     18  C   UNL     1      18.145   6.368  20.125  0.00  0.00    +0.138 A 
BRANCH  18  19
ATOM     19  C   UNL     1      19.527   6.385  20.619  0.00  0.00    +0.077 C 
BRANCH  19  21
ATOM     21  C   UNL     1      19.623   6.646  22.139  0.00  0.00    +0.007 C 
BRANCH  21  23
ATOM     23  C   UNL     1      20.946   6.164  22.735  0.00  0.00    -0.003 C 
ATOM     24  C   UNL     1      21.478   4.945  21.998  0.00  0.00    +0.004 C 
ENDBRANCH  21  23
ENDBRANCH  19  21
ENDBRANCH  18  19
ENDBRANCH  12  15
ENDBRANCH   9  12
BRANCH   8  14
ATOM     14  C   UNL     1      11.789   8.032  19.219  0.00  0.00    +0.099 C 
BRANCH  14  16
ATOM      2  O   UNL     1      10.984   6.768  21.119  0.00  0.00    -0.276 OA
ATOM      5  N   UNL     1      11.420   9.038  21.360  0.00  0.00    -0.314 N 
ATOM     16  C   UNL     1      11.351   7.845  20.657  0.00  0.00    +0.213 C 
ATOM     28  H   UNL     1      11.746   9.877  20.887  0.00  0.00    +0.149 HD
BRANCH   5  20
ATOM     20  C   UNL     1      11.060   9.154  22.754  0.00  0.00    +0.123 C 
BRANCH  20  22
ATOM     22  C   UNL     1      10.847  10.601  23.168  0.00  0.00    +0.123 C 
BRANCH  22   7
ATOM      3  O   UNL     1      12.585  12.918  22.968  0.00  0.00    -0.276 OA
ATOM      7  N   UNL     1      10.972  11.507  22.057  0.00  0.00    -0.314 N 
ATOM     25  C   UNL     1      11.834  12.595  22.052  0.00  0.00    +0.210 C 
ATOM     26  C   UNL     1      11.784  13.361  20.757  0.00  0.00    +0.109 C 
ATOM     29  H   UNL     1      10.406  11.322  21.234  0.00  0.00    +0.149 HD
ENDBRANCH  22   7
ENDBRANCH  20  22
ENDBRANCH   5  20
ENDBRANCH  14  16
ENDBRANCH   8  14
TORSDOF 10
ENDMDL
MODEL 2
REMARK VINA RESULT:      -6.3      1.519      1.699
REMARK  Name = 26742943
REMARK  12 active torsions:
REMARK  status: ('A' for Active; 'I' for Inactive)
REMARK    1  A    between atoms: N_5  and  C_20
REMARK    2  A    between atoms: N_7  and  C_22
REMARK    3  A    between atoms: C_8  and  C_14
REMARK    4  A    between atoms: C_9  and  C_12
REMARK    5  A    between atoms: C_12  and  C_15
REMARK    6  A    between atoms: C_14  and  C_16
REMARK    7  A    between atoms: C_18  and  C_19
REMARK    8  A    between atoms: C_19  and  C_21
REMARK    9  A    between atoms: C_20  and  C_22
REMARK   10  A    between atoms: C_21  and  C_23
REMARK   11  A    between atoms: C_23  and  C_24
REMARK   12  A    between atoms: C_25  and  C_26
REMARK                            x       y       z     vdW  Elec       q    Type
REMARK                         _______ _______ _______ _____ _____    ______ ____
ROOT
ATOM      4  N   UNL     1      14.156   8.870  15.958  0.00  0.00    -0.316 NA
ATOM      8  C   UNL     1      13.147   9.136  18.719  0.00  0.00    +0.004 C 
ATOM      9  C   UNL     1      14.301   8.178  18.338  0.00  0.00    +0.012 C 
ATOM     10  C   UNL     1      13.075  10.270  17.682  0.00  0.00    +0.019 C 
ATOM     11  C   UNL     1      14.206   7.727  16.871  0.00  0.00    +0.085 C 
ATOM     13  C   UNL     1      13.024   9.747  16.247  0.00  0.00    +0.081 C 
ATOM     27  H   UNL     1      14.084   8.531  14.999  0.00  0.00    +0.122 HD
ENDROOT
BRANCH   9  12
ATOM     12  C   UNL     1      14.404   6.967  19.268  0.00  0.00    +0.064 C 
BRANCH  12  15
ATOM      1  O   UNL     1      17.790   5.750  19.379  0.00  0.00    -0.359 OA
ATOM      6  N   UNL     1      16.528   5.823  18.802  0.00  0.00    -0.083 NA
ATOM     15  C   UNL     1      15.835   6.648  19.593  0.00  0.00    +0.084 A 
ATOM     17  C   UNL     1      16.600   7.120  20.673  0.00  0.00    +0.071 A 
ATOM     18  C   UNL     1      17.821   6.526  20.491  0.00  0.00    +0.138 A 
BRANCH  18  19
ATOM     19  C   UNL     1      19.089   6.565  21.229  0.00  0.00    +0.077 C 
BRANCH  19  21
ATOM     21  C   UNL     1      20.189   5.690  20.588  0.00  0.00    +0.007 C 
BRANCH  21  23
ATOM     23  C   UNL     1      21.159   5.115  21.621  0.00  0.00    -0.003 C 
ATOM     24  C   UNL     1      21.320   6.046  22.812  0.00  0.00    +0.004 C 
ENDBRANCH  21  23
ENDBRANCH  19  21
ENDBRANCH  18  19
ENDBRANCH  12  15
ENDBRANCH   9  12
BRANCH   8  14
ATOM     14  C   UNL     1      11.786   8.445  18.866  0.00  0.00    +0.099 C 
BRANCH  14  16
ATOM      2  O   UNL     1      10.556   7.666  20.798  0.00  0.00    -0.276 OA
ATOM      5  N   UNL     1      11.637   9.721  20.887  0.00  0.00    -0.314 N 
ATOM     16  C   UNL     1      11.247   8.537  20.278  0.00  0.00    +0.213 C 
ATOM     28  H   UNL     1      12.218  10.377  20.372  0.00  0.00    +0.149 HD
BRANCH   5  20
ATOM     20  C   UNL     1      11.264  10.075  22.237  0.00  0.00    +0.123 C 
BRANCH  20  22
ATOM     22  C   UNL     1      12.310  10.950  22.906  0.00  0.00    +0.123 C 
BRANCH  22   7
ATOM      3  O   UNL     1      14.603   9.200  22.574  0.00  0.00    -0.276 OA
ATOM      7  N   UNL     1      13.458  11.162  22.064  0.00  0.00    -0.314 N 
ATOM     25  C   UNL     1      14.513  10.265  21.970  0.00  0.00    +0.210 C 
ATOM     26  C   UNL     1      15.570  10.720  20.999  0.00  0.00    +0.109 C 
ATOM     29  H   UNL     1      13.480  12.009  21.502  0.00  0.00    +0.149 HD
ENDBRANCH  22   7
ENDBRANCH  20  22
ENDBRANCH   5  20
ENDBRANCH  14  16
ENDBRANCH   8  14
TORSDOF 10
ENDMDL
MODEL 3
REMARK VINA RESULT:      -6.2      1.825      2.542
REMARK  Name = 26742943
REMARK  12 active torsions:
REMARK  status: ('A' for Active; 'I' for Inactive)
REMARK    1  A    between atoms: N_5  and  C_20
REMARK    2  A    between atoms: N_7  and  C_22
REMARK    3  A    between atoms: C_8  and  C_14
REMARK    4  A    between atoms: C_9  and  C_12
REMARK    5  A    between atoms: C_12  and  C_15
REMARK    6  A    between atoms: C_14  and  C_16
REMARK    7  A    between atoms: C_18  and  C_19
REMARK    8  A    between atoms: C_19  and  C_21
REMARK    9  A    between atoms: C_20  and  C_22
REMARK   10  A    between atoms: C_21  and  C_23
REMARK   11  A    between atoms: C_23  and  C_24
REMARK   12  A    between atoms: C_25  and  C_26
REMARK                            x       y       z     vdW  Elec       q    Type
REMARK                         _______ _______ _______ _____ _____    ______ ____
ROOT
ATOM      4  N   UNL     1      11.947   7.197  17.851  0.00  0.00    -0.316 NA
ATOM      8  C   UNL     1      13.897   8.904  19.264  0.00  0.00    +0.004 C 
ATOM      9  C   UNL     1      13.998   7.359  19.241  0.00  0.00    +0.012 C 
ATOM     10  C   UNL     1      13.104   9.372  18.032  0.00  0.00    +0.019 C 
ATOM     11  C   UNL     1      12.620   6.702  19.053  0.00  0.00    +0.085 C 
ATOM     13  C   UNL     1      11.767   8.647  17.888  0.00  0.00    +0.081 C 
ATOM     27  H   UNL     1      11.036   6.747  17.766  0.00  0.00    +0.122 HD
ENDROOT
BRANCH   9  12
ATOM     12  C   UNL     1      14.702   6.788  20.473  0.00  0.00    +0.064 C 
BRANCH  12  15
ATOM      1  O   UNL     1      17.863   5.779  19.077  0.00  0.00    -0.359 OA
ATOM      6  N   UNL     1      16.482   5.924  19.017  0.00  0.00    -0.083 NA
ATOM     15  C   UNL     1      16.143   6.479  20.184  0.00  0.00    +0.084 A 
ATOM     17  C   UNL     1      17.256   6.703  21.013  0.00  0.00    +0.071 A 
ATOM     18  C   UNL     1      18.312   6.246  20.269  0.00  0.00    +0.138 A 
BRANCH  18  19
ATOM     19  C   UNL     1      19.759   6.167  20.502  0.00  0.00    +0.077 C 
BRANCH  19  21
ATOM     21  C   UNL     1      20.317   4.733  20.366  0.00  0.00    +0.007 C 
BRANCH  21  23
ATOM     23  C   UNL     1      21.354   4.402  21.440  0.00  0.00    -0.003 C 
ATOM     24  C   UNL     1      21.773   5.643  22.210  0.00  0.00    +0.004 C 
ENDBRANCH  21  23
ENDBRANCH  19  21
ENDBRANCH  18  19
ENDBRANCH  12  15
ENDBRANCH   9  12
BRANCH   8  14
ATOM     14  C   UNL     1      13.287   9.470  20.552  0.00  0.00    +0.099 C 
BRANCH  14  16
ATOM      2  O   UNL     1      14.407  11.610  20.413  0.00  0.00    -0.276 OA
ATOM      5  N   UNL     1      12.137  11.540  20.908  0.00  0.00    -0.314 N 
ATOM     16  C   UNL     1      13.371  10.981  20.609  0.00  0.00    +0.213 C 
ATOM     28  H   UNL     1      11.335  10.930  21.045  0.00  0.00    +0.149 HD
BRANCH   5  20
ATOM     20  C   UNL     1      11.923  12.964  21.027  0.00  0.00    +0.123 C 
BRANCH  20  22
ATOM     22  C   UNL     1      10.664  13.286  21.814  0.00  0.00    +0.123 C 
BRANCH  22   7
ATOM      3  O   UNL     1      10.653  10.902  23.469  0.00  0.00    -0.276 OA
ATOM      7  N   UNL     1      10.877  13.207  23.235  0.00  0.00    -0.314 N 
ATOM     25  C   UNL     1      10.853  12.016  23.946  0.00  0.00    +0.210 C 
ATOM     26  C   UNL     1      11.131  12.215  25.412  0.00  0.00    +0.109 C 
ATOM     29  H   UNL     1      11.070  14.073  23.731  0.00  0.00    +0.149 HD
ENDBRANCH  22   7
ENDBRANCH  20  22
ENDBRANCH   5  20
ENDBRANCH  14  16
ENDBRANCH   8  14
TORSDOF 10
ENDMDL
MODEL 4
REMARK VINA RESULT:      -6.0      2.540      4.487
REMARK  Name = 26742943
REMARK  12 active torsions:
REMARK  status: ('A' for Active; 'I' for Inactive)
REMARK    1  A    between atoms: N_5  and  C_20
REMARK    2  A    between atoms: N_7  and  C_22
REMARK    3  A    between atoms: C_8  and  C_14
REMARK    4  A    between atoms: C_9  and  C_12
REMARK    5  A    between atoms: C_12  and  C_15
REMARK    6  A    between atoms: C_14  and  C_16
REMARK    7  A    between atoms: C_18  and  C_19
REMARK    8  A    between atoms: C_19  and  C_21
REMARK    9  A    between atoms: C_20  and  C_22
REMARK   10  A    between atoms: C_21  and  C_23
REMARK   11  A    between atoms: C_23  and  C_24
REMARK   12  A    between atoms: C_25  and  C_26
REMARK                            x       y       z     vdW  Elec       q    Type
REMARK                         _______ _______ _______ _____ _____    ______ ____
ROOT
ATOM      4  N   UNL     1      11.508   9.042  23.042  0.00  0.00    -0.316 NA
ATOM      8  C   UNL     1      12.031   7.835  20.400  0.00  0.00    +0.004 C 
ATOM      9  C   UNL     1      13.100   8.636  21.181  0.00  0.00    +0.012 C 
ATOM     10  C   UNL     1      11.000   7.273  21.395  0.00  0.00    +0.019 C 
ATOM     11  C   UNL     1      12.461   9.668  22.125  0.00  0.00    +0.085 C 
ATOM     13  C   UNL     1      10.440   8.347  22.325  0.00  0.00    +0.081 C 
ATOM     27  H   UNL     1      11.099   9.758  23.643  0.00  0.00    +0.122 HD
ENDROOT
BRANCH   9  12
ATOM     12  C   UNL     1      14.130   9.306  20.269  0.00  0.00    +0.064 C 
BRANCH  12  15
ATOM      1  O   UNL     1      17.574   8.420  20.823  0.00  0.00    -0.359 OA
ATOM      6  N   UNL     1      16.514   9.318  20.859  0.00  0.00    -0.083 NA
ATOM     15  C   UNL     1      15.470   8.638  20.376  0.00  0.00    +0.084 A 
ATOM     17  C   UNL     1      15.808   7.321  20.021  0.00  0.00    +0.071 A 
ATOM     18  C   UNL     1      17.142   7.235  20.322  0.00  0.00    +0.138 A 
BRANCH  18  19
ATOM     19  C   UNL     1      18.141   6.165  20.213  0.00  0.00    +0.077 C 
BRANCH  19  21
ATOM     21  C   UNL     1      19.585   6.660  20.448  0.00  0.00    +0.007 C 
BRANCH  21  23
ATOM     23  C   UNL     1      20.242   5.999  21.661  0.00  0.00    -0.003 C 
ATOM     24  C   UNL     1      19.985   6.790  22.933  0.00  0.00    +0.004 C 
ENDBRANCH  21  23
ENDBRANCH  19  21
ENDBRANCH  18  19
ENDBRANCH  12  15
ENDBRANCH   9  12
BRANCH   8  14
ATOM     14  C   UNL     1      11.337   8.636  19.292  0.00  0.00    +0.099 C 
BRANCH  14  16
ATOM      2  O   UNL     1      12.203   7.162  17.580  0.00  0.00    -0.276 OA
ATOM      5  N   UNL     1      11.939   9.423  17.112  0.00  0.00    -0.314 N 
ATOM     16  C   UNL     1      11.873   8.296  17.917  0.00  0.00    +0.213 C 
ATOM     28  H   UNL     1      11.634  10.318  17.484  0.00  0.00    +0.149 HD
BRANCH   5  20
ATOM     20  C   UNL     1      12.416   9.392  15.748  0.00  0.00    +0.123 C 
BRANCH  20  22
ATOM     22  C   UNL     1      13.554  10.372  15.521  0.00  0.00    +0.123 C 
BRANCH  22   7
ATOM      3  O   UNL     1      15.193  12.767  15.595  0.00  0.00    -0.276 OA
ATOM      7  N   UNL     1      13.697  11.300  16.611  0.00  0.00    -0.314 N 
ATOM     25  C   UNL     1      14.509  12.424  16.556  0.00  0.00    +0.210 C 
ATOM     26  C   UNL     1      14.455  13.236  17.822  0.00  0.00    +0.109 C 
ATOM     29  H   UNL     1      13.159  11.122  17.455  0.00  0.00    +0.149 HD
ENDBRANCH  22   7
ENDBRANCH  20  22
ENDBRANCH   5  20
ENDBRANCH  14  16
ENDBRANCH   8  14
TORSDOF 10
ENDMDL
MODEL 5
REMARK VINA RESULT:      -5.8     25.498     27.453
REMARK  Name = 26742943
REMARK  12 active torsions:
REMARK  status: ('A' for Active; 'I' for Inactive)
REMARK    1  A    between atoms: N_5  and  C_20
REMARK    2  A    between atoms: N_7  and  C_22
REMARK    3  A    between atoms: C_8  and  C_14
REMARK    4  A    between atoms: C_9  and  C_12
REMARK    5  A    between atoms: C_12  and  C_15
REMARK    6  A    between atoms: C_14  and  C_16
REMARK    7  A    between atoms: C_18  and  C_19
REMARK    8  A    between atoms: C_19  and  C_21
REMARK    9  A    between atoms: C_20  and  C_22
REMARK   10  A    between atoms: C_21  and  C_23
REMARK   11  A    between atoms: C_23  and  C_24
REMARK   12  A    between atoms: C_25  and  C_26
REMARK                            x       y       z     vdW  Elec       q    Type
REMARK                         _______ _______ _______ _____ _____    ______ ____
ROOT
ATOM      4  N   UNL     1     -14.090   4.379  21.955  0.00  0.00    -0.316 NA
ATOM      8  C   UNL     1     -14.229   7.177  21.027  0.00  0.00    +0.004 C 
ATOM      9  C   UNL     1     -12.922   6.349  20.996  0.00  0.00    +0.012 C 
ATOM     10  C   UNL     1     -15.431   6.218  20.995  0.00  0.00    +0.019 C 
ATOM     11  C   UNL     1     -12.919   5.250  22.071  0.00  0.00    +0.085 C 
ATOM     13  C   UNL     1     -15.339   5.131  22.064  0.00  0.00    +0.081 C 
ATOM     27  H   UNL     1     -14.058   3.671  22.689  0.00  0.00    +0.122 HD
ENDROOT
BRANCH   9  12
ATOM     12  C   UNL     1     -11.664   7.212  21.106  0.00  0.00    +0.064 C 
BRANCH  12  15
ATOM      1  O   UNL     1     -11.102   7.968  17.632  0.00  0.00    -0.359 OA
ATOM      6  N   UNL     1     -11.563   7.145  18.652  0.00  0.00    -0.083 NA
ATOM     15  C   UNL     1     -11.294   7.811  19.779  0.00  0.00    +0.084 A 
ATOM     17  C   UNL     1     -10.670   9.046  19.535  0.00  0.00    +0.071 A 
ATOM     18  C   UNL     1     -10.572   9.096  18.169  0.00  0.00    +0.138 A 
BRANCH  18  19
ATOM     19  C   UNL     1     -10.034  10.083  17.225  0.00  0.00    +0.077 C 
BRANCH  19  21
ATOM     21  C   UNL     1     -10.095  11.530  17.762  0.00  0.00    +0.007 C 
BRANCH  21  23
ATOM     23  C   UNL     1     -11.509  12.111  17.723  0.00  0.00    -0.003 C 
ATOM     24  C   UNL     1     -11.964  12.564  19.101  0.00  0.00    +0.004 C 
ENDBRANCH  21  23
ENDBRANCH  19  21
ENDBRANCH  18  19
ENDBRANCH  12  15
ENDBRANCH   9  12
BRANCH   8  14
ATOM     14  C   UNL     1     -14.330   8.138  22.218  0.00  0.00    +0.099 C 
BRANCH  14  16
ATOM      2  O   UNL     1     -14.140  10.085  20.794  0.00  0.00    -0.276 OA
ATOM      5  N   UNL     1     -13.145  10.106  22.894  0.00  0.00    -0.314 N 
ATOM     16  C   UNL     1     -13.879   9.539  21.863  0.00  0.00    +0.213 C 
ATOM     28  H   UNL     1     -12.990   9.572  23.746  0.00  0.00    +0.149 HD
BRANCH   5  20
ATOM     20  C   UNL     1     -12.587  11.437  22.828  0.00  0.00    +0.123 C 
BRANCH  20  22
ATOM     22  C   UNL     1     -12.619  12.134  24.177  0.00  0.00    +0.123 C 
BRANCH  22   7
ATOM      3  O   UNL     1     -12.830   9.989  26.121  0.00  0.00    -0.276 OA
ATOM      7  N   UNL     1     -11.591  11.652  25.062  0.00  0.00    -0.314 N 
ATOM     25  C   UNL     1     -11.785  10.615  25.964  0.00  0.00    +0.210 C 
ATOM     26  C   UNL     1     -10.541  10.294  26.748  0.00  0.00    +0.109 C 
ATOM     29  H   UNL     1     -10.676  12.089  25.003  0.00  0.00    +0.149 HD
ENDBRANCH  22   7
ENDBRANCH  20  22
ENDBRANCH   5  20
ENDBRANCH  14  16
ENDBRANCH   8  14
TORSDOF 10
ENDMDL
MODEL 6
REMARK VINA RESULT:      -5.7     28.108     31.620
REMARK  Name = 26742943
REMARK  12 active torsions:
REMARK  status: ('A' for Active; 'I' for Inactive)
REMARK    1  A    between atoms: N_5  and  C_20
REMARK    2  A    between atoms: N_7  and  C_22
REMARK    3  A    between atoms: C_8  and  C_14
REMARK    4  A    between atoms: C_9  and  C_12
REMARK    5  A    between atoms: C_12  and  C_15
REMARK    6  A    between atoms: C_14  and  C_16
REMARK    7  A    between atoms: C_18  and  C_19
REMARK    8  A    between atoms: C_19  and  C_21
REMARK    9  A    between atoms: C_20  and  C_22
REMARK   10  A    between atoms: C_21  and  C_23
REMARK   11  A    between atoms: C_23  and  C_24
REMARK   12  A    between atoms: C_25  and  C_26
REMARK                            x       y       z     vdW  Elec       q    Type
REMARK                         _______ _______ _______ _____ _____    ______ ____
ROOT
ATOM      4  N   UNL     1     -14.577   3.204  34.672  0.00  0.00    -0.316 NA
ATOM      8  C   UNL     1     -14.409   4.215  31.904  0.00  0.00    +0.004 C 
ATOM      9  C   UNL     1     -14.214   5.125  33.141  0.00  0.00    +0.012 C 
ATOM     10  C   UNL     1     -14.078   2.764  32.293  0.00  0.00    +0.019 C 
ATOM     11  C   UNL     1     -14.964   4.582  34.369  0.00  0.00    +0.085 C 
ATOM     13  C   UNL     1     -14.828   2.309  33.543  0.00  0.00    +0.081 C 
ATOM     27  H   UNL     1     -15.100   2.877  35.484  0.00  0.00    +0.122 HD
ENDROOT
BRANCH   9  12
ATOM     12  C   UNL     1     -14.597   6.582  32.878  0.00  0.00    +0.064 C 
BRANCH  12  15
ATOM      1  O   UNL     1     -11.981   8.654  34.226  0.00  0.00    -0.359 OA
ATOM      6  N   UNL     1     -13.066   7.797  34.366  0.00  0.00    -0.083 NA
ATOM     15  C   UNL     1     -13.436   7.504  33.116  0.00  0.00    +0.084 A 
ATOM     17  C   UNL     1     -12.631   8.141  32.156  0.00  0.00    +0.071 A 
ATOM     18  C   UNL     1     -11.731   8.852  32.907  0.00  0.00    +0.138 A 
BRANCH  18  19
ATOM     19  C   UNL     1     -10.609   9.739  32.577  0.00  0.00    +0.077 C 
BRANCH  19  21
ATOM     21  C   UNL     1      -9.659   9.982  33.771  0.00  0.00    +0.007 C 
BRANCH  21  23
ATOM     23  C   UNL     1      -8.678  11.127  33.517  0.00  0.00    -0.003 C 
ATOM     24  C   UNL     1      -9.053  11.915  32.272  0.00  0.00    +0.004 C 
ENDBRANCH  21  23
ENDBRANCH  19  21
ENDBRANCH  18  19
ENDBRANCH  12  15
ENDBRANCH   9  12
BRANCH   8  14
ATOM     14  C   UNL     1     -15.804   4.306  31.276  0.00  0.00    +0.099 C 
BRANCH  14  16
ATOM      2  O   UNL     1     -14.945   3.672  29.105  0.00  0.00    -0.276 OA
ATOM      5  N   UNL     1     -17.083   3.005  29.725  0.00  0.00    -0.314 N 
ATOM     16  C   UNL     1     -15.865   3.640  29.917  0.00  0.00    +0.213 C 
ATOM     28  H   UNL     1     -17.779   3.030  30.465  0.00  0.00    +0.149 HD
BRANCH   5  20
ATOM     20  C   UNL     1     -17.417   2.288  28.516  0.00  0.00    +0.123 C 
BRANCH  20  22
ATOM     22  C   UNL     1     -17.033   0.820  28.600  0.00  0.00    +0.123 C 
BRANCH  22   7
ATOM      3  O   UNL     1     -15.786  -0.668  30.758  0.00  0.00    -0.276 OA
ATOM      7  N   UNL     1     -15.626   0.640  28.839  0.00  0.00    -0.314 N 
ATOM     25  C   UNL     1     -15.119  -0.092  29.903  0.00  0.00    +0.210 C 
ATOM     26  C   UNL     1     -13.614  -0.141  29.903  0.00  0.00    +0.109 C 
ATOM     29  H   UNL     1     -14.979   1.062  28.178  0.00  0.00    +0.149 HD
ENDBRANCH  22   7
ENDBRANCH  20  22
ENDBRANCH   5  20
ENDBRANCH  14  16
ENDBRANCH   8  14
TORSDOF 10
ENDMDL
MODEL 7
REMARK VINA RESULT:      -5.7     26.230     28.758
REMARK  Name = 26742943
REMARK  12 active torsions:
REMARK  status: ('A' for Active; 'I' for Inactive)
REMARK    1  A    between atoms: N_5  and  C_20
REMARK    2  A    between atoms: N_7  and  C_22
REMARK    3  A    between atoms: C_8  and  C_14
REMARK    4  A    between atoms: C_9  and  C_12
REMARK    5  A    between atoms: C_12  and  C_15
REMARK    6  A    between atoms: C_14  and  C_16
REMARK    7  A    between atoms: C_18  and  C_19
REMARK    8  A    between atoms: C_19  and  C_21
REMARK    9  A    between atoms: C_20  and  C_22
REMARK   10  A    between atoms: C_21  and  C_23
REMARK   11  A    between atoms: C_23  and  C_24
REMARK   12  A    between atoms: C_25  and  C_26
REMARK                            x       y       z     vdW  Elec       q    Type
REMARK                         _______ _______ _______ _____ _____    ______ ____
ROOT
ATOM      4  N   UNL     1      -6.114 -13.206  18.501  0.00  0.00    -0.316 NA
ATOM      8  C   UNL     1      -6.540 -11.011  16.575  0.00  0.00    +0.004 C 
ATOM      9  C   UNL     1      -5.131 -11.481  17.011  0.00  0.00    +0.012 C 
ATOM     10  C   UNL     1      -7.536 -12.168  16.769  0.00  0.00    +0.019 C 
ATOM     11  C   UNL     1      -5.150 -12.108  18.414  0.00  0.00    +0.085 C 
ATOM     13  C   UNL     1      -7.469 -12.767  18.172  0.00  0.00    +0.081 C 
ATOM     27  H   UNL     1      -6.104 -13.590  19.446  0.00  0.00    +0.122 HD
ENDROOT
BRANCH   9  12
ATOM     12  C   UNL     1      -4.080 -10.372  16.931  0.00  0.00    +0.064 C 
BRANCH  12  15
ATOM      1  O   UNL     1      -1.337 -10.658  14.619  0.00  0.00    -0.359 OA
ATOM      6  N   UNL     1      -1.858 -10.425  15.886  0.00  0.00    -0.083 NA
ATOM     15  C   UNL     1      -3.180 -10.557  15.744  0.00  0.00    +0.084 A 
ATOM     17  C   UNL     1      -3.547 -10.869  14.424  0.00  0.00    +0.071 A 
ATOM     18  C   UNL     1      -2.351 -10.921  13.757  0.00  0.00    +0.138 A 
BRANCH  18  19
ATOM     19  C   UNL     1      -1.975 -11.193  12.365  0.00  0.00    +0.077 C 
BRANCH  19  21
ATOM     21  C   UNL     1      -2.939 -10.550  11.342  0.00  0.00    +0.007 C 
BRANCH  21  23
ATOM     23  C   UNL     1      -2.366  -9.278  10.715  0.00  0.00    -0.003 C 
ATOM     24  C   UNL     1      -0.906  -9.080  11.093  0.00  0.00    +0.004 C 
ENDBRANCH  21  23
ENDBRANCH  19  21
ENDBRANCH  18  19
ENDBRANCH  12  15
ENDBRANCH   9  12
BRANCH   8  14
ATOM     14  C   UNL     1      -7.027  -9.747  17.294  0.00  0.00    +0.099 C 
BRANCH  14  16
ATOM      2  O   UNL     1      -8.594  -9.327  15.499  0.00  0.00    -0.276 OA
ATOM      5  N   UNL     1      -9.062  -8.532  17.632  0.00  0.00    -0.314 N 
ATOM     16  C   UNL     1      -8.298  -9.195  16.683  0.00  0.00    +0.213 C 
ATOM     28  H   UNL     1      -8.732  -8.485  18.592  0.00  0.00    +0.149 HD
BRANCH   5  20
ATOM     20  C   UNL     1     -10.327  -7.904  17.328  0.00  0.00    +0.123 C 
BRANCH  20  22
ATOM     22  C   UNL     1     -11.504  -8.807  17.657  0.00  0.00    +0.123 C 
BRANCH  22   7
ATOM      3  O   UNL     1     -10.976 -11.661  17.708  0.00  0.00    -0.276 OA
ATOM      7  N   UNL     1     -11.252  -9.628  18.811  0.00  0.00    -0.314 N 
ATOM     25  C   UNL     1     -11.008 -10.993  18.738  0.00  0.00    +0.210 C 
ATOM     26  C   UNL     1     -10.751 -11.604  20.090  0.00  0.00    +0.109 C 
ATOM     29  H   UNL     1     -11.238  -9.173  19.719  0.00  0.00    +0.149 HD
ENDBRANCH  22   7
ENDBRANCH  20  22
ENDBRANCH   5  20
ENDBRANCH  14  16
ENDBRANCH   8  14
TORSDOF 10
ENDMDL
MODEL 8
REMARK VINA RESULT:      -5.7     17.703     21.225
REMARK  Name = 26742943
REMARK  12 active torsions:
REMARK  status: ('A' for Active; 'I' for Inactive)
REMARK    1  A    between atoms: N_5  and  C_20
REMARK    2  A    between atoms: N_7  and  C_22
REMARK    3  A    between atoms: C_8  and  C_14
REMARK    4  A    between atoms: C_9  and  C_12
REMARK    5  A    between atoms: C_12  and  C_15
REMARK    6  A    between atoms: C_14  and  C_16
REMARK    7  A    between atoms: C_18  and  C_19
REMARK    8  A    between atoms: C_19  and  C_21
REMARK    9  A    between atoms: C_20  and  C_22
REMARK   10  A    between atoms: C_21  and  C_23
REMARK   11  A    between atoms: C_23  and  C_24
REMARK   12  A    between atoms: C_25  and  C_26
REMARK                            x       y       z     vdW  Elec       q    Type
REMARK                         _______ _______ _______ _____ _____    ______ ____
ROOT
ATOM      4  N   UNL     1      15.679   4.009   1.114  0.00  0.00    -0.316 NA
ATOM      8  C   UNL     1      13.132   4.378  -0.330  0.00  0.00    +0.004 C 
ATOM      9  C   UNL     1      13.215   4.293   1.213  0.00  0.00    +0.012 C 
ATOM     10  C   UNL     1      14.488   4.852  -0.879  0.00  0.00    +0.019 C 
ATOM     11  C   UNL     1      14.435   3.478   1.673  0.00  0.00    +0.085 C 
ATOM     13  C   UNL     1      15.655   4.022  -0.348  0.00  0.00    +0.081 C 
ATOM     27  H   UNL     1      16.462   3.438   1.433  0.00  0.00    +0.122 HD
ENDROOT
BRANCH   9  12
ATOM     12  C   UNL     1      11.935   3.752   1.853  0.00  0.00    +0.064 C 
BRANCH  12  15
ATOM      1  O   UNL     1      11.102   6.544   3.965  0.00  0.00    -0.359 OA
ATOM      6  N   UNL     1      11.744   5.979   2.870  0.00  0.00    -0.083 NA
ATOM     15  C   UNL     1      11.413   4.686   2.906  0.00  0.00    +0.084 A 
ATOM     17  C   UNL     1      10.574   4.379   3.991  0.00  0.00    +0.071 A 
ATOM     18  C   UNL     1      10.409   5.582   4.625  0.00  0.00    +0.138 A 
BRANCH  18  19
ATOM     19  C   UNL     1       9.667   6.009   5.817  0.00  0.00    +0.077 C 
BRANCH  19  21
ATOM     21  C   UNL     1       9.572   4.908   6.897  0.00  0.00    +0.007 C 
BRANCH  21  23
ATOM     23  C   UNL     1      10.194   5.335   8.227  0.00  0.00    -0.003 C 
ATOM     24  C   UNL     1       9.453   4.729   9.408  0.00  0.00    +0.004 C 
ENDBRANCH  21  23
ENDBRANCH  19  21
ENDBRANCH  18  19
ENDBRANCH  12  15
ENDBRANCH   9  12
BRANCH   8  14
ATOM     14  C   UNL     1      12.697   3.071  -1.004  0.00  0.00    +0.099 C 
BRANCH  14  16
ATOM      2  O   UNL     1      10.497   4.033  -1.299  0.00  0.00    -0.276 OA
ATOM      5  N   UNL     1      11.110   2.179  -2.559  0.00  0.00    -0.314 N 
ATOM     16  C   UNL     1      11.315   3.174  -1.614  0.00  0.00    +0.213 C 
ATOM     28  H   UNL     1      11.857   1.517  -2.755  0.00  0.00    +0.149 HD
BRANCH   5  20
ATOM     20  C   UNL     1       9.878   2.036  -3.300  0.00  0.00    +0.123 C 
BRANCH  20  22
ATOM     22  C   UNL     1       9.845   2.930  -4.528  0.00  0.00    +0.123 C 
BRANCH  22   7
ATOM      3  O   UNL     1       9.584   5.756  -3.916  0.00  0.00    -0.276 OA
ATOM      7  N   UNL     1       8.650   3.731  -4.584  0.00  0.00    -0.314 N 
ATOM     25  C   UNL     1       8.621   5.083  -4.271  0.00  0.00    +0.210 C 
ATOM     26  C   UNL     1       7.250   5.682  -4.439  0.00  0.00    +0.109 C 
ATOM     29  H   UNL     1       7.793   3.276  -4.886  0.00  0.00    +0.149 HD
ENDBRANCH  22   7
ENDBRANCH  20  22
ENDBRANCH   5  20
ENDBRANCH  14  16
ENDBRANCH   8  14
TORSDOF 10
ENDMDL
MODEL 9
REMARK VINA RESULT:      -5.7     26.662     28.685
REMARK  Name = 26742943
REMARK  12 active torsions:
REMARK  status: ('A' for Active; 'I' for Inactive)
REMARK    1  A    between atoms: N_5  and  C_20
REMARK    2  A    between atoms: N_7  and  C_22
REMARK    3  A    between atoms: C_8  and  C_14
REMARK    4  A    between atoms: C_9  and  C_12
REMARK    5  A    between atoms: C_12  and  C_15
REMARK    6  A    between atoms: C_14  and  C_16
REMARK    7  A    between atoms: C_18  and  C_19
REMARK    8  A    between atoms: C_19  and  C_21
REMARK    9  A    between atoms: C_20  and  C_22
REMARK   10  A    between atoms: C_21  and  C_23
REMARK   11  A    between atoms: C_23  and  C_24
REMARK   12  A    between atoms: C_25  and  C_26
REMARK                            x       y       z     vdW  Elec       q    Type
REMARK                         _______ _______ _______ _____ _____    ______ ____
ROOT
ATOM      4  N   UNL     1      -6.296 -12.749  18.945  0.00  0.00    -0.316 NA
ATOM      8  C   UNL     1      -6.780 -10.871  16.720  0.00  0.00    +0.004 C 
ATOM      9  C   UNL     1      -5.359 -11.271  17.183  0.00  0.00    +0.012 C 
ATOM     10  C   UNL     1      -7.767 -11.984  17.114  0.00  0.00    +0.019 C 
ATOM     11  C   UNL     1      -5.338 -11.678  18.666  0.00  0.00    +0.085 C 
ATOM     13  C   UNL     1      -7.661 -12.362  18.590  0.00  0.00    +0.081 C 
ATOM     27  H   UNL     1      -6.260 -12.984  19.937  0.00  0.00    +0.122 HD
ENDROOT
BRANCH   9  12
ATOM     12  C   UNL     1      -4.313 -10.189  16.908  0.00  0.00    +0.064 C 
BRANCH  12  15
ATOM      1  O   UNL     1      -1.528 -11.309  14.921  0.00  0.00    -0.359 OA
ATOM      6  N   UNL     1      -2.123 -10.990  16.136  0.00  0.00    -0.083 NA
ATOM     15  C   UNL     1      -3.365 -10.610  15.823  0.00  0.00    +0.084 A 
ATOM     17  C   UNL     1      -3.608 -10.666  14.440  0.00  0.00    +0.071 A 
ATOM     18  C   UNL     1      -2.421 -11.112  13.919  0.00  0.00    +0.138 A 
BRANCH  18  19
ATOM     19  C   UNL     1      -1.955 -11.403  12.558  0.00  0.00    +0.077 C 
BRANCH  19  21
ATOM     21  C   UNL     1      -3.017 -11.100  11.477  0.00  0.00    +0.007 C 
BRANCH  21  23
ATOM     23  C   UNL     1      -2.743  -9.791  10.736  0.00  0.00    -0.003 C 
ATOM     24  C   UNL     1      -4.032  -9.051  10.415  0.00  0.00    +0.004 C 
ENDBRANCH  21  23
ENDBRANCH  19  21
ENDBRANCH  18  19
ENDBRANCH  12  15
ENDBRANCH   9  12
BRANCH   8  14
ATOM     14  C   UNL     1      -7.250  -9.512  17.251  0.00  0.00    +0.099 C 
BRANCH  14  16
ATOM      2  O   UNL     1      -8.856  -9.278  15.457  0.00  0.00    -0.276 OA
ATOM      5  N   UNL     1      -9.367  -8.437  17.562  0.00  0.00    -0.314 N 
ATOM     16  C   UNL     1      -8.563  -9.078  16.632  0.00  0.00    +0.213 C 
ATOM     28  H   UNL     1      -9.034  -8.328  18.517  0.00  0.00    +0.149 HD
BRANCH   5  20
ATOM     20  C   UNL     1     -10.677  -7.915  17.247  0.00  0.00    +0.123 C 
BRANCH  20  22
ATOM     22  C   UNL     1     -10.606  -6.750  16.275  0.00  0.00    +0.123 C 
BRANCH  22   7
ATOM      3  O   UNL     1     -13.088  -5.905  15.027  0.00  0.00    -0.276 OA
ATOM      7  N   UNL     1     -11.092  -7.103  14.968  0.00  0.00    -0.314 N 
ATOM     25  C   UNL     1     -12.298  -6.649  14.452  0.00  0.00    +0.210 C 
ATOM     26  C   UNL     1     -12.552  -7.150  13.055  0.00  0.00    +0.109 C 
ATOM     29  H   UNL     1     -10.506  -7.704  14.394  0.00  0.00    +0.149 HD
ENDBRANCH  22   7
ENDBRANCH  20  22
ENDBRANCH   5  20
ENDBRANCH  14  16
ENDBRANCH   8  14
TORSDOF 10
ENDMDL
MODEL 10
REMARK VINA RESULT:      -5.6     25.421     27.661
REMARK  Name = 26742943
REMARK  12 active torsions:
REMARK  status: ('A' for Active; 'I' for Inactive)
REMARK    1  A    between atoms: N_5  and  C_20
REMARK    2  A    between atoms: N_7  and  C_22
REMARK    3  A    between atoms: C_8  and  C_14
REMARK    4  A    between atoms: C_9  and  C_12
REMARK    5  A    between atoms: C_12  and  C_15
REMARK    6  A    between atoms: C_14  and  C_16
REMARK    7  A    between atoms: C_18  and  C_19
REMARK    8  A    between atoms: C_19  and  C_21
REMARK    9  A    between atoms: C_20  and  C_22
REMARK   10  A    between atoms: C_21  and  C_23
REMARK   11  A    between atoms: C_23  and  C_24
REMARK   12  A    between atoms: C_25  and  C_26
REMARK                            x       y       z     vdW  Elec       q    Type
REMARK                         _______ _______ _______ _____ _____    ______ ____
ROOT
ATOM      4  N   UNL     1     -15.450   6.062  22.343  0.00  0.00    -0.316 NA
ATOM      8  C   UNL     1     -12.940   7.228  21.319  0.00  0.00    +0.004 C 
ATOM      9  C   UNL     1     -13.967   8.043  22.141  0.00  0.00    +0.012 C 
ATOM     10  C   UNL     1     -13.101   5.735  21.656  0.00  0.00    +0.019 C 
ATOM     11  C   UNL     1     -15.391   7.481  21.989  0.00  0.00    +0.085 C 
ATOM     13  C   UNL     1     -14.546   5.259  21.522  0.00  0.00    +0.081 C 
ATOM     27  H   UNL     1     -16.405   5.725  22.221  0.00  0.00    +0.122 HD
ENDROOT
BRANCH   9  12
ATOM     12  C   UNL     1     -13.942   9.538  21.816  0.00  0.00    +0.064 C 
BRANCH  12  15
ATOM      1  O   UNL     1     -11.736  11.703  23.660  0.00  0.00    -0.359 OA
ATOM      6  N   UNL     1     -12.229  11.171  22.475  0.00  0.00    -0.083 NA
ATOM     15  C   UNL     1     -13.178  10.309  22.853  0.00  0.00    +0.084 A 
ATOM     17  C   UNL     1     -13.325  10.255  24.249  0.00  0.00    +0.071 A 
ATOM     18  C   UNL     1     -12.395  11.151  24.709  0.00  0.00    +0.138 A 
BRANCH  18  19
ATOM     19  C   UNL     1     -11.996  11.604  26.047  0.00  0.00    +0.077 C 
BRANCH  19  21
ATOM     21  C   UNL     1     -12.313  10.573  27.154  0.00  0.00    +0.007 C 
BRANCH  21  23
ATOM     23  C   UNL     1     -11.078   9.784  27.592  0.00  0.00    -0.003 C 
ATOM     24  C   UNL     1      -9.851  10.175  26.784  0.00  0.00    +0.004 C 
ENDBRANCH  21  23
ENDBRANCH  19  21
ENDBRANCH  18  19
ENDBRANCH  12  15
ENDBRANCH   9  12
BRANCH   8  14
ATOM     14  C   UNL     1     -13.027   7.458  19.806  0.00  0.00    +0.099 C 
BRANCH  14  16
ATOM      2  O   UNL     1     -10.867   8.545  19.876  0.00  0.00    -0.276 OA
ATOM      5  N   UNL     1     -11.617   7.626  17.878  0.00  0.00    -0.314 N 
ATOM     16  C   UNL     1     -11.717   7.945  19.224  0.00  0.00    +0.213 C 
ATOM     28  H   UNL     1     -12.375   7.118  17.430  0.00  0.00    +0.149 HD
BRANCH   5  20
ATOM     20  C   UNL     1     -10.472   7.971  17.068  0.00  0.00    +0.123 C 
BRANCH  20  22
ATOM     22  C   UNL     1     -10.665   9.292  16.343  0.00  0.00    +0.123 C 
BRANCH  22   7
ATOM      3  O   UNL     1     -12.721  11.110  17.288  0.00  0.00    -0.276 OA
ATOM      7  N   UNL     1     -10.498  10.421  17.220  0.00  0.00    -0.314 N 
ATOM     25  C   UNL     1     -11.546  11.239  17.620  0.00  0.00    +0.210 C 
ATOM     26  C   UNL     1     -11.100  12.329  18.556  0.00  0.00    +0.109 C 
ATOM     29  H   UNL     1      -9.564  10.611  17.571  0.00  0.00    +0.149 HD
ENDBRANCH  22   7
ENDBRANCH  20  22
ENDBRANCH   5  20
ENDBRANCH  14  16
ENDBRANCH   8  14
TORSDOF 10
ENDMDL
