REMARK  Name = 7164917
REMARK  7 active torsions:
REMARK  status: ('A' for Active; 'I' for Inactive)
REMARK    1  A    between atoms: N_6  and  C_18
REMARK    2  A    between atoms: N_10  and  C_29
REMARK    3  A    between atoms: C_11  and  C_14
REMARK    4  A    between atoms: C_14  and  C_18
REMARK    5  A    between atoms: C_18  and  C_24
REMARK    6  A    between atoms: C_19  and  C_21
REMARK    7  A    between atoms: C_25  and  C_27
REMARK                            x       y       z     vdW  Elec       q    Type
REMARK                         _______ _______ _______ _____ _____    ______ ____
ROOT
ATOM      4  O   UNL     1       2.919  -1.805  -0.675  0.00  0.00    -0.269 OA
ATOM      5  O   UNL     1      -3.374   0.978  -1.688  0.00  0.00    -0.252 OA
ATOM      7  N   UNL     1       0.606  -1.942  -0.590  0.00  0.00    -0.283 N 
ATOM      8  N   UNL     1      -2.025  -0.693  -0.829  0.00  0.00    -0.282 N 
ATOM     10  N   UNL     1      -4.201  -0.371   0.019  0.00  0.00    -0.269 N 
ATOM     19  C   UNL     1       0.448  -0.587  -1.125  0.00  0.00    +0.179 C 
ATOM     20  C   UNL     1      -0.929  -0.348  -1.739  0.00  0.00    +0.141 C 
ATOM     22  C   UNL     1      -0.627  -2.701  -0.336  0.00  0.00    +0.128 C 
ATOM     23  C   UNL     1      -1.790  -1.813   0.091  0.00  0.00    +0.128 C 
ATOM     25  C   UNL     1       1.907  -2.474  -0.453  0.00  0.00    +0.254 C 
ATOM     26  C   UNL     1      -3.231   0.045  -0.895  0.00  0.00    +0.307 C 
ATOM     40  H   UNL     1      -3.960  -1.097   0.685  0.00  0.00    +0.156 HD
ENDROOT
BRANCH  10  29
ATOM     29  C   UNL     1      -5.502   0.159   0.203  0.00  0.00    +0.035 A 
ATOM     32  C   UNL     1      -6.321  -0.338   1.217  0.00  0.00    +0.023 A 
ATOM     33  C   UNL     1      -5.964   1.178  -0.630  0.00  0.00    +0.023 A 
ATOM     34  C   UNL     1      -7.601   0.185   1.399  0.00  0.00    +0.002 A 
ATOM     35  C   UNL     1      -7.245   1.700  -0.449  0.00  0.00    +0.002 A 
ATOM     36  C   UNL     1      -8.063   1.204   0.566  0.00  0.00    +0.000 A 
ENDBRANCH  10  29
BRANCH  25  27
ATOM      1  S   UNL     1       2.864  -4.217   1.429  0.00  0.00    -0.092 S 
ATOM     27  C   UNL     1       2.024  -3.863  -0.021  0.00  0.00    +0.074 A 
ATOM     28  C   UNL     1       1.538  -5.000  -0.628  0.00  0.00    +0.021 A 
ATOM     30  C   UNL     1       1.859  -6.178   0.107  0.00  0.00    +0.008 A 
ATOM     31  C   UNL     1       2.579  -5.896   1.247  0.00  0.00    +0.046 A 
ENDBRANCH  25  27
BRANCH  19  21
ATOM      2  O   UNL     1       0.414   0.092   1.167  0.00  0.00    -0.274 OA
ATOM      6  N   UNL     1       1.287   1.548  -0.426  0.00  0.00    -0.302 N 
ATOM     21  C   UNL     1       0.711   0.366   0.007  0.00  0.00    +0.236 C 
ATOM     37  H   UNL     1       1.410   1.700  -1.423  0.00  0.00    +0.150 HD
BRANCH   6  18
ATOM     18  C   UNL     1       1.618   2.639   0.463  0.00  0.00    +0.159 C 
BRANCH  18  24
ATOM      3  O   UNL     1      -0.431   3.734  -0.249  0.00  0.00    -0.274 OA
ATOM      9  N   UNL     1       0.295   4.061   1.905  0.00  0.00    -0.328 N 
ATOM     24  C   UNL     1       0.385   3.513   0.643  0.00  0.00    +0.231 C 
ATOM     38  H   UNL     1      -0.477   4.671   2.154  0.00  0.00    +0.145 HD
ATOM     39  H   UNL     1       0.986   3.886   2.627  0.00  0.00    +0.145 HD
ENDBRANCH  18  24
BRANCH  18  14
ATOM     14  C   UNL     1       2.840   3.427  -0.019  0.00  0.00    +0.035 C 
BRANCH  14  11
ATOM     11  C   UNL     1       4.087   2.575  -0.243  0.00  0.00    -0.009 C 
ATOM     12  C   UNL     1       5.245   3.436  -0.766  0.00  0.00    +0.003 C 
ATOM     13  C   UNL     1       4.487   1.849   1.048  0.00  0.00    +0.003 C 
ATOM     15  C   UNL     1       6.520   2.616  -0.948  0.00  0.00    +0.000 C 
ATOM     16  C   UNL     1       5.763   1.031   0.863  0.00  0.00    +0.000 C 
ATOM     17  C   UNL     1       6.909   1.888   0.335  0.00  0.00    +0.000 C 
ENDBRANCH  14  11
ENDBRANCH  18  14
ENDBRANCH   6  18
ENDBRANCH  19  21
TORSDOF 7
