REMARK  Name = 11913092
REMARK  10 active torsions:
REMARK  status: ('A' for Active; 'I' for Inactive)
REMARK    1  A    between atoms: O_3  and  C_13
REMARK    2  A    between atoms: O_3  and  C_17
REMARK    3  A    between atoms: N_6  and  C_12
REMARK    4  A    between atoms: N_9  and  C_25
REMARK    5  A    between atoms: C_18  and  C_19
REMARK    6  A    between atoms: C_18  and  C_22
REMARK    7  A    between atoms: C_18  and  C_23
REMARK    8  A    between atoms: C_18  and  C_24
REMARK    9  A    between atoms: C_30  and  C_31
REMARK   10  A    between atoms: C_31  and  C_32
REMARK                            x       y       z     vdW  Elec       q    Type
REMARK                         _______ _______ _______ _____ _____    ______ ____
ROOT
ATOM      1  O   UNL     1      -0.166   0.690   1.490  0.00  0.00    -0.368 OA
ATOM      2  O   UNL     1      -2.029   2.450  -0.196  0.00  0.00    -0.368 OA
ATOM     10  C   UNL     1      -1.932   1.016  -0.058  0.00  0.00    +0.173 C 
ATOM     11  C   UNL     1      -0.459   0.688   0.083  0.00  0.00    +0.192 C 
ATOM     12  C   UNL     1      -2.531   0.582   1.259  0.00  0.00    +0.130 C 
ATOM     13  C   UNL     1       0.203   1.843  -0.627  0.00  0.00    +0.235 C 
ATOM     14  C   UNL     1      -1.389   0.823   2.230  0.00  0.00    +0.185 C 
ATOM     15  C   UNL     1      -0.706   2.999  -0.274  0.00  0.00    +0.207 C 
ENDROOT
BRANCH  12   6
ATOM      6  N   UNL     1      -2.867  -0.825   1.218  0.00  0.00    -0.306 N 
ATOM      7  N   UNL     1      -4.962  -0.410   0.246  0.00  0.00    -0.219 NA
ATOM      8  N   UNL     1      -4.250  -2.659   0.738  0.00  0.00    -0.223 NA
ATOM     16  C   UNL     1      -4.062  -1.313   0.719  0.00  0.00    +0.216 A 
ATOM     19  C   UNL     1      -6.115  -0.920  -0.233  0.00  0.00    +0.052 A 
ATOM     20  C   UNL     1      -6.405  -2.269  -0.260  0.00  0.00    +0.043 A 
ATOM     21  C   UNL     1      -5.425  -3.100   0.244  0.00  0.00    +0.116 A 
ATOM     33  H   UNL     1      -2.183  -1.510   1.520  0.00  0.00    +0.149 HD
BRANCH  19  18
ATOM     18  C   UNL     1      -7.115   0.056  -0.757  0.00  0.00    +0.005 C 
ATOM     22  C   UNL     1      -6.687   1.559  -0.681  0.00  0.00    +0.017 C 
ATOM     23  C   UNL     1      -7.431  -0.210  -2.261  0.00  0.00    +0.017 C 
ATOM     24  C   UNL     1      -8.459  -0.034   0.030  0.00  0.00    +0.017 C 
ENDBRANCH  19  18
ENDBRANCH  12   6
BRANCH  13   3
ATOM      3  O   UNL     1       1.533   2.069  -0.217  0.00  0.00    -0.442 OA
BRANCH   3  17
ATOM      4  O   UNL     1       2.129   0.004  -0.997  0.00  0.00    -0.226 OA
ATOM      9  N   UNL     1       3.687   1.437   0.003  0.00  0.00    -0.251 N 
ATOM     17  C   UNL     1       2.440   1.058  -0.456  0.00  0.00    +0.405 C 
ATOM     34  H   UNL     1       3.747   2.359   0.428  0.00  0.00    +0.158 HD
BRANCH   9  25
ATOM     25  C   UNL     1       4.892   0.701  -0.044  0.00  0.00    +0.036 A 
ATOM     26  C   UNL     1       4.894  -0.566  -0.607  0.00  0.00    +0.024 A 
ATOM     27  C   UNL     1       6.049   1.260   0.474  0.00  0.00    +0.024 A 
ATOM     28  C   UNL     1       6.084  -1.292  -0.652  0.00  0.00    +0.013 A 
ATOM     29  C   UNL     1       7.239   0.534   0.429  0.00  0.00    +0.013 A 
ATOM     30  C   UNL     1       7.257  -0.742  -0.135  0.00  0.00    +0.017 A 
BRANCH  30  31
ATOM      5  O   UNL     1       9.562  -1.033   0.271  0.00  0.00    -0.292 OA
ATOM     31  C   UNL     1       8.498  -1.498  -0.183  0.00  0.00    +0.160 C 
ATOM     32  C   UNL     1       8.525  -2.893  -0.799  0.00  0.00    +0.091 C 
ENDBRANCH  30  31
ENDBRANCH   9  25
ENDBRANCH   3  17
ENDBRANCH  13   3
TORSDOF 6
