MODEL 1
REMARK VINA RESULT:      -5.6      0.000      0.000
REMARK  Name = 75367758
REMARK  5 active torsions:
REMARK  status: ('A' for Active; 'I' for Inactive)
REMARK    1  A    between atoms: O_2  and  C_6
REMARK    2  A    between atoms: O_3  and  C_14
REMARK    3  A    between atoms: O_3  and  C_17
REMARK    4  A    between atoms: N_4  and  C_8
REMARK    5  A    between atoms: C_8  and  C_11
REMARK                            x       y       z     vdW  Elec       q    Type
REMARK                         _______ _______ _______ _____ _____    ______ ____
ROOT
ATOM      1  O   UNL     1      11.494  10.442  21.218  0.00  0.00    -0.376 OA
ATOM      4  N   UNL     1      13.333   8.377  19.775  0.00  0.00    -0.293 NA
ATOM      5  C   UNL     1      12.184   7.507  20.046  0.00  0.00    +0.118 C 
ATOM      6  C   UNL     1      10.956   8.134  20.724  0.00  0.00    +0.154 C 
ATOM      7  C   UNL     1      12.979   9.738  19.371  0.00  0.00    +0.113 C 
ATOM      9  C   UNL     1      11.285   9.160  21.800  0.00  0.00    +0.192 C 
ATOM     10  C   UNL     1      12.767  10.612  20.609  0.00  0.00    +0.175 C 
ENDROOT
BRANCH   6   2
ATOM      2  O   UNL     1      10.200   7.085  21.332  0.00  0.00    -0.388 OA
ATOM     18  H   UNL     1       9.263   7.238  21.118  0.00  0.00    +0.210 HD
ENDBRANCH   6   2
BRANCH   4   8
ATOM      8  C   UNL     1      14.224   7.745  18.801  0.00  0.00    +0.119 C 
BRANCH   8  11
ATOM     11  C   UNL     1      15.574   7.436  19.392  0.00  0.00    -0.030 A 
ATOM     12  C   UNL     1      16.142   8.305  20.323  0.00  0.00    +0.050 A 
ATOM     13  C   UNL     1      16.255   6.281  19.009  0.00  0.00    +0.005 A 
ATOM     14  C   UNL     1      17.393   8.019  20.871  0.00  0.00    +0.120 A 
ATOM     15  C   UNL     1      17.506   5.995  19.556  0.00  0.00    +0.004 A 
ATOM     16  C   UNL     1      18.075   6.864  20.488  0.00  0.00    +0.045 A 
BRANCH  14   3
ATOM      3  O   UNL     1      17.948   8.867  21.779  0.00  0.00    -0.495 OA
ATOM     17  C   UNL     1      19.196   8.480  22.352  0.00  0.00    +0.277 C 
ENDBRANCH  14   3
ENDBRANCH   8  11
ENDBRANCH   4   8
TORSDOF 4
ENDMDL
MODEL 2
REMARK VINA RESULT:      -5.4     16.777     18.961
REMARK  Name = 75367758
REMARK  5 active torsions:
REMARK  status: ('A' for Active; 'I' for Inactive)
REMARK    1  A    between atoms: O_2  and  C_6
REMARK    2  A    between atoms: O_3  and  C_14
REMARK    3  A    between atoms: O_3  and  C_17
REMARK    4  A    between atoms: N_4  and  C_8
REMARK    5  A    between atoms: C_8  and  C_11
REMARK                            x       y       z     vdW  Elec       q    Type
REMARK                         _______ _______ _______ _____ _____    ______ ____
ROOT
ATOM      1  O   UNL     1      -1.708   5.068  25.367  0.00  0.00    -0.376 OA
ATOM      4  N   UNL     1      -3.032   2.282  24.910  0.00  0.00    -0.293 NA
ATOM      5  C   UNL     1      -1.774   1.838  25.519  0.00  0.00    +0.118 C 
ATOM      6  C   UNL     1      -0.783   2.917  25.983  0.00  0.00    +0.154 C 
ATOM      7  C   UNL     1      -3.603   3.488  25.512  0.00  0.00    +0.113 C 
ATOM      9  C   UNL     1      -0.689   4.124  25.058  0.00  0.00    +0.192 C 
ATOM     10  C   UNL     1      -2.994   4.732  24.864  0.00  0.00    +0.175 C 
ENDROOT
BRANCH   6   2
ATOM      2  O   UNL     1       0.513   2.324  26.066  0.00  0.00    -0.388 OA
ATOM     18  H   UNL     1       0.637   1.780  25.269  0.00  0.00    +0.210 HD
ENDBRANCH   6   2
BRANCH   4   8
ATOM      8  C   UNL     1      -3.999   1.183  24.895  0.00  0.00    +0.119 C 
BRANCH   8  11
ATOM     11  C   UNL     1      -3.329  -0.152  24.710  0.00  0.00    -0.030 A 
ATOM     12  C   UNL     1      -1.955  -0.216  24.481  0.00  0.00    +0.050 A 
ATOM     13  C   UNL     1      -4.082  -1.324  24.767  0.00  0.00    +0.005 A 
ATOM     14  C   UNL     1      -1.333  -1.452  24.308  0.00  0.00    +0.120 A 
ATOM     15  C   UNL     1      -3.461  -2.561  24.596  0.00  0.00    +0.004 A 
ATOM     16  C   UNL     1      -2.086  -2.626  24.366  0.00  0.00    +0.045 A 
BRANCH  14   3
ATOM      3  O   UNL     1       0.008  -1.515  24.084  0.00  0.00    -0.495 OA
ATOM     17  C   UNL     1       0.619  -0.376  23.480  0.00  0.00    +0.277 C 
ENDBRANCH  14   3
ENDBRANCH   8  11
ENDBRANCH   4   8
TORSDOF 4
ENDMDL
MODEL 3
REMARK VINA RESULT:      -5.3      1.851      2.758
REMARK  Name = 75367758
REMARK  5 active torsions:
REMARK  status: ('A' for Active; 'I' for Inactive)
REMARK    1  A    between atoms: O_2  and  C_6
REMARK    2  A    between atoms: O_3  and  C_14
REMARK    3  A    between atoms: O_3  and  C_17
REMARK    4  A    between atoms: N_4  and  C_8
REMARK    5  A    between atoms: C_8  and  C_11
REMARK                            x       y       z     vdW  Elec       q    Type
REMARK                         _______ _______ _______ _____ _____    ______ ____
ROOT
ATOM      1  O   UNL     1      12.830   9.357  18.143  0.00  0.00    -0.376 OA
ATOM      4  N   UNL     1      14.767   7.292  19.449  0.00  0.00    -0.293 NA
ATOM      5  C   UNL     1      13.502   6.796  20.000  0.00  0.00    +0.118 C 
ATOM      6  C   UNL     1      12.207   7.501  19.567  0.00  0.00    +0.154 C 
ATOM      7  C   UNL     1      14.689   7.730  18.055  0.00  0.00    +0.113 C 
ATOM      9  C   UNL     1      12.330   9.012  19.430  0.00  0.00    +0.192 C 
ATOM     10  C   UNL     1      14.232   9.189  17.992  0.00  0.00    +0.175 C 
ENDROOT
BRANCH   6   2
ATOM      2  O   UNL     1      11.204   7.227  20.546  0.00  0.00    -0.388 OA
ATOM     18  H   UNL     1      11.102   8.026  21.092  0.00  0.00    +0.210 HD
ENDBRANCH   6   2
BRANCH   4   8
ATOM      8  C   UNL     1      15.823   6.295  19.637  0.00  0.00    +0.119 C 
BRANCH   8  11
ATOM     11  C   UNL     1      17.054   6.893  20.263  0.00  0.00    -0.030 A 
ATOM     12  C   UNL     1      18.298   6.296  20.062  0.00  0.00    +0.050 A 
ATOM     13  C   UNL     1      16.951   8.043  21.046  0.00  0.00    +0.005 A 
ATOM     14  C   UNL     1      19.440   6.848  20.643  0.00  0.00    +0.120 A 
ATOM     15  C   UNL     1      18.092   8.596  21.627  0.00  0.00    +0.004 A 
ATOM     16  C   UNL     1      19.337   7.998  21.425  0.00  0.00    +0.045 A 
BRANCH  14   3
ATOM      3  O   UNL     1      20.654   6.265  20.447  0.00  0.00    -0.495 OA
ATOM     17  C   UNL     1      20.750   4.864  20.698  0.00  0.00    +0.277 C 
ENDBRANCH  14   3
ENDBRANCH   8  11
ENDBRANCH   4   8
TORSDOF 4
ENDMDL
MODEL 4
REMARK VINA RESULT:      -5.2      1.855      2.701
REMARK  Name = 75367758
REMARK  5 active torsions:
REMARK  status: ('A' for Active; 'I' for Inactive)
REMARK    1  A    between atoms: O_2  and  C_6
REMARK    2  A    between atoms: O_3  and  C_14
REMARK    3  A    between atoms: O_3  and  C_17
REMARK    4  A    between atoms: N_4  and  C_8
REMARK    5  A    between atoms: C_8  and  C_11
REMARK                            x       y       z     vdW  Elec       q    Type
REMARK                         _______ _______ _______ _____ _____    ______ ____
ROOT
ATOM      1  O   UNL     1      10.861   8.515  19.039  0.00  0.00    -0.376 OA
ATOM      4  N   UNL     1      13.868   8.683  19.847  0.00  0.00    -0.293 NA
ATOM      5  C   UNL     1      13.906   9.537  18.655  0.00  0.00    +0.118 C 
ATOM      6  C   UNL     1      12.581   9.804  17.923  0.00  0.00    +0.154 C 
ATOM      7  C   UNL     1      12.678   8.858  20.679  0.00  0.00    +0.113 C 
ATOM      9  C   UNL     1      11.647   8.602  17.855  0.00  0.00    +0.192 C 
ATOM     10  C   UNL     1      11.544   7.972  20.160  0.00  0.00    +0.175 C 
ENDROOT
BRANCH   6   2
ATOM      2  O   UNL     1      12.884  10.202  16.586  0.00  0.00    -0.388 OA
ATOM     18  H   UNL     1      13.851  10.287  16.519  0.00  0.00    +0.210 HD
ENDBRANCH   6   2
BRANCH   4   8
ATOM      8  C   UNL     1      15.095   8.852  20.626  0.00  0.00    +0.119 C 
BRANCH   8  11
ATOM     11  C   UNL     1      16.117   7.795  20.304  0.00  0.00    -0.030 A 
ATOM     12  C   UNL     1      17.336   7.775  20.980  0.00  0.00    +0.050 A 
ATOM     13  C   UNL     1      15.844   6.836  19.328  0.00  0.00    +0.005 A 
ATOM     14  C   UNL     1      18.284   6.795  20.681  0.00  0.00    +0.120 A 
ATOM     15  C   UNL     1      16.791   5.857  19.029  0.00  0.00    +0.004 A 
ATOM     16  C   UNL     1      18.011   5.836  19.705  0.00  0.00    +0.045 A 
BRANCH  14   3
ATOM      3  O   UNL     1      19.474   6.776  21.341  0.00  0.00    -0.495 OA
ATOM     17  C   UNL     1      20.510   7.616  20.836  0.00  0.00    +0.277 C 
ENDBRANCH  14   3
ENDBRANCH   8  11
ENDBRANCH   4   8
TORSDOF 4
ENDMDL
MODEL 5
REMARK VINA RESULT:      -5.2      2.983      6.058
REMARK  Name = 75367758
REMARK  5 active torsions:
REMARK  status: ('A' for Active; 'I' for Inactive)
REMARK    1  A    between atoms: O_2  and  C_6
REMARK    2  A    between atoms: O_3  and  C_14
REMARK    3  A    between atoms: O_3  and  C_17
REMARK    4  A    between atoms: N_4  and  C_8
REMARK    5  A    between atoms: C_8  and  C_11
REMARK                            x       y       z     vdW  Elec       q    Type
REMARK                         _______ _______ _______ _____ _____    ______ ____
ROOT
ATOM      1  O   UNL     1      12.118   7.178  18.220  0.00  0.00    -0.376 OA
ATOM      4  N   UNL     1      13.145   9.602  19.892  0.00  0.00    -0.293 NA
ATOM      5  C   UNL     1      13.983   8.551  20.478  0.00  0.00    +0.118 C 
ATOM      6  C   UNL     1      13.860   7.132  19.901  0.00  0.00    +0.154 C 
ATOM      7  C   UNL     1      12.959   9.492  18.444  0.00  0.00    +0.113 C 
ATOM      9  C   UNL     1      12.440   6.725  19.530  0.00  0.00    +0.192 C 
ATOM     10  C   UNL     1      11.787   8.558  18.139  0.00  0.00    +0.175 C 
ENDROOT
BRANCH   6   2
ATOM      2  O   UNL     1      14.340   6.211  20.880  0.00  0.00    -0.388 OA
ATOM     18  H   UNL     1      14.519   6.715  21.693  0.00  0.00    +0.210 HD
ENDBRANCH   6   2
BRANCH   4   8
ATOM      8  C   UNL     1      13.657  10.921  20.266  0.00  0.00    +0.119 C 
BRANCH   8  11
ATOM     11  C   UNL     1      12.619  11.745  20.981  0.00  0.00    -0.030 A 
ATOM     12  C   UNL     1      11.990  11.237  22.117  0.00  0.00    +0.050 A 
ATOM     13  C   UNL     1      12.287  13.013  20.507  0.00  0.00    +0.005 A 
ATOM     14  C   UNL     1      11.027  11.999  22.781  0.00  0.00    +0.120 A 
ATOM     15  C   UNL     1      11.324  13.775  21.170  0.00  0.00    +0.004 A 
ATOM     16  C   UNL     1      10.694  13.268  22.307  0.00  0.00    +0.045 A 
BRANCH  14   3
ATOM      3  O   UNL     1      10.412  11.504  23.889  0.00  0.00    -0.495 OA
ATOM     17  C   UNL     1      11.142  11.554  25.114  0.00  0.00    +0.277 C 
ENDBRANCH  14   3
ENDBRANCH   8  11
ENDBRANCH   4   8
TORSDOF 4
ENDMDL
MODEL 6
REMARK VINA RESULT:      -5.0     25.532     28.038
REMARK  Name = 75367758
REMARK  5 active torsions:
REMARK  status: ('A' for Active; 'I' for Inactive)
REMARK    1  A    between atoms: O_2  and  C_6
REMARK    2  A    between atoms: O_3  and  C_14
REMARK    3  A    between atoms: O_3  and  C_17
REMARK    4  A    between atoms: N_4  and  C_8
REMARK    5  A    between atoms: C_8  and  C_11
REMARK                            x       y       z     vdW  Elec       q    Type
REMARK                         _______ _______ _______ _____ _____    ______ ____
ROOT
ATOM      1  O   UNL     1     -16.809   6.117  22.366  0.00  0.00    -0.376 OA
ATOM      4  N   UNL     1     -13.726   6.193  21.901  0.00  0.00    -0.293 NA
ATOM      5  C   UNL     1     -13.777   5.127  22.906  0.00  0.00    +0.118 C 
ATOM      6  C   UNL     1     -15.159   4.687  23.414  0.00  0.00    +0.154 C 
ATOM      7  C   UNL     1     -14.808   6.147  20.916  0.00  0.00    +0.113 C 
ATOM      9  C   UNL     1     -16.154   5.826  23.596  0.00  0.00    +0.192 C 
ATOM     10  C   UNL     1     -16.035   6.884  21.455  0.00  0.00    +0.175 C 
ENDROOT
BRANCH   6   2
ATOM      2  O   UNL     1     -14.986   4.048  24.679  0.00  0.00    -0.388 OA
ATOM     18  H   UNL     1     -15.058   4.734  25.366  0.00  0.00    +0.210 HD
ENDBRANCH   6   2
BRANCH   4   8
ATOM      8  C   UNL     1     -12.414   6.211  21.253  0.00  0.00    +0.119 C 
BRANCH   8  11
ATOM     11  C   UNL     1     -12.051   7.585  20.757  0.00  0.00    -0.030 A 
ATOM     12  C   UNL     1     -11.201   7.728  19.661  0.00  0.00    +0.050 A 
ATOM     13  C   UNL     1     -12.564   8.715  21.394  0.00  0.00    +0.005 A 
ATOM     14  C   UNL     1     -10.864   9.001  19.200  0.00  0.00    +0.120 A 
ATOM     15  C   UNL     1     -12.227   9.988  20.934  0.00  0.00    +0.004 A 
ATOM     16  C   UNL     1     -11.377  10.132  19.837  0.00  0.00    +0.045 A 
BRANCH  14   3
ATOM      3  O   UNL     1     -10.034   9.141  18.131  0.00  0.00    -0.495 OA
ATOM     17  C   UNL     1     -10.417   8.487  16.922  0.00  0.00    +0.277 C 
ENDBRANCH  14   3
ENDBRANCH   8  11
ENDBRANCH   4   8
TORSDOF 4
ENDMDL
MODEL 7
REMARK VINA RESULT:      -5.0      3.113      5.434
REMARK  Name = 75367758
REMARK  5 active torsions:
REMARK  status: ('A' for Active; 'I' for Inactive)
REMARK    1  A    between atoms: O_2  and  C_6
REMARK    2  A    between atoms: O_3  and  C_14
REMARK    3  A    between atoms: O_3  and  C_17
REMARK    4  A    between atoms: N_4  and  C_8
REMARK    5  A    between atoms: C_8  and  C_11
REMARK                            x       y       z     vdW  Elec       q    Type
REMARK                         _______ _______ _______ _____ _____    ______ ____
ROOT
ATOM      1  O   UNL     1      14.964  10.932  17.062  0.00  0.00    -0.376 OA
ATOM      4  N   UNL     1      13.749   8.574  18.701  0.00  0.00    -0.293 NA
ATOM      5  C   UNL     1      13.537   8.044  17.350  0.00  0.00    +0.118 C 
ATOM      6  C   UNL     1      14.052   8.876  16.166  0.00  0.00    +0.154 C 
ATOM      7  C   UNL     1      15.026   9.265  18.886  0.00  0.00    +0.113 C 
ATOM      9  C   UNL     1      13.876  10.380  16.330  0.00  0.00    +0.192 C 
ATOM     10  C   UNL     1      14.891  10.730  18.467  0.00  0.00    +0.175 C 
ENDROOT
BRANCH   6   2
ATOM      2  O   UNL     1      13.339   8.474  14.996  0.00  0.00    -0.388 OA
ATOM     18  H   UNL     1      13.502   7.524  14.866  0.00  0.00    +0.210 HD
ENDBRANCH   6   2
BRANCH   4   8
ATOM      8  C   UNL     1      13.568   7.512  19.692  0.00  0.00    +0.119 C 
BRANCH   8  11
ATOM     11  C   UNL     1      12.567   7.894  20.749  0.00  0.00    -0.030 A 
ATOM     12  C   UNL     1      12.725   9.083  21.460  0.00  0.00    +0.050 A 
ATOM     13  C   UNL     1      11.483   7.060  21.018  0.00  0.00    +0.005 A 
ATOM     14  C   UNL     1      11.799   9.439  22.441  0.00  0.00    +0.120 A 
ATOM     15  C   UNL     1      10.556   7.414  21.998  0.00  0.00    +0.004 A 
ATOM     16  C   UNL     1      10.714   8.604  22.710  0.00  0.00    +0.045 A 
BRANCH  14   3
ATOM      3  O   UNL     1      11.953  10.599  23.135  0.00  0.00    -0.495 OA
ATOM     17  C   UNL     1      10.847  11.037  23.922  0.00  0.00    +0.277 C 
ENDBRANCH  14   3
ENDBRANCH   8  11
ENDBRANCH   4   8
TORSDOF 4
ENDMDL
MODEL 8
REMARK VINA RESULT:      -4.9     25.695     27.436
REMARK  Name = 75367758
REMARK  5 active torsions:
REMARK  status: ('A' for Active; 'I' for Inactive)
REMARK    1  A    between atoms: O_2  and  C_6
REMARK    2  A    between atoms: O_3  and  C_14
REMARK    3  A    between atoms: O_3  and  C_17
REMARK    4  A    between atoms: N_4  and  C_8
REMARK    5  A    between atoms: C_8  and  C_11
REMARK                            x       y       z     vdW  Elec       q    Type
REMARK                         _______ _______ _______ _____ _____    ______ ____
ROOT
ATOM      1  O   UNL     1     -11.846   9.885  14.169  0.00  0.00    -0.376 OA
ATOM      4  N   UNL     1     -11.418   9.217  17.185  0.00  0.00    -0.293 NA
ATOM      5  C   UNL     1     -10.593   8.156  16.598  0.00  0.00    +0.118 C 
ATOM      6  C   UNL     1     -10.451   8.122  15.068  0.00  0.00    +0.154 C 
ATOM      7  C   UNL     1     -11.319  10.508  16.502  0.00  0.00    +0.113 C 
ATOM      9  C   UNL     1     -11.724   8.474  14.311  0.00  0.00    +0.192 C 
ATOM     10  C   UNL     1     -12.305  10.557  15.334  0.00  0.00    +0.175 C 
ENDROOT
BRANCH   6   2
ATOM      2  O   UNL     1     -10.062   6.802  14.687  0.00  0.00    -0.388 OA
ATOM     18  H   UNL     1     -10.752   6.454  14.095  0.00  0.00    +0.210 HD
ENDBRANCH   6   2
BRANCH   4   8
ATOM      8  C   UNL     1     -11.132   9.345  18.614  0.00  0.00    +0.119 C 
BRANCH   8  11
ATOM     11  C   UNL     1     -11.933   8.371  19.437  0.00  0.00    -0.030 A 
ATOM     12  C   UNL     1     -13.318   8.310  19.290  0.00  0.00    +0.050 A 
ATOM     13  C   UNL     1     -11.290   7.531  20.346  0.00  0.00    +0.005 A 
ATOM     14  C   UNL     1     -14.062   7.409  20.052  0.00  0.00    +0.120 A 
ATOM     15  C   UNL     1     -12.033   6.630  21.108  0.00  0.00    +0.004 A 
ATOM     16  C   UNL     1     -13.419   6.568  20.962  0.00  0.00    +0.045 A 
BRANCH  14   3
ATOM      3  O   UNL     1     -15.414   7.349  19.909  0.00  0.00    -0.495 OA
ATOM     17  C   UNL     1     -16.075   6.210  20.455  0.00  0.00    +0.277 C 
ENDBRANCH  14   3
ENDBRANCH   8  11
ENDBRANCH   4   8
TORSDOF 4
ENDMDL
MODEL 9
REMARK VINA RESULT:      -4.8     26.503     27.937
REMARK  Name = 75367758
REMARK  5 active torsions:
REMARK  status: ('A' for Active; 'I' for Inactive)
REMARK    1  A    between atoms: O_2  and  C_6
REMARK    2  A    between atoms: O_3  and  C_14
REMARK    3  A    between atoms: O_3  and  C_17
REMARK    4  A    between atoms: N_4  and  C_8
REMARK    5  A    between atoms: C_8  and  C_11
REMARK                            x       y       z     vdW  Elec       q    Type
REMARK                         _______ _______ _______ _____ _____    ______ ____
ROOT
ATOM      1  O   UNL     1      -3.038 -11.758  11.508  0.00  0.00    -0.376 OA
ATOM      4  N   UNL     1      -2.779 -11.361  14.590  0.00  0.00    -0.293 NA
ATOM      5  C   UNL     1      -1.916 -12.537  14.440  0.00  0.00    +0.118 C 
ATOM      6  C   UNL     1      -1.688 -13.081  13.021  0.00  0.00    +0.154 C 
ATOM      7  C   UNL     1      -2.648 -10.373  13.518  0.00  0.00    +0.113 C 
ATOM      9  C   UNL     1      -2.918 -13.035  12.124  0.00  0.00    +0.192 C 
ATOM     10  C   UNL     1      -3.566 -10.744  12.352  0.00  0.00    +0.175 C 
ENDROOT
BRANCH   6   2
ATOM      2  O   UNL     1      -1.272 -14.443  13.128  0.00  0.00    -0.388 OA
ATOM     18  H   UNL     1      -1.302 -14.684  14.071  0.00  0.00    +0.210 HD
ENDBRANCH   6   2
BRANCH   4   8
ATOM      8  C   UNL     1      -2.575 -10.752  15.906  0.00  0.00    +0.119 C 
BRANCH   8  11
ATOM     11  C   UNL     1      -3.837 -10.751  16.726  0.00  0.00    -0.030 A 
ATOM     12  C   UNL     1      -4.926  -9.976  16.328  0.00  0.00    +0.050 A 
ATOM     13  C   UNL     1      -3.917 -11.524  17.884  0.00  0.00    +0.005 A 
ATOM     14  C   UNL     1      -6.095  -9.974  17.089  0.00  0.00    +0.120 A 
ATOM     15  C   UNL     1      -5.086 -11.522  18.645  0.00  0.00    +0.004 A 
ATOM     16  C   UNL     1      -6.176 -10.747  18.247  0.00  0.00    +0.045 A 
BRANCH  14   3
ATOM      3  O   UNL     1      -7.158  -9.217  16.701  0.00  0.00    -0.495 OA
ATOM     17  C   UNL     1      -8.397  -9.445  17.370  0.00  0.00    +0.277 C 
ENDBRANCH  14   3
ENDBRANCH   8  11
ENDBRANCH   4   8
TORSDOF 4
ENDMDL
MODEL 10
REMARK VINA RESULT:      -4.8     26.246     27.538
REMARK  Name = 75367758
REMARK  5 active torsions:
REMARK  status: ('A' for Active; 'I' for Inactive)
REMARK    1  A    between atoms: O_2  and  C_6
REMARK    2  A    between atoms: O_3  and  C_14
REMARK    3  A    between atoms: O_3  and  C_17
REMARK    4  A    between atoms: N_4  and  C_8
REMARK    5  A    between atoms: C_8  and  C_11
REMARK                            x       y       z     vdW  Elec       q    Type
REMARK                         _______ _______ _______ _____ _____    ______ ____
ROOT
ATOM      1  O   UNL     1      -6.776 -11.870  18.527  0.00  0.00    -0.376 OA
ATOM      4  N   UNL     1      -4.350 -11.077  16.735  0.00  0.00    -0.293 NA
ATOM      5  C   UNL     1      -5.235  -9.948  16.431  0.00  0.00    +0.118 C 
ATOM      6  C   UNL     1      -6.585  -9.879  17.162  0.00  0.00    +0.154 C 
ATOM      7  C   UNL     1      -4.364 -11.497  18.137  0.00  0.00    +0.113 C 
ATOM      9  C   UNL     1      -7.265 -11.228  17.354  0.00  0.00    +0.192 C 
ATOM     10  C   UNL     1      -5.506 -12.487  18.373  0.00  0.00    +0.175 C 
ENDROOT
BRANCH   6   2
ATOM      2  O   UNL     1      -7.461  -9.049  16.400  0.00  0.00    -0.388 OA
ATOM     18  H   UNL     1      -7.742  -8.315  16.974  0.00  0.00    +0.210 HD
ENDBRANCH   6   2
BRANCH   4   8
ATOM      8  C   UNL     1      -2.990 -10.789  16.277  0.00  0.00    +0.119 C 
BRANCH   8  11
ATOM     11  C   UNL     1      -2.753 -11.282  14.875  0.00  0.00    -0.030 A 
ATOM     12  C   UNL     1      -2.342 -10.392  13.883  0.00  0.00    +0.050 A 
ATOM     13  C   UNL     1      -2.946 -12.628  14.567  0.00  0.00    +0.005 A 
ATOM     14  C   UNL     1      -2.123 -10.847  12.583  0.00  0.00    +0.120 A 
ATOM     15  C   UNL     1      -2.727 -13.085  13.267  0.00  0.00    +0.004 A 
ATOM     16  C   UNL     1      -2.316 -12.194  12.274  0.00  0.00    +0.045 A 
BRANCH  14   3
ATOM      3  O   UNL     1      -1.723  -9.978  11.615  0.00  0.00    -0.495 OA
ATOM     17  C   UNL     1      -2.698  -9.584  10.652  0.00  0.00    +0.277 C 
ENDBRANCH  14   3
ENDBRANCH   8  11
ENDBRANCH   4   8
TORSDOF 4
ENDMDL
