MODEL 1
REMARK VINA RESULT:      -7.4      0.000      0.000
REMARK  Name = 45783642
REMARK  9 active torsions:
REMARK  status: ('A' for Active; 'I' for Inactive)
REMARK    1  A    between atoms: O_5  and  C_32
REMARK    2  A    between atoms: O_5  and  C_33
REMARK    3  A    between atoms: N_7  and  C_16
REMARK    4  A    between atoms: N_11  and  C_30
REMARK    5  A    between atoms: C_12  and  C_17
REMARK    6  A    between atoms: C_16  and  C_18
REMARK    7  A    between atoms: C_21  and  C_25
REMARK    8  A    between atoms: C_24  and  C_26
REMARK    9  A    between atoms: C_31  and  C_32
REMARK                            x       y       z     vdW  Elec       q    Type
REMARK                         _______ _______ _______ _____ _____    ______ ____
ROOT
ATOM      4  O   UNL     1     -17.255   2.026  22.847  0.00  0.00    -0.336 OA
ATOM      8  N   UNL     1     -17.491   3.559  24.462  0.00  0.00    -0.190 NA
ATOM      9  N   UNL     1     -16.840   1.409  24.033  0.00  0.00    -0.056 NA
ATOM     17  C   UNL     1     -17.621   3.289  23.188  0.00  0.00    +0.245 A 
ATOM     21  C   UNL     1     -17.009   2.376  24.940  0.00  0.00    +0.204 A 
ENDROOT
BRANCH  21  25
ATOM     10  N   UNL     1     -16.662   0.738  28.261  0.00  0.00    -0.239 NA
ATOM     25  C   UNL     1     -16.704   2.192  26.330  0.00  0.00    +0.041 A 
ATOM     27  C   UNL     1     -16.177   3.230  27.090  0.00  0.00    +0.016 A 
ATOM     28  C   UNL     1     -16.926   0.977  26.957  0.00  0.00    +0.124 A 
ATOM     29  C   UNL     1     -15.891   3.024  28.435  0.00  0.00    +0.044 A 
ATOM     30  C   UNL     1     -16.149   1.771  28.968  0.00  0.00    +0.125 A 
BRANCH  30  11
ATOM      6  O   UNL     1     -13.562   1.052  30.326  0.00  0.00    -0.273 OA
ATOM     11  N   UNL     1     -15.859   1.573  30.323  0.00  0.00    -0.268 N 
ATOM     31  C   UNL     1     -14.630   1.238  30.901  0.00  0.00    +0.244 C 
ATOM     34  H   UNL     1     -16.656   1.692  30.945  0.00  0.00    +0.156 HD
BRANCH  31  32
ATOM     32  C   UNL     1     -14.727   1.105  32.405  0.00  0.00    +0.255 C 
BRANCH  32   5
ATOM      5  O   UNL     1     -15.308   2.280  32.931  0.00  0.00    -0.374 OA
ATOM     33  C   UNL     1     -14.342   3.306  33.131  0.00  0.00    +0.194 C 
ENDBRANCH  32   5
ENDBRANCH  31  32
ENDBRANCH  30  11
ENDBRANCH  21  25
BRANCH  17  12
ATOM      7  N   UNL     1     -17.014   4.777  21.289  0.00  0.00    -0.287 NA
ATOM     12  C   UNL     1     -18.116   4.175  22.064  0.00  0.00    +0.146 C 
ATOM     13  C   UNL     1     -18.951   3.406  21.024  0.00  0.00    +0.030 C 
ATOM     14  C   UNL     1     -18.277   3.686  19.688  0.00  0.00    +0.017 C 
ATOM     15  C   UNL     1     -17.523   4.976  19.932  0.00  0.00    +0.085 C 
BRANCH   7  16
ATOM     16  C   UNL     1     -16.510   6.015  21.872  0.00  0.00    +0.120 C 
BRANCH  16  18
ATOM     18  C   UNL     1     -15.195   6.426  21.264  0.00  0.00    -0.033 A 
ATOM     19  C   UNL     1     -15.167   7.375  20.242  0.00  0.00    +0.005 A 
ATOM     20  C   UNL     1     -14.007   5.860  21.724  0.00  0.00    +0.005 A 
ATOM     22  C   UNL     1     -13.948   7.756  19.678  0.00  0.00    +0.012 A 
ATOM     23  C   UNL     1     -12.788   6.241  21.160  0.00  0.00    +0.012 A 
ATOM     24  C   UNL     1     -12.760   7.190  20.138  0.00  0.00    +0.055 A 
BRANCH  24  26
ATOM      1  F   UNL     1     -10.473   7.813  20.459  0.00  0.00    -0.166 F 
ATOM      2  F   UNL     1     -11.551   8.761  18.825  0.00  0.00    -0.166 F 
ATOM      3  F   UNL     1     -10.941   6.679  18.671  0.00  0.00    -0.166 F 
ATOM     26  C   UNL     1     -11.458   7.600  19.537  0.00  0.00    +0.417 C 
ENDBRANCH  24  26
ENDBRANCH  16  18
ENDBRANCH   7  16
ENDBRANCH  17  12
TORSDOF 8
ENDMDL
MODEL 2
REMARK VINA RESULT:      -7.3     29.685     32.983
REMARK  Name = 45783642
REMARK  9 active torsions:
REMARK  status: ('A' for Active; 'I' for Inactive)
REMARK    1  A    between atoms: O_5  and  C_32
REMARK    2  A    between atoms: O_5  and  C_33
REMARK    3  A    between atoms: N_7  and  C_16
REMARK    4  A    between atoms: N_11  and  C_30
REMARK    5  A    between atoms: C_12  and  C_17
REMARK    6  A    between atoms: C_16  and  C_18
REMARK    7  A    between atoms: C_21  and  C_25
REMARK    8  A    between atoms: C_24  and  C_26
REMARK    9  A    between atoms: C_31  and  C_32
REMARK                            x       y       z     vdW  Elec       q    Type
REMARK                         _______ _______ _______ _____ _____    ______ ____
ROOT
ATOM      4  O   UNL     1      14.250   6.858  19.653  0.00  0.00    -0.336 OA
ATOM      8  N   UNL     1      15.580   7.453  21.354  0.00  0.00    -0.190 NA
ATOM      9  N   UNL     1      15.518   6.343  19.354  0.00  0.00    -0.056 NA
ATOM     17  C   UNL     1      14.375   7.496  20.846  0.00  0.00    +0.245 A 
ATOM     21  C   UNL     1      16.246   6.734  20.404  0.00  0.00    +0.204 A 
ENDROOT
BRANCH  21  25
ATOM     10  N   UNL     1      19.533   5.085  19.846  0.00  0.00    -0.239 NA
ATOM     25  C   UNL     1      17.642   6.427  20.532  0.00  0.00    +0.041 A 
ATOM     27  C   UNL     1      18.450   7.123  21.424  0.00  0.00    +0.016 A 
ATOM     28  C   UNL     1      18.226   5.426  19.773  0.00  0.00    +0.124 A 
ATOM     29  C   UNL     1      19.799   6.803  21.528  0.00  0.00    +0.044 A 
ATOM     30  C   UNL     1      20.287   5.785  20.724  0.00  0.00    +0.125 A 
BRANCH  30  11
ATOM      6  O   UNL     1      21.707   3.912  22.602  0.00  0.00    -0.273 OA
ATOM     11  N   UNL     1      21.646   5.469  20.836  0.00  0.00    -0.268 N 
ATOM     31  C   UNL     1      22.253   4.585  21.734  0.00  0.00    +0.244 C 
ATOM     34  H   UNL     1      22.246   5.955  20.174  0.00  0.00    +0.156 HD
BRANCH  31  32
ATOM     32  C   UNL     1      23.753   4.524  21.545  0.00  0.00    +0.255 C 
BRANCH  32   5
ATOM      5  O   UNL     1      24.032   3.875  20.322  0.00  0.00    -0.374 OA
ATOM     33  C   UNL     1      24.312   2.491  20.508  0.00  0.00    +0.194 C 
ENDBRANCH  32   5
ENDBRANCH  31  32
ENDBRANCH  30  11
ENDBRANCH  21  25
BRANCH  17  12
ATOM      7  N   UNL     1      12.377   8.900  20.369  0.00  0.00    -0.287 NA
ATOM     12  C   UNL     1      13.124   8.149  21.397  0.00  0.00    +0.146 C 
ATOM     13  C   UNL     1      12.113   7.127  21.946  0.00  0.00    +0.030 C 
ATOM     14  C   UNL     1      10.812   7.420  21.213  0.00  0.00    +0.017 C 
ATOM     15  C   UNL     1      10.970   8.860  20.769  0.00  0.00    +0.085 C 
BRANCH   7  16
ATOM     16  C   UNL     1      12.857  10.265  20.192  0.00  0.00    +0.120 C 
BRANCH  16  18
ATOM     18  C   UNL     1      13.496  10.463  18.843  0.00  0.00    -0.033 A 
ATOM     19  C   UNL     1      12.964   9.831  17.720  0.00  0.00    +0.005 A 
ATOM     20  C   UNL     1      14.619  11.280  18.718  0.00  0.00    +0.005 A 
ATOM     22  C   UNL     1      13.558  10.015  16.470  0.00  0.00    +0.012 A 
ATOM     23  C   UNL     1      15.213  11.464  17.468  0.00  0.00    +0.012 A 
ATOM     24  C   UNL     1      14.681  10.831  16.344  0.00  0.00    +0.055 A 
BRANCH  24  26
ATOM      1  F   UNL     1      15.605   9.863  14.362  0.00  0.00    -0.166 F 
ATOM      2  F   UNL     1      16.489  11.715  15.080  0.00  0.00    -0.166 F 
ATOM      3  F   UNL     1      14.531  11.733  14.134  0.00  0.00    -0.166 F 
ATOM     26  C   UNL     1      15.311  11.030  15.008  0.00  0.00    +0.417 C 
ENDBRANCH  24  26
ENDBRANCH  16  18
ENDBRANCH   7  16
ENDBRANCH  17  12
TORSDOF 8
ENDMDL
MODEL 3
REMARK VINA RESULT:      -7.1      5.335     10.472
REMARK  Name = 45783642
REMARK  9 active torsions:
REMARK  status: ('A' for Active; 'I' for Inactive)
REMARK    1  A    between atoms: O_5  and  C_32
REMARK    2  A    between atoms: O_5  and  C_33
REMARK    3  A    between atoms: N_7  and  C_16
REMARK    4  A    between atoms: N_11  and  C_30
REMARK    5  A    between atoms: C_12  and  C_17
REMARK    6  A    between atoms: C_16  and  C_18
REMARK    7  A    between atoms: C_21  and  C_25
REMARK    8  A    between atoms: C_24  and  C_26
REMARK    9  A    between atoms: C_31  and  C_32
REMARK                            x       y       z     vdW  Elec       q    Type
REMARK                         _______ _______ _______ _____ _____    ______ ____
ROOT
ATOM      4  O   UNL     1     -15.028   3.979  24.315  0.00  0.00    -0.336 OA
ATOM      8  N   UNL     1     -15.771   4.669  22.318  0.00  0.00    -0.190 NA
ATOM      9  N   UNL     1     -13.997   4.748  23.761  0.00  0.00    -0.056 NA
ATOM     17  C   UNL     1     -16.033   3.983  23.401  0.00  0.00    +0.245 A 
ATOM     21  C   UNL     1     -14.511   5.120  22.584  0.00  0.00    +0.204 A 
ENDROOT
BRANCH  21  25
ATOM     10  N   UNL     1     -13.840   7.568  19.866  0.00  0.00    -0.239 NA
ATOM     25  C   UNL     1     -13.791   5.940  21.652  0.00  0.00    +0.041 A 
ATOM     27  C   UNL     1     -12.402   5.921  21.607  0.00  0.00    +0.016 A 
ATOM     28  C   UNL     1     -14.457   6.773  20.768  0.00  0.00    +0.124 A 
ATOM     29  C   UNL     1     -11.730   6.725  20.693  0.00  0.00    +0.044 A 
ATOM     30  C   UNL     1     -12.489   7.523  19.852  0.00  0.00    +0.125 A 
BRANCH  30  11
ATOM      6  O   UNL     1     -11.186  10.212  20.206  0.00  0.00    -0.273 OA
ATOM     11  N   UNL     1     -11.803   8.328  18.934  0.00  0.00    -0.268 N 
ATOM     31  C   UNL     1     -11.215   9.577  19.156  0.00  0.00    +0.244 C 
ATOM     34  H   UNL     1     -11.739   7.936  17.998  0.00  0.00    +0.156 HD
BRANCH  31  32
ATOM     32  C   UNL     1     -10.573  10.134  17.904  0.00  0.00    +0.255 C 
BRANCH  32   5
ATOM      5  O   UNL     1     -10.157   9.059  17.088  0.00  0.00    -0.374 OA
ATOM     33  C   UNL     1     -10.540   9.244  15.730  0.00  0.00    +0.194 C 
ENDBRANCH  32   5
ENDBRANCH  31  32
ENDBRANCH  30  11
ENDBRANCH  21  25
BRANCH  17  12
ATOM      7  N   UNL     1     -17.447   3.055  25.227  0.00  0.00    -0.287 NA
ATOM     12  C   UNL     1     -17.282   3.209  23.768  0.00  0.00    +0.146 C 
ATOM     13  C   UNL     1     -18.573   3.906  23.300  0.00  0.00    +0.030 C 
ATOM     14  C   UNL     1     -19.425   4.047  24.553  0.00  0.00    +0.017 C 
ATOM     15  C   UNL     1     -18.886   2.971  25.474  0.00  0.00    +0.085 C 
BRANCH   7  16
ATOM     16  C   UNL     1     -16.730   1.907  25.769  0.00  0.00    +0.120 C 
BRANCH  16  18
ATOM     18  C   UNL     1     -16.378   2.100  27.220  0.00  0.00    -0.033 A 
ATOM     19  C   UNL     1     -15.947   3.348  27.672  0.00  0.00    +0.005 A 
ATOM     20  C   UNL     1     -16.484   1.034  28.111  0.00  0.00    +0.005 A 
ATOM     22  C   UNL     1     -15.621   3.526  29.017  0.00  0.00    +0.012 A 
ATOM     23  C   UNL     1     -16.158   1.212  29.456  0.00  0.00    +0.012 A 
ATOM     24  C   UNL     1     -15.727   2.460  29.908  0.00  0.00    +0.055 A 
BRANCH  24  26
ATOM      1  F   UNL     1     -15.258   1.484  32.042  0.00  0.00    -0.166 F 
ATOM      2  F   UNL     1     -16.319   3.382  32.018  0.00  0.00    -0.166 F 
ATOM      3  F   UNL     1     -14.199   3.309  31.541  0.00  0.00    -0.166 F 
ATOM     26  C   UNL     1     -15.382   2.653  31.346  0.00  0.00    +0.417 C 
ENDBRANCH  24  26
ENDBRANCH  16  18
ENDBRANCH   7  16
ENDBRANCH  17  12
TORSDOF 8
ENDMDL
MODEL 4
REMARK VINA RESULT:      -6.8     33.296     36.721
REMARK  Name = 45783642
REMARK  9 active torsions:
REMARK  status: ('A' for Active; 'I' for Inactive)
REMARK    1  A    between atoms: O_5  and  C_32
REMARK    2  A    between atoms: O_5  and  C_33
REMARK    3  A    between atoms: N_7  and  C_16
REMARK    4  A    between atoms: N_11  and  C_30
REMARK    5  A    between atoms: C_12  and  C_17
REMARK    6  A    between atoms: C_16  and  C_18
REMARK    7  A    between atoms: C_21  and  C_25
REMARK    8  A    between atoms: C_24  and  C_26
REMARK    9  A    between atoms: C_31  and  C_32
REMARK                            x       y       z     vdW  Elec       q    Type
REMARK                         _______ _______ _______ _____ _____    ______ ____
ROOT
ATOM      4  O   UNL     1      20.591   4.471  20.248  0.00  0.00    -0.336 OA
ATOM      8  N   UNL     1      19.802   6.192  21.445  0.00  0.00    -0.190 NA
ATOM      9  N   UNL     1      19.342   4.786  19.700  0.00  0.00    -0.056 NA
ATOM     17  C   UNL     1      20.785   5.346  21.270  0.00  0.00    +0.245 A 
ATOM     21  C   UNL     1      18.940   5.810  20.458  0.00  0.00    +0.204 A 
ENDROOT
BRANCH  21  25
ATOM     10  N   UNL     1      15.638   6.680  18.984  0.00  0.00    -0.239 NA
ATOM     25  C   UNL     1      17.682   6.472  20.258  0.00  0.00    +0.041 A 
ATOM     27  C   UNL     1      17.279   7.510  21.090  0.00  0.00    +0.016 A 
ATOM     28  C   UNL     1      16.834   6.098  19.228  0.00  0.00    +0.124 A 
ATOM     29  C   UNL     1      16.055   8.133  20.872  0.00  0.00    +0.044 A 
ATOM     30  C   UNL     1      15.279   7.685  19.815  0.00  0.00    +0.125 A 
BRANCH  30  11
ATOM      6  O   UNL     1      12.567   6.533  19.203  0.00  0.00    -0.273 OA
ATOM     11  N   UNL     1      14.049   8.319  19.603  0.00  0.00    -0.268 N 
ATOM     31  C   UNL     1      12.813   7.729  19.320  0.00  0.00    +0.244 C 
ATOM     34  H   UNL     1      14.084   9.334  19.665  0.00  0.00    +0.156 HD
BRANCH  31  32
ATOM     32  C   UNL     1      11.718   8.759  19.147  0.00  0.00    +0.255 C 
BRANCH  32   5
ATOM      5  O   UNL     1      10.616   8.391  19.949  0.00  0.00    -0.374 OA
ATOM     33  C   UNL     1      10.839   8.683  21.325  0.00  0.00    +0.194 C 
ENDBRANCH  32   5
ENDBRANCH  31  32
ENDBRANCH  30  11
ENDBRANCH  21  25
BRANCH  17  12
ATOM      7  N   UNL     1      23.202   5.924  21.386  0.00  0.00    -0.287 NA
ATOM     12  C   UNL     1      22.084   5.212  22.036  0.00  0.00    +0.146 C 
ATOM     13  C   UNL     1      22.005   5.816  23.450  0.00  0.00    +0.030 C 
ATOM     14  C   UNL     1      23.154   6.811  23.522  0.00  0.00    +0.017 C 
ATOM     15  C   UNL     1      24.115   6.325  22.457  0.00  0.00    +0.085 C 
BRANCH   7  16
ATOM     16  C   UNL     1      23.872   5.130  20.363  0.00  0.00    +0.120 C 
BRANCH  16  18
ATOM     18  C   UNL     1      24.395   3.831  20.915  0.00  0.00    -0.033 A 
ATOM     19  C   UNL     1      25.717   3.740  21.351  0.00  0.00    +0.005 A 
ATOM     20  C   UNL     1      23.557   2.719  20.992  0.00  0.00    +0.005 A 
ATOM     22  C   UNL     1      26.201   2.535  21.862  0.00  0.00    +0.012 A 
ATOM     23  C   UNL     1      24.041   1.514  21.504  0.00  0.00    +0.012 A 
ATOM     24  C   UNL     1      25.363   1.423  21.940  0.00  0.00    +0.055 A 
BRANCH  24  26
ATOM      1  F   UNL     1      27.195   0.188  22.858  0.00  0.00    -0.166 F 
ATOM      2  F   UNL     1      25.788  -0.890  21.598  0.00  0.00    -0.166 F 
ATOM      3  F   UNL     1      25.215  -0.286  23.607  0.00  0.00    -0.166 F 
ATOM     26  C   UNL     1      25.880   0.138  22.490  0.00  0.00    +0.417 C 
ENDBRANCH  24  26
ENDBRANCH  16  18
ENDBRANCH   7  16
ENDBRANCH  17  12
TORSDOF 8
ENDMDL
MODEL 5
REMARK VINA RESULT:      -6.8     29.118     32.480
REMARK  Name = 45783642
REMARK  9 active torsions:
REMARK  status: ('A' for Active; 'I' for Inactive)
REMARK    1  A    between atoms: O_5  and  C_32
REMARK    2  A    between atoms: O_5  and  C_33
REMARK    3  A    between atoms: N_7  and  C_16
REMARK    4  A    between atoms: N_11  and  C_30
REMARK    5  A    between atoms: C_12  and  C_17
REMARK    6  A    between atoms: C_16  and  C_18
REMARK    7  A    between atoms: C_21  and  C_25
REMARK    8  A    between atoms: C_24  and  C_26
REMARK    9  A    between atoms: C_31  and  C_32
REMARK                            x       y       z     vdW  Elec       q    Type
REMARK                         _______ _______ _______ _____ _____    ______ ____
ROOT
ATOM      4  O   UNL     1      14.418   7.009  19.597  0.00  0.00    -0.336 OA
ATOM      8  N   UNL     1      15.683   7.459  21.390  0.00  0.00    -0.190 NA
ATOM      9  N   UNL     1      15.697   6.516  19.306  0.00  0.00    -0.056 NA
ATOM     17  C   UNL     1      14.497   7.547  20.842  0.00  0.00    +0.245 A 
ATOM     21  C   UNL     1      16.384   6.818  20.411  0.00  0.00    +0.204 A 
ENDROOT
BRANCH  21  25
ATOM     10  N   UNL     1      19.893   6.955  21.638  0.00  0.00    -0.239 NA
ATOM     25  C   UNL     1      17.774   6.496  20.567  0.00  0.00    +0.041 A 
ATOM     27  C   UNL     1      18.356   5.465  19.839  0.00  0.00    +0.016 A 
ATOM     28  C   UNL     1      18.578   7.205  21.445  0.00  0.00    +0.124 A 
ATOM     29  C   UNL     1      19.706   5.176  20.010  0.00  0.00    +0.044 A 
ATOM     30  C   UNL     1      20.423   5.944  20.914  0.00  0.00    +0.125 A 
BRANCH  30  11
ATOM      6  O   UNL     1      21.781   3.938  22.700  0.00  0.00    -0.273 OA
ATOM     11  N   UNL     1      21.781   5.646  21.078  0.00  0.00    -0.268 N 
ATOM     31  C   UNL     1      22.358   4.698  21.928  0.00  0.00    +0.244 C 
ATOM     34  H   UNL     1      22.406   6.202  20.498  0.00  0.00    +0.156 HD
BRANCH  31  32
ATOM     32  C   UNL     1      23.868   4.683  21.823  0.00  0.00    +0.255 C 
BRANCH  32   5
ATOM      5  O   UNL     1      24.269   3.485  21.193  0.00  0.00    -0.374 OA
ATOM     33  C   UNL     1      24.821   3.723  19.902  0.00  0.00    +0.194 C 
ENDBRANCH  32   5
ENDBRANCH  31  32
ENDBRANCH  30  11
ENDBRANCH  21  25
BRANCH  17  12
ATOM      7  N   UNL     1      12.588   9.093  20.451  0.00  0.00    -0.287 NA
ATOM     12  C   UNL     1      13.227   8.156  21.396  0.00  0.00    +0.146 C 
ATOM     13  C   UNL     1      12.144   7.104  21.696  0.00  0.00    +0.030 C 
ATOM     14  C   UNL     1      10.916   7.566  20.925  0.00  0.00    +0.017 C 
ATOM     15  C   UNL     1      11.152   9.050  20.732  0.00  0.00    +0.085 C 
BRANCH   7  16
ATOM     16  C   UNL     1      13.121  10.447  20.533  0.00  0.00    +0.120 C 
BRANCH  16  18
ATOM     18  C   UNL     1      12.578  11.192  21.724  0.00  0.00    -0.033 A 
ATOM     19  C   UNL     1      13.184  11.047  22.972  0.00  0.00    +0.005 A 
ATOM     20  C   UNL     1      11.471  12.027  21.579  0.00  0.00    +0.005 A 
ATOM     22  C   UNL     1      12.681  11.737  24.076  0.00  0.00    +0.012 A 
ATOM     23  C   UNL     1      10.968  12.717  22.682  0.00  0.00    +0.012 A 
ATOM     24  C   UNL     1      11.574  12.572  23.931  0.00  0.00    +0.055 A 
BRANCH  24  26
ATOM      1  F   UNL     1      10.189  14.328  24.779  0.00  0.00    -0.166 F 
ATOM      2  F   UNL     1      12.023  13.886  25.860  0.00  0.00    -0.166 F 
ATOM      3  F   UNL     1      10.332  12.524  25.974  0.00  0.00    -0.166 F 
ATOM     26  C   UNL     1      11.039  13.311  25.110  0.00  0.00    +0.417 C 
ENDBRANCH  24  26
ENDBRANCH  16  18
ENDBRANCH   7  16
ENDBRANCH  17  12
TORSDOF 8
ENDMDL
MODEL 6
REMARK VINA RESULT:      -6.8     15.394     16.980
REMARK  Name = 45783642
REMARK  9 active torsions:
REMARK  status: ('A' for Active; 'I' for Inactive)
REMARK    1  A    between atoms: O_5  and  C_32
REMARK    2  A    between atoms: O_5  and  C_33
REMARK    3  A    between atoms: N_7  and  C_16
REMARK    4  A    between atoms: N_11  and  C_30
REMARK    5  A    between atoms: C_12  and  C_17
REMARK    6  A    between atoms: C_16  and  C_18
REMARK    7  A    between atoms: C_21  and  C_25
REMARK    8  A    between atoms: C_24  and  C_26
REMARK    9  A    between atoms: C_31  and  C_32
REMARK                            x       y       z     vdW  Elec       q    Type
REMARK                         _______ _______ _______ _____ _____    ______ ____
ROOT
ATOM      4  O   UNL     1     -13.093  -6.361  12.607  0.00  0.00    -0.336 OA
ATOM      8  N   UNL     1     -11.813  -5.397  14.172  0.00  0.00    -0.190 NA
ATOM      9  N   UNL     1     -12.494  -7.408  13.320  0.00  0.00    -0.056 NA
ATOM     17  C   UNL     1     -12.639  -5.213  13.173  0.00  0.00    +0.245 A 
ATOM     21  C   UNL     1     -11.756  -6.759  14.226  0.00  0.00    +0.204 A 
ENDROOT
BRANCH  21  25
ATOM     10  N   UNL     1      -9.443  -9.262  15.716  0.00  0.00    -0.239 NA
ATOM     25  C   UNL     1     -10.948  -7.442  15.195  0.00  0.00    +0.041 A 
ATOM     27  C   UNL     1     -10.871  -6.993  16.508  0.00  0.00    +0.016 A 
ATOM     28  C   UNL     1     -10.221  -8.571  14.852  0.00  0.00    +0.124 A 
ATOM     29  C   UNL     1     -10.081  -7.675  17.426  0.00  0.00    +0.044 A 
ATOM     30  C   UNL     1      -9.393  -8.794  16.983  0.00  0.00    +0.125 A 
BRANCH  30  11
ATOM      6  O   UNL     1      -6.480  -9.545  16.892  0.00  0.00    -0.273 OA
ATOM     11  N   UNL     1      -8.601  -9.475  17.915  0.00  0.00    -0.268 N 
ATOM     31  C   UNL     1      -7.243  -9.798  17.819  0.00  0.00    +0.244 C 
ATOM     34  H   UNL     1      -9.095  -9.760  18.757  0.00  0.00    +0.156 HD
BRANCH  31  32
ATOM     32  C   UNL     1      -6.750 -10.550  19.036  0.00  0.00    +0.255 C 
BRANCH  32   5
ATOM      5  O   UNL     1      -7.861 -11.096  19.716  0.00  0.00    -0.374 OA
ATOM     33  C   UNL     1      -7.839 -12.519  19.712  0.00  0.00    +0.194 C 
ENDBRANCH  32   5
ENDBRANCH  31  32
ENDBRANCH  30  11
ENDBRANCH  21  25
BRANCH  17  12
ATOM      7  N   UNL     1     -13.139  -3.935  11.098  0.00  0.00    -0.287 NA
ATOM     12  C   UNL     1     -13.147  -3.918  12.574  0.00  0.00    +0.146 C 
ATOM     13  C   UNL     1     -14.608  -3.620  12.954  0.00  0.00    +0.030 C 
ATOM     14  C   UNL     1     -15.332  -3.424  11.630  0.00  0.00    +0.017 C 
ATOM     15  C   UNL     1     -14.222  -3.050  10.669  0.00  0.00    +0.085 C 
BRANCH   7  16
ATOM     16  C   UNL     1     -11.856  -3.548  10.524  0.00  0.00    +0.120 C 
BRANCH  16  18
ATOM     18  C   UNL     1     -11.384  -4.536   9.490  0.00  0.00    -0.033 A 
ATOM     19  C   UNL     1     -12.271  -5.482   8.974  0.00  0.00    +0.005 A 
ATOM     20  C   UNL     1     -10.063  -4.504   9.047  0.00  0.00    +0.005 A 
ATOM     22  C   UNL     1     -11.833  -6.397   8.016  0.00  0.00    +0.012 A 
ATOM     23  C   UNL     1      -9.625  -5.419   8.089  0.00  0.00    +0.012 A 
ATOM     24  C   UNL     1     -10.511  -6.365   7.573  0.00  0.00    +0.055 A 
BRANCH  24  26
ATOM      1  F   UNL     1      -8.699  -7.568   6.577  0.00  0.00    -0.166 F 
ATOM      2  F   UNL     1     -10.320  -6.935   5.273  0.00  0.00    -0.166 F 
ATOM      3  F   UNL     1     -10.618  -8.577   6.668  0.00  0.00    -0.166 F 
ATOM     26  C   UNL     1     -10.046  -7.341   6.546  0.00  0.00    +0.417 C 
ENDBRANCH  24  26
ENDBRANCH  16  18
ENDBRANCH   7  16
ENDBRANCH  17  12
TORSDOF 8
ENDMDL
MODEL 7
REMARK VINA RESULT:      -6.7     30.822     36.006
REMARK  Name = 45783642
REMARK  9 active torsions:
REMARK  status: ('A' for Active; 'I' for Inactive)
REMARK    1  A    between atoms: O_5  and  C_32
REMARK    2  A    between atoms: O_5  and  C_33
REMARK    3  A    between atoms: N_7  and  C_16
REMARK    4  A    between atoms: N_11  and  C_30
REMARK    5  A    between atoms: C_12  and  C_17
REMARK    6  A    between atoms: C_16  and  C_18
REMARK    7  A    between atoms: C_21  and  C_25
REMARK    8  A    between atoms: C_24  and  C_26
REMARK    9  A    between atoms: C_31  and  C_32
REMARK                            x       y       z     vdW  Elec       q    Type
REMARK                         _______ _______ _______ _____ _____    ______ ____
ROOT
ATOM      4  O   UNL     1      10.438   4.882   3.484  0.00  0.00    -0.336 OA
ATOM      8  N   UNL     1      11.846   6.514   2.878  0.00  0.00    -0.190 NA
ATOM      9  N   UNL     1      11.465   4.262   2.761  0.00  0.00    -0.056 NA
ATOM     17  C   UNL     1      10.739   6.206   3.505  0.00  0.00    +0.245 A 
ATOM     21  C   UNL     1      12.256   5.289   2.439  0.00  0.00    +0.204 A 
ENDROOT
BRANCH  21  25
ATOM     10  N   UNL     1      15.214   6.125   0.344  0.00  0.00    -0.239 NA
ATOM     25  C   UNL     1      13.462   5.126   1.677  0.00  0.00    +0.041 A 
ATOM     27  C   UNL     1      14.044   3.874   1.519  0.00  0.00    +0.016 A 
ATOM     28  C   UNL     1      14.080   6.210   1.075  0.00  0.00    +0.124 A 
ATOM     29  C   UNL     1      15.212   3.745   0.774  0.00  0.00    +0.044 A 
ATOM     30  C   UNL     1      15.752   4.891   0.213  0.00  0.00    +0.125 A 
BRANCH  30  11
ATOM      6  O   UNL     1      16.158   4.688  -2.761  0.00  0.00    -0.273 OA
ATOM     11  N   UNL     1      16.926   4.751  -0.535  0.00  0.00    -0.268 N 
ATOM     31  C   UNL     1      17.056   4.661  -1.925  0.00  0.00    +0.244 C 
ATOM     34  H   UNL     1      17.777   4.711   0.021  0.00  0.00    +0.156 HD
BRANCH  31  32
ATOM     32  C   UNL     1      18.499   4.508  -2.353  0.00  0.00    +0.255 C 
BRANCH  32   5
ATOM      5  O   UNL     1      18.533   4.109  -3.707  0.00  0.00    -0.374 OA
ATOM     33  C   UNL     1      19.745   3.436  -4.032  0.00  0.00    +0.194 C 
ENDBRANCH  32   5
ENDBRANCH  31  32
ENDBRANCH  30  11
ENDBRANCH  21  25
BRANCH  17  12
ATOM      7  N   UNL     1      10.323   8.452   4.491  0.00  0.00    -0.287 NA
ATOM     12  C   UNL     1       9.768   7.108   4.237  0.00  0.00    +0.146 C 
ATOM     13  C   UNL     1       8.476   7.363   3.439  0.00  0.00    +0.030 C 
ATOM     14  C   UNL     1       8.357   8.877   3.348  0.00  0.00    +0.017 C 
ATOM     15  C   UNL     1       9.185   9.372   4.516  0.00  0.00    +0.085 C 
BRANCH   7  16
ATOM     16  C   UNL     1      11.114   8.526   5.713  0.00  0.00    +0.120 C 
BRANCH  16  18
ATOM     18  C   UNL     1      10.629   7.553   6.754  0.00  0.00    -0.033 A 
ATOM     19  C   UNL     1      11.350   6.386   7.007  0.00  0.00    +0.005 A 
ATOM     20  C   UNL     1       9.460   7.819   7.467  0.00  0.00    +0.005 A 
ATOM     22  C   UNL     1      10.901   5.485   7.973  0.00  0.00    +0.012 A 
ATOM     23  C   UNL     1       9.010   6.918   8.432  0.00  0.00    +0.012 A 
ATOM     24  C   UNL     1       9.732   5.751   8.685  0.00  0.00    +0.055 A 
BRANCH  24  26
ATOM      1  F   UNL     1      10.135   4.607  10.747  0.00  0.00    -0.166 F 
ATOM      2  F   UNL     1       9.022   3.543   9.210  0.00  0.00    -0.166 F 
ATOM      3  F   UNL     1       8.083   5.164  10.316  0.00  0.00    -0.166 F 
ATOM     26  C   UNL     1       9.254   4.788   9.719  0.00  0.00    +0.417 C 
ENDBRANCH  24  26
ENDBRANCH  16  18
ENDBRANCH   7  16
ENDBRANCH  17  12
TORSDOF 8
ENDMDL
MODEL 8
REMARK VINA RESULT:      -6.7     30.273     34.427
REMARK  Name = 45783642
REMARK  9 active torsions:
REMARK  status: ('A' for Active; 'I' for Inactive)
REMARK    1  A    between atoms: O_5  and  C_32
REMARK    2  A    between atoms: O_5  and  C_33
REMARK    3  A    between atoms: N_7  and  C_16
REMARK    4  A    between atoms: N_11  and  C_30
REMARK    5  A    between atoms: C_12  and  C_17
REMARK    6  A    between atoms: C_16  and  C_18
REMARK    7  A    between atoms: C_21  and  C_25
REMARK    8  A    between atoms: C_24  and  C_26
REMARK    9  A    between atoms: C_31  and  C_32
REMARK                            x       y       z     vdW  Elec       q    Type
REMARK                         _______ _______ _______ _____ _____    ______ ____
ROOT
ATOM      4  O   UNL     1      10.077   4.381   5.553  0.00  0.00    -0.336 OA
ATOM      8  N   UNL     1      11.014   5.838   4.134  0.00  0.00    -0.190 NA
ATOM      9  N   UNL     1      10.244   3.694   4.344  0.00  0.00    -0.056 NA
ATOM     17  C   UNL     1      10.555   5.634   5.343  0.00  0.00    +0.245 A 
ATOM     21  C   UNL     1      10.803   4.619   3.558  0.00  0.00    +0.204 A 
ENDROOT
BRANCH  21  25
ATOM     10  N   UNL     1      10.543   4.392  -0.145  0.00  0.00    -0.239 NA
ATOM     25  C   UNL     1      11.159   4.359   2.192  0.00  0.00    +0.041 A 
ATOM     27  C   UNL     1      12.406   3.838   1.864  0.00  0.00    +0.016 A 
ATOM     28  C   UNL     1      10.271   4.616   1.160  0.00  0.00    +0.124 A 
ATOM     29  C   UNL     1      12.724   3.596   0.532  0.00  0.00    +0.044 A 
ATOM     30  C   UNL     1      11.766   3.887  -0.426  0.00  0.00    +0.125 A 
BRANCH  30  11
ATOM      6  O   UNL     1      10.451   2.100  -2.458  0.00  0.00    -0.273 OA
ATOM     11  N   UNL     1      12.095   3.637  -1.763  0.00  0.00    -0.268 N 
ATOM     31  C   UNL     1      11.443   2.791  -2.666  0.00  0.00    +0.244 C 
ATOM     34  H   UNL     1      12.911   4.144  -2.096  0.00  0.00    +0.156 HD
BRANCH  31  32
ATOM     32  C   UNL     1      12.112   2.786  -4.024  0.00  0.00    +0.255 C 
BRANCH  32   5
ATOM      5  O   UNL     1      11.124   2.954  -5.019  0.00  0.00    -0.374 OA
ATOM     33  C   UNL     1      10.815   4.328  -5.233  0.00  0.00    +0.194 C 
ENDBRANCH  32   5
ENDBRANCH  31  32
ENDBRANCH  30  11
ENDBRANCH  21  25
BRANCH  17  12
ATOM      7  N   UNL     1       9.367   7.545   6.405  0.00  0.00    -0.287 NA
ATOM     12  C   UNL     1      10.486   6.589   6.516  0.00  0.00    +0.146 C 
ATOM     13  C   UNL     1      10.253   5.868   7.856  0.00  0.00    +0.030 C 
ATOM     14  C   UNL     1       9.019   6.527   8.454  0.00  0.00    +0.017 C 
ATOM     15  C   UNL     1       8.973   7.880   7.774  0.00  0.00    +0.085 C 
BRANCH   7  16
ATOM     16  C   UNL     1       9.699   8.731   5.625  0.00  0.00    +0.120 C 
BRANCH  16  18
ATOM     18  C   UNL     1       8.638   9.044   4.603  0.00  0.00    -0.033 A 
ATOM     19  C   UNL     1       8.772   8.580   3.294  0.00  0.00    +0.005 A 
ATOM     20  C   UNL     1       7.521   9.795   4.966  0.00  0.00    +0.005 A 
ATOM     22  C   UNL     1       7.789   8.869   2.348  0.00  0.00    +0.012 A 
ATOM     23  C   UNL     1       6.537  10.085   4.019  0.00  0.00    +0.012 A 
ATOM     24  C   UNL     1       6.672   9.621   2.710  0.00  0.00    +0.055 A 
BRANCH  24  26
ATOM      1  F   UNL     1       5.774   9.246   0.525  0.00  0.00    -0.166 F 
ATOM      2  F   UNL     1       5.590  11.248   1.355  0.00  0.00    -0.166 F 
ATOM      3  F   UNL     1       4.354   9.630   2.120  0.00  0.00    -0.166 F 
ATOM     26  C   UNL     1       5.620   9.927   1.699  0.00  0.00    +0.417 C 
ENDBRANCH  24  26
ENDBRANCH  16  18
ENDBRANCH   7  16
ENDBRANCH  17  12
TORSDOF 8
ENDMDL
MODEL 9
REMARK VINA RESULT:      -6.7     16.298     18.839
REMARK  Name = 45783642
REMARK  9 active torsions:
REMARK  status: ('A' for Active; 'I' for Inactive)
REMARK    1  A    between atoms: O_5  and  C_32
REMARK    2  A    between atoms: O_5  and  C_33
REMARK    3  A    between atoms: N_7  and  C_16
REMARK    4  A    between atoms: N_11  and  C_30
REMARK    5  A    between atoms: C_12  and  C_17
REMARK    6  A    between atoms: C_16  and  C_18
REMARK    7  A    between atoms: C_21  and  C_25
REMARK    8  A    between atoms: C_24  and  C_26
REMARK    9  A    between atoms: C_31  and  C_32
REMARK                            x       y       z     vdW  Elec       q    Type
REMARK                         _______ _______ _______ _____ _____    ______ ____
ROOT
ATOM      4  O   UNL     1     -10.609 -10.331  18.729  0.00  0.00    -0.336 OA
ATOM      8  N   UNL     1      -9.533  -9.553  16.926  0.00  0.00    -0.190 NA
ATOM      9  N   UNL     1     -11.395  -9.286  18.227  0.00  0.00    -0.056 NA
ATOM     17  C   UNL     1      -9.533 -10.421  17.906  0.00  0.00    +0.245 A 
ATOM     21  C   UNL     1     -10.695  -8.879  17.164  0.00  0.00    +0.204 A 
ENDROOT
BRANCH  21  25
ATOM     10  N   UNL     1     -10.560  -5.858  14.999  0.00  0.00    -0.239 NA
ATOM     25  C   UNL     1     -11.127  -7.801  16.322  0.00  0.00    +0.041 A 
ATOM     27  C   UNL     1     -12.471  -7.631  16.008  0.00  0.00    +0.016 A 
ATOM     28  C   UNL     1     -10.219  -6.895  15.797  0.00  0.00    +0.124 A 
ATOM     29  C   UNL     1     -12.861  -6.577  15.190  0.00  0.00    +0.044 A 
ATOM     30  C   UNL     1     -11.875  -5.726  14.716  0.00  0.00    +0.125 A 
BRANCH  30  11
ATOM      6  O   UNL     1     -12.192  -5.585  11.727  0.00  0.00    -0.273 OA
ATOM     11  N   UNL     1     -12.278  -4.666  13.894  0.00  0.00    -0.268 N 
ATOM     31  C   UNL     1     -12.408  -4.658  12.502  0.00  0.00    +0.244 C 
ATOM     34  H   UNL     1     -12.497  -3.808  14.394  0.00  0.00    +0.156 HD
BRANCH  31  32
ATOM     32  C   UNL     1     -12.862  -3.312  11.981  0.00  0.00    +0.255 C 
BRANCH  32   5
ATOM      5  O   UNL     1     -14.020  -3.495  11.193  0.00  0.00    -0.374 OA
ATOM     33  C   UNL     1     -15.152  -3.837  11.986  0.00  0.00    +0.194 C 
ENDBRANCH  32   5
ENDBRANCH  31  32
ENDBRANCH  30  11
ENDBRANCH  21  25
BRANCH  17  12
ATOM      7  N   UNL     1      -8.044 -11.412  19.636  0.00  0.00    -0.287 NA
ATOM     12  C   UNL     1      -8.516 -11.492  18.239  0.00  0.00    +0.146 C 
ATOM     13  C   UNL     1      -9.084 -12.916  18.100  0.00  0.00    +0.030 C 
ATOM     14  C   UNL     1      -8.832 -13.579  19.446  0.00  0.00    +0.017 C 
ATOM     15  C   UNL     1      -7.689 -12.775  20.031  0.00  0.00    +0.085 C 
BRANCH   7  16
ATOM     16  C   UNL     1      -6.935 -10.483  19.816  0.00  0.00    +0.120 C 
BRANCH  16  18
ATOM     18  C   UNL     1      -5.874 -10.666  18.764  0.00  0.00    -0.033 A 
ATOM     19  C   UNL     1      -5.953  -9.960  17.563  0.00  0.00    +0.005 A 
ATOM     20  C   UNL     1      -4.812 -11.541  18.990  0.00  0.00    +0.005 A 
ATOM     22  C   UNL     1      -4.969 -10.131  16.589  0.00  0.00    +0.012 A 
ATOM     23  C   UNL     1      -3.828 -11.711  18.015  0.00  0.00    +0.012 A 
ATOM     24  C   UNL     1      -3.907 -11.005  16.815  0.00  0.00    +0.055 A 
BRANCH  24  26
ATOM      1  F   UNL     1      -2.852 -12.425  15.204  0.00  0.00    -0.166 F 
ATOM      2  F   UNL     1      -1.594 -11.003  16.265  0.00  0.00    -0.166 F 
ATOM      3  F   UNL     1      -2.968 -10.313  14.727  0.00  0.00    -0.166 F 
ATOM     26  C   UNL     1      -2.855 -11.184  15.774  0.00  0.00    +0.417 C 
ENDBRANCH  24  26
ENDBRANCH  16  18
ENDBRANCH   7  16
ENDBRANCH  17  12
TORSDOF 8
ENDMDL
MODEL 10
REMARK VINA RESULT:      -6.7     18.495     20.908
REMARK  Name = 45783642
REMARK  9 active torsions:
REMARK  status: ('A' for Active; 'I' for Inactive)
REMARK    1  A    between atoms: O_5  and  C_32
REMARK    2  A    between atoms: O_5  and  C_33
REMARK    3  A    between atoms: N_7  and  C_16
REMARK    4  A    between atoms: N_11  and  C_30
REMARK    5  A    between atoms: C_12  and  C_17
REMARK    6  A    between atoms: C_16  and  C_18
REMARK    7  A    between atoms: C_21  and  C_25
REMARK    8  A    between atoms: C_24  and  C_26
REMARK    9  A    between atoms: C_31  and  C_32
REMARK                            x       y       z     vdW  Elec       q    Type
REMARK                         _______ _______ _______ _____ _____    ______ ____
ROOT
ATOM      4  O   UNL     1      -9.494 -11.124  20.308  0.00  0.00    -0.336 OA
ATOM      8  N   UNL     1      -9.604 -11.052  18.072  0.00  0.00    -0.190 NA
ATOM      9  N   UNL     1      -8.176 -10.982  19.858  0.00  0.00    -0.056 NA
ATOM     17  C   UNL     1     -10.271 -11.157  19.194  0.00  0.00    +0.245 A 
ATOM     21  C   UNL     1      -8.323 -10.947  18.530  0.00  0.00    +0.204 A 
ENDROOT
BRANCH  21  25
ATOM     10  N   UNL     1      -5.320 -11.823  16.519  0.00  0.00    -0.239 NA
ATOM     25  C   UNL     1      -7.211 -10.810  17.633  0.00  0.00    +0.041 A 
ATOM     27  C   UNL     1      -6.931  -9.594  17.021  0.00  0.00    +0.016 A 
ATOM     28  C   UNL     1      -6.383 -11.884  17.352  0.00  0.00    +0.124 A 
ATOM     29  C   UNL     1      -5.846  -9.490  16.157  0.00  0.00    +0.044 A 
ATOM     30  C   UNL     1      -5.079 -10.624  15.942  0.00  0.00    +0.125 A 
BRANCH  30  11
ATOM      6  O   UNL     1      -2.125 -10.842  16.474  0.00  0.00    -0.273 OA
ATOM     11  N   UNL     1      -3.988 -10.509  15.071  0.00  0.00    -0.268 N 
ATOM     31  C   UNL     1      -2.628 -10.621  15.377  0.00  0.00    +0.244 C 
ATOM     34  H   UNL     1      -4.241 -10.321  14.104  0.00  0.00    +0.156 HD
BRANCH  31  32
ATOM     32  C   UNL     1      -1.754 -10.424  14.157  0.00  0.00    +0.255 C 
BRANCH  32   5
ATOM      5  O   UNL     1      -2.009 -11.468  13.240  0.00  0.00    -0.374 OA
ATOM     33  C   UNL     1      -1.531 -12.721  13.718  0.00  0.00    +0.194 C 
ENDBRANCH  32   5
ENDBRANCH  31  32
ENDBRANCH  30  11
ENDBRANCH  21  25
BRANCH  17  12
ATOM      7  N   UNL     1     -12.082 -11.991  20.683  0.00  0.00    -0.287 NA
ATOM     12  C   UNL     1     -11.762 -11.306  19.415  0.00  0.00    +0.146 C 
ATOM     13  C   UNL     1     -12.487  -9.952  19.508  0.00  0.00    +0.030 C 
ATOM     14  C   UNL     1     -13.237  -9.992  20.831  0.00  0.00    +0.017 C 
ATOM     15  C   UNL     1     -13.380 -11.473  21.116  0.00  0.00    +0.085 C 
BRANCH   7  16
ATOM     16  C   UNL     1     -12.082 -13.444  20.567  0.00  0.00    +0.120 C 
BRANCH  16  18
ATOM     18  C   UNL     1     -11.080 -14.080  21.493  0.00  0.00    -0.033 A 
ATOM     19  C   UNL     1     -11.419 -14.329  22.824  0.00  0.00    +0.005 A 
ATOM     20  C   UNL     1      -9.813 -14.421  21.021  0.00  0.00    +0.005 A 
ATOM     22  C   UNL     1     -10.490 -14.918  23.681  0.00  0.00    +0.012 A 
ATOM     23  C   UNL     1      -8.883 -15.010  21.879  0.00  0.00    +0.012 A 
ATOM     24  C   UNL     1      -9.223 -15.259  23.209  0.00  0.00    +0.055 A 
BRANCH  24  26
ATOM      1  F   UNL     1      -7.448 -14.992  24.791  0.00  0.00    -0.166 F 
ATOM      2  F   UNL     1      -7.365 -16.720  23.472  0.00  0.00    -0.166 F 
ATOM      3  F   UNL     1      -8.802 -16.658  25.103  0.00  0.00    -0.166 F 
ATOM     26  C   UNL     1      -8.231 -15.892  24.126  0.00  0.00    +0.417 C 
ENDBRANCH  24  26
ENDBRANCH  16  18
ENDBRANCH   7  16
ENDBRANCH  17  12
TORSDOF 8
ENDMDL
