MODEL 1
REMARK VINA RESULT:      -8.0      0.000      0.000
REMARK  Name = 7050187
REMARK  12 active torsions:
REMARK  status: ('A' for Active; 'I' for Inactive)
REMARK    1  A    between atoms: O_3  and  C_12
REMARK    2  A    between atoms: O_4  and  C_16
REMARK    3  A    between atoms: O_5  and  C_17
REMARK    4  A    between atoms: N_9  and  C_13
REMARK    5  A    between atoms: N_10  and  C_19
REMARK    6  A    between atoms: C_12  and  C_18
REMARK    7  A    between atoms: C_19  and  C_20
REMARK    8  A    between atoms: C_19  and  C_23
REMARK    9  A    between atoms: C_20  and  C_22
REMARK   10  A    between atoms: C_21  and  C_24
REMARK   11  A    between atoms: C_22  and  C_25
REMARK   12  A    between atoms: C_22  and  C_26
REMARK                            x       y       z     vdW  Elec       q    Type
REMARK                         _______ _______ _______ _____ _____    ______ ____
ROOT
ATOM     12  C   UNL     1      11.917   9.574  22.312  0.00  0.00    +0.146 C 
ATOM     13  C   UNL     1      13.173   7.515  21.513  0.00  0.00    +0.107 C 
ATOM     14  C   UNL     1      13.282   8.905  22.148  0.00  0.00    +0.069 C 
ATOM     15  C   UNL     1      11.160   9.621  20.985  0.00  0.00    +0.078 C 
ATOM     16  C   UNL     1      12.394   7.550  20.191  0.00  0.00    +0.163 C 
ATOM     17  C   UNL     1      11.035   8.238  20.344  0.00  0.00    +0.148 C 
ENDROOT
BRANCH  12  18
ATOM      6  O   UNL     1      13.039  11.281  23.550  0.00  0.00    -0.273 OA
ATOM     10  N   UNL     1      11.000  11.776  22.543  0.00  0.00    -0.302 N 
ATOM     18  C   UNL     1      12.069  10.959  22.870  0.00  0.00    +0.245 C 
ATOM     34  H   UNL     1      10.259  11.428  21.944  0.00  0.00    +0.150 HD
BRANCH  10  19
ATOM     19  C   UNL     1      10.894  13.151  22.977  0.00  0.00    +0.159 C 
BRANCH  19  23
ATOM      8  O   UNL     1       9.241  14.504  21.817  0.00  0.00    -0.274 OA
ATOM     11  N   UNL     1      11.216  14.023  20.745  0.00  0.00    -0.328 N 
ATOM     23  C   UNL     1      10.337  13.947  21.806  0.00  0.00    +0.231 C 
ATOM     37  H   UNL     1      10.973  14.536  19.905  0.00  0.00    +0.145 HD
ATOM     38  H   UNL     1      12.127  13.577  20.759  0.00  0.00    +0.145 HD
ENDBRANCH  19  23
BRANCH  19  20
ATOM     20  C   UNL     1       9.987  13.304  24.204  0.00  0.00    +0.034 C 
BRANCH  20  22
ATOM     22  C   UNL     1      10.603  14.105  25.369  0.00  0.00    -0.015 C 
ATOM     25  C   UNL     1      11.955  13.543  25.811  0.00  0.00    +0.007 C 
ATOM     26  C   UNL     1      10.764  15.571  24.959  0.00  0.00    +0.007 C 
ENDBRANCH  20  22
ENDBRANCH  19  20
ENDBRANCH  10  19
ENDBRANCH  12  18
BRANCH  13   9
ATOM      7  O   UNL     1      15.285   8.663  19.943  0.00  0.00    -0.270 OA
ATOM      9  N   UNL     1      14.495   6.964  21.310  0.00  0.00    -0.306 N 
ATOM     21  C   UNL     1      15.450   7.597  20.531  0.00  0.00    +0.244 C 
ATOM     32  H   UNL     1      14.664   6.032  21.672  0.00  0.00    +0.149 HD
BRANCH  21  24
ATOM      1 CL   UNL     1      20.174   6.611  22.447  0.00  0.00    -0.081 Cl
ATOM      2  F   UNL     1      20.353   4.906  20.027  0.00  0.00    -0.204 F 
ATOM     24  C   UNL     1      16.749   6.888  20.401  0.00  0.00    +0.038 A 
ATOM     27  C   UNL     1      17.738   7.061  21.370  0.00  0.00    +0.036 A 
ATOM     28  C   UNL     1      16.979   6.049  19.312  0.00  0.00    +0.016 A 
ATOM     29  C   UNL     1      18.957   6.394  21.248  0.00  0.00    +0.077 A 
ATOM     30  C   UNL     1      18.198   5.382  19.190  0.00  0.00    +0.040 A 
ATOM     31  C   UNL     1      19.188   5.555  20.158  0.00  0.00    +0.142 A 
ENDBRANCH  21  24
ENDBRANCH  13   9
BRANCH  12   3
ATOM      3  O   UNL     1      11.131   8.876  23.270  0.00  0.00    -0.379 OA
ATOM     33  H   UNL     1      10.348   9.413  23.477  0.00  0.00    +0.211 HD
ENDBRANCH  12   3
BRANCH  16   4
ATOM      4  O   UNL     1      12.153   6.209  19.755  0.00  0.00    -0.387 OA
ATOM     35  H   UNL     1      11.660   5.748  20.455  0.00  0.00    +0.210 HD
ENDBRANCH  16   4
BRANCH  17   5
ATOM      5  O   UNL     1      10.453   8.382  19.048  0.00  0.00    -0.389 OA
ATOM     36  H   UNL     1       9.508   8.575  19.171  0.00  0.00    +0.210 HD
ENDBRANCH  17   5
TORSDOF 10
ENDMDL
MODEL 2
REMARK VINA RESULT:      -7.5      1.845      2.717
REMARK  Name = 7050187
REMARK  12 active torsions:
REMARK  status: ('A' for Active; 'I' for Inactive)
REMARK    1  A    between atoms: O_3  and  C_12
REMARK    2  A    between atoms: O_4  and  C_16
REMARK    3  A    between atoms: O_5  and  C_17
REMARK    4  A    between atoms: N_9  and  C_13
REMARK    5  A    between atoms: N_10  and  C_19
REMARK    6  A    between atoms: C_12  and  C_18
REMARK    7  A    between atoms: C_19  and  C_20
REMARK    8  A    between atoms: C_19  and  C_23
REMARK    9  A    between atoms: C_20  and  C_22
REMARK   10  A    between atoms: C_21  and  C_24
REMARK   11  A    between atoms: C_22  and  C_25
REMARK   12  A    between atoms: C_22  and  C_26
REMARK                            x       y       z     vdW  Elec       q    Type
REMARK                         _______ _______ _______ _____ _____    ______ ____
ROOT
ATOM     12  C   UNL     1      11.521   9.064  22.205  0.00  0.00    +0.146 C 
ATOM     13  C   UNL     1      12.968   7.237  21.195  0.00  0.00    +0.107 C 
ATOM     14  C   UNL     1      12.928   8.475  22.096  0.00  0.00    +0.069 C 
ATOM     15  C   UNL     1      10.934   9.356  20.825  0.00  0.00    +0.078 C 
ATOM     16  C   UNL     1      12.359   7.515  19.814  0.00  0.00    +0.163 C 
ATOM     17  C   UNL     1      10.959   8.125  19.917  0.00  0.00    +0.148 C 
ENDROOT
BRANCH  12  18
ATOM      6  O   UNL     1      10.505  10.780  23.520  0.00  0.00    -0.273 OA
ATOM     10  N   UNL     1      12.803  10.852  23.155  0.00  0.00    -0.302 N 
ATOM     18  C   UNL     1      11.533  10.314  23.037  0.00  0.00    +0.245 C 
ATOM     34  H   UNL     1      13.598  10.372  22.746  0.00  0.00    +0.150 HD
BRANCH  10  19
ATOM     19  C   UNL     1      13.081  12.067  23.887  0.00  0.00    +0.159 C 
BRANCH  19  23
ATOM      8  O   UNL     1      14.894  12.666  25.392  0.00  0.00    -0.274 OA
ATOM     11  N   UNL     1      15.029  10.681  24.246  0.00  0.00    -0.328 N 
ATOM     23  C   UNL     1      14.421  11.872  24.581  0.00  0.00    +0.231 C 
ATOM     37  H   UNL     1      15.923  10.421  24.648  0.00  0.00    +0.145 HD
ATOM     38  H   UNL     1      14.616  10.023  23.591  0.00  0.00    +0.145 HD
ENDBRANCH  19  23
BRANCH  19  20
ATOM     20  C   UNL     1      13.130  13.297  22.972  0.00  0.00    +0.034 C 
BRANCH  20  22
ATOM     22  C   UNL     1      13.010  12.989  21.466  0.00  0.00    -0.015 C 
ATOM     25  C   UNL     1      11.710  13.525  20.864  0.00  0.00    +0.007 C 
ATOM     26  C   UNL     1      14.207  13.584  20.719  0.00  0.00    +0.007 C 
ENDBRANCH  20  22
ENDBRANCH  19  20
ENDBRANCH  10  19
ENDBRANCH  12  18
BRANCH  13   9
ATOM      7  O   UNL     1      15.131   8.605  19.893  0.00  0.00    -0.270 OA
ATOM      9  N   UNL     1      14.331   6.771  21.065  0.00  0.00    -0.306 N 
ATOM     21  C   UNL     1      15.308   7.507  20.416  0.00  0.00    +0.244 C 
ATOM     32  H   UNL     1      14.524   5.823  21.373  0.00  0.00    +0.149 HD
BRANCH  21  24
ATOM      1 CL   UNL     1      19.994   6.806  22.541  0.00  0.00    -0.081 Cl
ATOM      2  F   UNL     1      20.381   5.113  20.137  0.00  0.00    -0.204 F 
ATOM     24  C   UNL     1      16.652   6.877  20.345  0.00  0.00    +0.038 A 
ATOM     27  C   UNL     1      17.586   7.110  21.356  0.00  0.00    +0.036 A 
ATOM     28  C   UNL     1      16.979   6.053  19.270  0.00  0.00    +0.016 A 
ATOM     29  C   UNL     1      18.846   6.516  21.290  0.00  0.00    +0.077 A 
ATOM     30  C   UNL     1      18.240   5.459  19.204  0.00  0.00    +0.040 A 
ATOM     31  C   UNL     1      19.174   5.691  20.214  0.00  0.00    +0.142 A 
ENDBRANCH  21  24
ENDBRANCH  13   9
BRANCH  12   3
ATOM      3  O   UNL     1      10.657   8.170  22.897  0.00  0.00    -0.379 OA
ATOM     33  H   UNL     1      10.544   8.492  23.807  0.00  0.00    +0.211 HD
ENDBRANCH  12   3
BRANCH  16   4
ATOM      4  O   UNL     1      12.242   6.283  19.097  0.00  0.00    -0.387 OA
ATOM     35  H   UNL     1      12.799   5.621  19.543  0.00  0.00    +0.210 HD
ENDBRANCH  16   4
BRANCH  17   5
ATOM      5  O   UNL     1      10.536   8.510  18.609  0.00  0.00    -0.389 OA
ATOM     36  H   UNL     1      10.752   9.451  18.495  0.00  0.00    +0.210 HD
ENDBRANCH  17   5
TORSDOF 10
ENDMDL
MODEL 3
REMARK VINA RESULT:      -7.3      3.488      5.653
REMARK  Name = 7050187
REMARK  12 active torsions:
REMARK  status: ('A' for Active; 'I' for Inactive)
REMARK    1  A    between atoms: O_3  and  C_12
REMARK    2  A    between atoms: O_4  and  C_16
REMARK    3  A    between atoms: O_5  and  C_17
REMARK    4  A    between atoms: N_9  and  C_13
REMARK    5  A    between atoms: N_10  and  C_19
REMARK    6  A    between atoms: C_12  and  C_18
REMARK    7  A    between atoms: C_19  and  C_20
REMARK    8  A    between atoms: C_19  and  C_23
REMARK    9  A    between atoms: C_20  and  C_22
REMARK   10  A    between atoms: C_21  and  C_24
REMARK   11  A    between atoms: C_22  and  C_25
REMARK   12  A    between atoms: C_22  and  C_26
REMARK                            x       y       z     vdW  Elec       q    Type
REMARK                         _______ _______ _______ _____ _____    ______ ____
ROOT
ATOM     12  C   UNL     1      15.286   7.294  20.229  0.00  0.00    +0.146 C 
ATOM     13  C   UNL     1      17.660   7.135  21.122  0.00  0.00    +0.107 C 
ATOM     14  C   UNL     1      16.432   8.030  20.926  0.00  0.00    +0.069 C 
ATOM     15  C   UNL     1      15.746   6.675  18.910  0.00  0.00    +0.078 C 
ATOM     16  C   UNL     1      18.114   6.492  19.804  0.00  0.00    +0.163 C 
ATOM     17  C   UNL     1      16.967   5.771  19.092  0.00  0.00    +0.148 C 
ENDROOT
BRANCH  12  18
ATOM      6  O   UNL     1      14.040   8.897  18.972  0.00  0.00    -0.273 OA
ATOM     10  N   UNL     1      13.232   8.218  21.046  0.00  0.00    -0.302 N 
ATOM     18  C   UNL     1      14.129   8.220  19.991  0.00  0.00    +0.245 C 
ATOM     34  H   UNL     1      13.375   7.595  21.834  0.00  0.00    +0.150 HD
BRANCH  10  19
ATOM     19  C   UNL     1      12.043   9.040  21.073  0.00  0.00    +0.159 C 
BRANCH  19  23
ATOM      8  O   UNL     1      10.592   8.400  19.230  0.00  0.00    -0.274 OA
ATOM     11  N   UNL     1      10.386   7.286  21.228  0.00  0.00    -0.328 N 
ATOM     23  C   UNL     1      10.934   8.243  20.401  0.00  0.00    +0.231 C 
ATOM     37  H   UNL     1       9.646   6.676  20.900  0.00  0.00    +0.145 HD
ATOM     38  H   UNL     1      10.695   7.152  22.186  0.00  0.00    +0.145 HD
ENDBRANCH  19  23
BRANCH  19  20
ATOM     20  C   UNL     1      11.633   9.421  22.501  0.00  0.00    +0.034 C 
BRANCH  20  22
ATOM     22  C   UNL     1      11.810  10.913  22.849  0.00  0.00    -0.015 C 
ATOM     25  C   UNL     1      11.411  11.831  21.692  0.00  0.00    +0.007 C 
ATOM     26  C   UNL     1      10.979  11.257  24.088  0.00  0.00    +0.007 C 
ENDBRANCH  20  22
ENDBRANCH  19  20
ENDBRANCH  10  19
ENDBRANCH  12  18
BRANCH  13   9
ATOM      7  O   UNL     1      19.643   6.175  22.963  0.00  0.00    -0.270 OA
ATOM      9  N   UNL     1      18.735   7.903  21.710  0.00  0.00    -0.306 N 
ATOM     21  C   UNL     1      19.647   7.347  22.593  0.00  0.00    +0.244 C 
ATOM     32  H   UNL     1      18.733   8.903  21.539  0.00  0.00    +0.149 HD
BRANCH  21  24
ATOM      1 CL   UNL     1      22.882  11.328  21.784  0.00  0.00    -0.081 Cl
ATOM      2  F   UNL     1      23.527  10.853  24.639  0.00  0.00    -0.204 F 
ATOM     24  C   UNL     1      20.675   8.275  23.129  0.00  0.00    +0.038 A 
ATOM     27  C   UNL     1      21.233   9.252  22.303  0.00  0.00    +0.036 A 
ATOM     28  C   UNL     1      21.080   8.172  24.459  0.00  0.00    +0.016 A 
ATOM     29  C   UNL     1      22.197  10.124  22.808  0.00  0.00    +0.077 A 
ATOM     30  C   UNL     1      22.044   9.046  24.964  0.00  0.00    +0.040 A 
ATOM     31  C   UNL     1      22.603  10.021  24.138  0.00  0.00    +0.142 A 
ENDBRANCH  21  24
ENDBRANCH  13   9
BRANCH  12   3
ATOM      3  O   UNL     1      14.770   6.267  21.068  0.00  0.00    -0.379 OA
ATOM     33  H   UNL     1      14.933   5.410  20.642  0.00  0.00    +0.211 HD
ENDBRANCH  12   3
BRANCH  16   4
ATOM      4  O   UNL     1      19.127   5.521  20.083  0.00  0.00    -0.387 OA
ATOM     35  H   UNL     1      18.772   4.895  20.738  0.00  0.00    +0.210 HD
ENDBRANCH  16   4
BRANCH  17   5
ATOM      5  O   UNL     1      17.425   5.352  17.807  0.00  0.00    -0.389 OA
ATOM     36  H   UNL     1      17.031   4.481  17.625  0.00  0.00    +0.210 HD
ENDBRANCH  17   5
TORSDOF 10
ENDMDL
MODEL 4
REMARK VINA RESULT:      -7.1     28.157     30.324
REMARK  Name = 7050187
REMARK  12 active torsions:
REMARK  status: ('A' for Active; 'I' for Inactive)
REMARK    1  A    between atoms: O_3  and  C_12
REMARK    2  A    between atoms: O_4  and  C_16
REMARK    3  A    between atoms: O_5  and  C_17
REMARK    4  A    between atoms: N_9  and  C_13
REMARK    5  A    between atoms: N_10  and  C_19
REMARK    6  A    between atoms: C_12  and  C_18
REMARK    7  A    between atoms: C_19  and  C_20
REMARK    8  A    between atoms: C_19  and  C_23
REMARK    9  A    between atoms: C_20  and  C_22
REMARK   10  A    between atoms: C_21  and  C_24
REMARK   11  A    between atoms: C_22  and  C_25
REMARK   12  A    between atoms: C_22  and  C_26
REMARK                            x       y       z     vdW  Elec       q    Type
REMARK                         _______ _______ _______ _____ _____    ______ ____
ROOT
ATOM     12  C   UNL     1      -4.877 -11.477  17.120  0.00  0.00    +0.146 C 
ATOM     13  C   UNL     1      -7.222 -10.533  17.386  0.00  0.00    +0.107 C 
ATOM     14  C   UNL     1      -5.899 -10.456  16.616  0.00  0.00    +0.069 C 
ATOM     15  C   UNL     1      -4.659 -11.346  18.626  0.00  0.00    +0.078 C 
ATOM     16  C   UNL     1      -7.008 -10.425  18.902  0.00  0.00    +0.163 C 
ATOM     17  C   UNL     1      -5.971 -11.431  19.408  0.00  0.00    +0.148 C 
ENDROOT
BRANCH  12  18
ATOM      6  O   UNL     1      -2.779 -10.430  16.667  0.00  0.00    -0.273 OA
ATOM     10  N   UNL     1      -3.413 -12.276  15.400  0.00  0.00    -0.302 N 
ATOM     18  C   UNL     1      -3.573 -11.325  16.392  0.00  0.00    +0.245 C 
ATOM     34  H   UNL     1      -4.113 -12.999  15.271  0.00  0.00    +0.150 HD
BRANCH  10  19
ATOM     19  C   UNL     1      -2.253 -12.333  14.540  0.00  0.00    +0.159 C 
BRANCH  19  23
ATOM      8  O   UNL     1      -2.915 -14.665  14.355  0.00  0.00    -0.274 OA
ATOM     11  N   UNL     1      -1.038 -13.964  13.230  0.00  0.00    -0.328 N 
ATOM     23  C   UNL     1      -2.120 -13.773  14.065  0.00  0.00    +0.231 C 
ATOM     37  H   UNL     1      -0.842 -14.876  12.833  0.00  0.00    +0.145 HD
ATOM     38  H   UNL     1      -0.403 -13.212  12.982  0.00  0.00    +0.145 HD
ENDBRANCH  19  23
BRANCH  19  20
ATOM     20  C   UNL     1      -2.373 -11.387  13.339  0.00  0.00    +0.034 C 
BRANCH  20  22
ATOM     22  C   UNL     1      -3.661 -11.556  12.508  0.00  0.00    -0.015 C 
ATOM     25  C   UNL     1      -4.578 -10.336  12.601  0.00  0.00    +0.007 C 
ATOM     26  C   UNL     1      -3.300 -11.817  11.043  0.00  0.00    +0.007 C 
ENDBRANCH  20  22
ENDBRANCH  19  20
ENDBRANCH  10  19
ENDBRANCH  12  18
BRANCH  13   9
ATOM      7  O   UNL     1     -10.047 -10.783  16.938  0.00  0.00    -0.270 OA
ATOM      9  N   UNL     1      -8.118  -9.496  16.923  0.00  0.00    -0.306 N 
ATOM     21  C   UNL     1      -9.472  -9.716  16.737  0.00  0.00    +0.244 C 
ATOM     32  H   UNL     1      -7.695  -8.622  16.629  0.00  0.00    +0.149 HD
BRANCH  21  24
ATOM      1 CL   UNL     1     -12.319  -7.601  12.944  0.00  0.00    -0.081 Cl
ATOM      2  F   UNL     1     -12.419  -5.326  14.843  0.00  0.00    -0.204 F 
ATOM     24  C   UNL     1     -10.251  -8.556  16.232  0.00  0.00    +0.038 A 
ATOM     27  C   UNL     1     -10.850  -8.613  14.972  0.00  0.00    +0.036 A 
ATOM     28  C   UNL     1     -10.385  -7.412  17.016  0.00  0.00    +0.016 A 
ATOM     29  C   UNL     1     -11.582  -7.524  14.499  0.00  0.00    +0.077 A 
ATOM     30  C   UNL     1     -11.119  -6.323  16.543  0.00  0.00    +0.040 A 
ATOM     31  C   UNL     1     -11.717  -6.379  15.284  0.00  0.00    +0.142 A 
ENDBRANCH  21  24
ENDBRANCH  13   9
BRANCH  12   3
ATOM      3  O   UNL     1      -5.309 -12.801  16.827  0.00  0.00    -0.379 OA
ATOM     33  H   UNL     1      -5.547 -12.846  15.886  0.00  0.00    +0.211 HD
ENDBRANCH  12   3
BRANCH  16   4
ATOM      4  O   UNL     1      -8.242 -10.704  19.569  0.00  0.00    -0.387 OA
ATOM     35  H   UNL     1      -8.684  -9.857  19.752  0.00  0.00    +0.210 HD
ENDBRANCH  16   4
BRANCH  17   5
ATOM      5  O   UNL     1      -5.706 -11.154  20.783  0.00  0.00    -0.389 OA
ATOM     36  H   UNL     1      -6.407 -11.577  21.308  0.00  0.00    +0.210 HD
ENDBRANCH  17   5
TORSDOF 10
ENDMDL
MODEL 5
REMARK VINA RESULT:      -7.0     27.808     29.374
REMARK  Name = 7050187
REMARK  12 active torsions:
REMARK  status: ('A' for Active; 'I' for Inactive)
REMARK    1  A    between atoms: O_3  and  C_12
REMARK    2  A    between atoms: O_4  and  C_16
REMARK    3  A    between atoms: O_5  and  C_17
REMARK    4  A    between atoms: N_9  and  C_13
REMARK    5  A    between atoms: N_10  and  C_19
REMARK    6  A    between atoms: C_12  and  C_18
REMARK    7  A    between atoms: C_19  and  C_20
REMARK    8  A    between atoms: C_19  and  C_23
REMARK    9  A    between atoms: C_20  and  C_22
REMARK   10  A    between atoms: C_21  and  C_24
REMARK   11  A    between atoms: C_22  and  C_25
REMARK   12  A    between atoms: C_22  and  C_26
REMARK                            x       y       z     vdW  Elec       q    Type
REMARK                         _______ _______ _______ _____ _____    ______ ____
ROOT
ATOM     12  C   UNL     1      -6.103 -11.387  18.140  0.00  0.00    +0.146 C 
ATOM     13  C   UNL     1      -4.757 -11.508  15.988  0.00  0.00    +0.107 C 
ATOM     14  C   UNL     1      -5.910 -10.825  16.731  0.00  0.00    +0.069 C 
ATOM     15  C   UNL     1      -6.275 -12.905  18.112  0.00  0.00    +0.078 C 
ATOM     16  C   UNL     1      -4.911 -13.035  15.976  0.00  0.00    +0.163 C 
ATOM     17  C   UNL     1      -5.126 -13.602  17.381  0.00  0.00    +0.148 C 
ENDROOT
BRANCH  12  18
ATOM      6  O   UNL     1      -7.397 -10.714  20.032  0.00  0.00    -0.273 OA
ATOM     10  N   UNL     1      -8.191 -10.237  17.896  0.00  0.00    -0.302 N 
ATOM     18  C   UNL     1      -7.283 -10.745  18.810  0.00  0.00    +0.245 C 
ATOM     34  H   UNL     1      -7.991 -10.281  16.903  0.00  0.00    +0.150 HD
BRANCH  10  19
ATOM     19  C   UNL     1      -9.423  -9.589  18.284  0.00  0.00    +0.159 C 
BRANCH  19  23
ATOM      8  O   UNL     1     -10.889  -8.073  17.073  0.00  0.00    -0.274 OA
ATOM     11  N   UNL     1      -8.766  -8.426  16.269  0.00  0.00    -0.328 N 
ATOM     23  C   UNL     1      -9.799  -8.636  17.159  0.00  0.00    +0.231 C 
ATOM     37  H   UNL     1      -8.880  -7.801  15.478  0.00  0.00    +0.145 HD
ATOM     38  H   UNL     1      -7.863  -8.879  16.365  0.00  0.00    +0.145 HD
ENDBRANCH  19  23
BRANCH  19  20
ATOM     20  C   UNL     1     -10.556 -10.593  18.531  0.00  0.00    +0.034 C 
BRANCH  20  22
ATOM     22  C   UNL     1     -10.941 -10.784  20.012  0.00  0.00    -0.015 C 
ATOM     25  C   UNL     1     -12.331 -10.230  20.328  0.00  0.00    +0.007 C 
ATOM     26  C   UNL     1     -10.885 -12.271  20.373  0.00  0.00    +0.007 C 
ENDBRANCH  20  22
ENDBRANCH  19  20
ENDBRANCH  10  19
ENDBRANCH  12  18
BRANCH  13   9
ATOM      7  O   UNL     1      -2.363 -11.099  14.457  0.00  0.00    -0.270 OA
ATOM      9  N   UNL     1      -4.672 -10.994  14.639  0.00  0.00    -0.306 N 
ATOM     21  C   UNL     1      -3.464 -10.833  13.982  0.00  0.00    +0.244 C 
ATOM     32  H   UNL     1      -5.531 -10.647  14.225  0.00  0.00    +0.149 HD
BRANCH  21  24
ATOM      1 CL   UNL     1      -6.385  -8.902  10.147  0.00  0.00    -0.081 Cl
ATOM      2  F   UNL     1      -3.753  -8.693   8.797  0.00  0.00    -0.204 F 
ATOM     24  C   UNL     1      -3.545 -10.268  12.610  0.00  0.00    +0.038 A 
ATOM     27  C   UNL     1      -4.782  -9.894  12.081  0.00  0.00    +0.036 A 
ATOM     28  C   UNL     1      -2.386 -10.110  11.852  0.00  0.00    +0.016 A 
ATOM     29  C   UNL     1      -4.857  -9.362  10.794  0.00  0.00    +0.077 A 
ATOM     30  C   UNL     1      -2.461  -9.577  10.564  0.00  0.00    +0.040 A 
ATOM     31  C   UNL     1      -3.697  -9.204  10.035  0.00  0.00    +0.142 A 
ENDBRANCH  21  24
ENDBRANCH  13   9
BRANCH  12   3
ATOM      3  O   UNL     1      -4.990 -11.061  18.964  0.00  0.00    -0.379 OA
ATOM     33  H   UNL     1      -4.175 -11.241  18.466  0.00  0.00    +0.211 HD
ENDBRANCH  12   3
BRANCH  16   4
ATOM      4  O   UNL     1      -3.717 -13.621  15.451  0.00  0.00    -0.387 OA
ATOM     35  H   UNL     1      -3.357 -14.225  16.124  0.00  0.00    +0.210 HD
ENDBRANCH  16   4
BRANCH  17   5
ATOM      5  O   UNL     1      -5.429 -14.992  17.267  0.00  0.00    -0.389 OA
ATOM     36  H   UNL     1      -5.610 -15.327  18.162  0.00  0.00    +0.210 HD
ENDBRANCH  17   5
TORSDOF 10
ENDMDL
MODEL 6
REMARK VINA RESULT:      -6.9     27.863     29.408
REMARK  Name = 7050187
REMARK  12 active torsions:
REMARK  status: ('A' for Active; 'I' for Inactive)
REMARK    1  A    between atoms: O_3  and  C_12
REMARK    2  A    between atoms: O_4  and  C_16
REMARK    3  A    between atoms: O_5  and  C_17
REMARK    4  A    between atoms: N_9  and  C_13
REMARK    5  A    between atoms: N_10  and  C_19
REMARK    6  A    between atoms: C_12  and  C_18
REMARK    7  A    between atoms: C_19  and  C_20
REMARK    8  A    between atoms: C_19  and  C_23
REMARK    9  A    between atoms: C_20  and  C_22
REMARK   10  A    between atoms: C_21  and  C_24
REMARK   11  A    between atoms: C_22  and  C_25
REMARK   12  A    between atoms: C_22  and  C_26
REMARK                            x       y       z     vdW  Elec       q    Type
REMARK                         _______ _______ _______ _____ _____    ______ ____
ROOT
ATOM     12  C   UNL     1      -7.148 -10.992  18.139  0.00  0.00    +0.146 C 
ATOM     13  C   UNL     1      -5.185 -10.351  16.659  0.00  0.00    +0.107 C 
ATOM     14  C   UNL     1      -6.704 -10.527  16.752  0.00  0.00    +0.069 C 
ATOM     15  C   UNL     1      -6.409 -12.262  18.560  0.00  0.00    +0.078 C 
ATOM     16  C   UNL     1      -4.435 -11.614  17.102  0.00  0.00    +0.163 C 
ATOM     17  C   UNL     1      -4.890 -12.097  18.482  0.00  0.00    +0.148 C 
ENDROOT
BRANCH  12  18
ATOM      6  O   UNL     1      -9.113 -12.351  18.155  0.00  0.00    -0.273 OA
ATOM     10  N   UNL     1      -9.344 -10.035  18.199  0.00  0.00    -0.302 N 
ATOM     18  C   UNL     1      -8.631 -11.222  18.172  0.00  0.00    +0.245 C 
ATOM     34  H   UNL     1      -8.853  -9.148  18.246  0.00  0.00    +0.150 HD
BRANCH  10  19
ATOM     19  C   UNL     1     -10.788  -9.981  18.211  0.00  0.00    +0.159 C 
BRANCH  19  23
ATOM      8  O   UNL     1     -12.362  -9.638  20.033  0.00  0.00    -0.274 OA
ATOM     11  N   UNL     1     -10.204 -10.237  20.543  0.00  0.00    -0.328 N 
ATOM     23  C   UNL     1     -11.219  -9.911  19.669  0.00  0.00    +0.231 C 
ATOM     37  H   UNL     1     -10.361 -10.241  21.545  0.00  0.00    +0.145 HD
ATOM     38  H   UNL     1      -9.270 -10.482  20.228  0.00  0.00    +0.145 HD
ENDBRANCH  19  23
BRANCH  19  20
ATOM     20  C   UNL     1     -11.331  -8.774  17.437  0.00  0.00    +0.034 C 
BRANCH  20  22
ATOM     22  C   UNL     1     -10.289  -8.040  16.569  0.00  0.00    -0.015 C 
ATOM     25  C   UNL     1     -10.045  -8.742  15.233  0.00  0.00    +0.007 C 
ATOM     26  C   UNL     1     -10.747  -6.600  16.318  0.00  0.00    +0.007 C 
ENDBRANCH  20  22
ENDBRANCH  19  20
ENDBRANCH  10  19
ENDBRANCH  12  18
BRANCH  13   9
ATOM      7  O   UNL     1      -5.403 -12.003  14.320  0.00  0.00    -0.270 OA
ATOM      9  N   UNL     1      -4.817  -9.988  15.308  0.00  0.00    -0.306 N 
ATOM     21  C   UNL     1      -4.961 -10.859  14.241  0.00  0.00    +0.244 C 
ATOM     32  H   UNL     1      -4.339  -9.102  15.185  0.00  0.00    +0.149 HD
BRANCH  21  24
ATOM      1 CL   UNL     1      -6.092  -8.335   9.846  0.00  0.00    -0.081 Cl
ATOM      2  F   UNL     1      -3.244  -8.914   9.260  0.00  0.00    -0.204 F 
ATOM     24  C   UNL     1      -4.511 -10.345  12.922  0.00  0.00    +0.038 A 
ATOM     27  C   UNL     1      -5.407  -9.662  12.097  0.00  0.00    +0.036 A 
ATOM     28  C   UNL     1      -3.194 -10.542  12.509  0.00  0.00    +0.016 A 
ATOM     29  C   UNL     1      -4.983  -9.177  10.860  0.00  0.00    +0.077 A 
ATOM     30  C   UNL     1      -2.771 -10.057  11.271  0.00  0.00    +0.040 A 
ATOM     31  C   UNL     1      -3.666  -9.375  10.446  0.00  0.00    +0.142 A 
ENDBRANCH  21  24
ENDBRANCH  13   9
BRANCH  12   3
ATOM      3  O   UNL     1      -6.912  -9.975  19.106  0.00  0.00    -0.379 OA
ATOM     33  H   UNL     1      -7.701  -9.894  19.667  0.00  0.00    +0.211 HD
ENDBRANCH  12   3
BRANCH  16   4
ATOM      4  O   UNL     1      -3.037 -11.323  17.186  0.00  0.00    -0.387 OA
ATOM     35  H   UNL     1      -2.670 -11.822  17.936  0.00  0.00    +0.210 HD
ENDBRANCH  16   4
BRANCH  17   5
ATOM      5  O   UNL     1      -4.277 -13.359  18.744  0.00  0.00    -0.389 OA
ATOM     36  H   UNL     1      -4.935 -13.918  19.190  0.00  0.00    +0.210 HD
ENDBRANCH  17   5
TORSDOF 10
ENDMDL
MODEL 7
REMARK VINA RESULT:      -6.8     26.927     29.486
REMARK  Name = 7050187
REMARK  12 active torsions:
REMARK  status: ('A' for Active; 'I' for Inactive)
REMARK    1  A    between atoms: O_3  and  C_12
REMARK    2  A    between atoms: O_4  and  C_16
REMARK    3  A    between atoms: O_5  and  C_17
REMARK    4  A    between atoms: N_9  and  C_13
REMARK    5  A    between atoms: N_10  and  C_19
REMARK    6  A    between atoms: C_12  and  C_18
REMARK    7  A    between atoms: C_19  and  C_20
REMARK    8  A    between atoms: C_19  and  C_23
REMARK    9  A    between atoms: C_20  and  C_22
REMARK   10  A    between atoms: C_21  and  C_24
REMARK   11  A    between atoms: C_22  and  C_25
REMARK   12  A    between atoms: C_22  and  C_26
REMARK                            x       y       z     vdW  Elec       q    Type
REMARK                         _______ _______ _______ _____ _____    ______ ____
ROOT
ATOM     12  C   UNL     1      -2.693 -10.857  13.313  0.00  0.00    +0.146 C 
ATOM     13  C   UNL     1      -4.035 -11.198  15.444  0.00  0.00    +0.107 C 
ATOM     14  C   UNL     1      -4.021 -10.606  14.031  0.00  0.00    +0.069 C 
ATOM     15  C   UNL     1      -1.512 -10.357  14.144  0.00  0.00    +0.078 C 
ATOM     16  C   UNL     1      -2.839 -10.718  16.277  0.00  0.00    +0.163 C 
ATOM     17  C   UNL     1      -1.509 -10.947  15.555  0.00  0.00    +0.148 C 
ENDROOT
BRANCH  12  18
ATOM      6  O   UNL     1      -1.650  -9.835  11.424  0.00  0.00    -0.273 OA
ATOM     10  N   UNL     1      -3.966 -10.061  11.446  0.00  0.00    -0.302 N 
ATOM     18  C   UNL     1      -2.690 -10.203  11.962  0.00  0.00    +0.245 C 
ATOM     34  H   UNL     1      -4.764 -10.430  11.954  0.00  0.00    +0.150 HD
BRANCH  10  19
ATOM     19  C   UNL     1      -4.238  -9.442  10.168  0.00  0.00    +0.159 C 
BRANCH  19  23
ATOM      8  O   UNL     1      -4.438 -11.759   9.462  0.00  0.00    -0.274 OA
ATOM     11  N   UNL     1      -4.761 -10.103   7.902  0.00  0.00    -0.328 N 
ATOM     23  C   UNL     1      -4.466 -10.566   9.168  0.00  0.00    +0.231 C 
ATOM     37  H   UNL     1      -4.948 -10.749   7.143  0.00  0.00    +0.145 HD
ATOM     38  H   UNL     1      -4.803  -9.114   7.680  0.00  0.00    +0.145 HD
ENDBRANCH  19  23
BRANCH  19  20
ATOM     20  C   UNL     1      -5.461  -8.518  10.219  0.00  0.00    +0.034 C 
BRANCH  20  22
ATOM     22  C   UNL     1      -6.783  -9.215  10.596  0.00  0.00    -0.015 C 
ATOM     25  C   UNL     1      -7.110  -9.080  12.084  0.00  0.00    +0.007 C 
ATOM     26  C   UNL     1      -7.929  -8.634   9.763  0.00  0.00    +0.007 C 
ENDBRANCH  20  22
ENDBRANCH  19  20
ENDBRANCH  10  19
ENDBRANCH  12  18
BRANCH  13   9
ATOM      7  O   UNL     1      -5.549 -12.882  17.209  0.00  0.00    -0.270 OA
ATOM      9  N   UNL     1      -5.280 -10.863  16.101  0.00  0.00    -0.306 N 
ATOM     21  C   UNL     1      -5.937 -11.748  16.939  0.00  0.00    +0.244 C 
ATOM     32  H   UNL     1      -5.717  -9.986  15.836  0.00  0.00    +0.149 HD
BRANCH  21  24
ATOM      1 CL   UNL     1      -9.548  -8.025  17.210  0.00  0.00    -0.081 Cl
ATOM      2  F   UNL     1     -10.782  -9.928  19.120  0.00  0.00    -0.204 F 
ATOM     24  C   UNL     1      -7.217 -11.262  17.515  0.00  0.00    +0.038 A 
ATOM     27  C   UNL     1      -7.724 -10.017  17.139  0.00  0.00    +0.036 A 
ATOM     28  C   UNL     1      -7.914 -12.050  18.430  0.00  0.00    +0.016 A 
ATOM     29  C   UNL     1      -8.927  -9.562  17.679  0.00  0.00    +0.077 A 
ATOM     30  C   UNL     1      -9.118 -11.595  18.969  0.00  0.00    +0.040 A 
ATOM     31  C   UNL     1      -9.624 -10.351  18.594  0.00  0.00    +0.142 A 
ENDBRANCH  21  24
ENDBRANCH  13   9
BRANCH  12   3
ATOM      3  O   UNL     1      -2.522 -12.245  13.052  0.00  0.00    -0.379 OA
ATOM     33  H   UNL     1      -1.880 -12.346  12.330  0.00  0.00    +0.211 HD
ENDBRANCH  12   3
BRANCH  16   4
ATOM      4  O   UNL     1      -2.798 -11.454  17.503  0.00  0.00    -0.387 OA
ATOM     35  H   UNL     1      -2.898 -12.398  17.291  0.00  0.00    +0.210 HD
ENDBRANCH  16   4
BRANCH  17   5
ATOM      5  O   UNL     1      -0.470 -10.326  16.312  0.00  0.00    -0.389 OA
ATOM     36  H   UNL     1       0.353 -10.811  16.133  0.00  0.00    +0.210 HD
ENDBRANCH  17   5
TORSDOF 10
ENDMDL
MODEL 8
REMARK VINA RESULT:      -6.7     20.169     22.867
REMARK  Name = 7050187
REMARK  12 active torsions:
REMARK  status: ('A' for Active; 'I' for Inactive)
REMARK    1  A    between atoms: O_3  and  C_12
REMARK    2  A    between atoms: O_4  and  C_16
REMARK    3  A    between atoms: O_5  and  C_17
REMARK    4  A    between atoms: N_9  and  C_13
REMARK    5  A    between atoms: N_10  and  C_19
REMARK    6  A    between atoms: C_12  and  C_18
REMARK    7  A    between atoms: C_19  and  C_20
REMARK    8  A    between atoms: C_19  and  C_23
REMARK    9  A    between atoms: C_20  and  C_22
REMARK   10  A    between atoms: C_21  and  C_24
REMARK   11  A    between atoms: C_22  and  C_25
REMARK   12  A    between atoms: C_22  and  C_26
REMARK                            x       y       z     vdW  Elec       q    Type
REMARK                         _______ _______ _______ _____ _____    ______ ____
ROOT
ATOM     12  C   UNL     1      12.927   4.009  -1.009  0.00  0.00    +0.146 C 
ATOM     13  C   UNL     1      13.043   4.282   1.515  0.00  0.00    +0.107 C 
ATOM     14  C   UNL     1      12.287   4.637   0.230  0.00  0.00    +0.069 C 
ATOM     15  C   UNL     1      14.408   4.371  -1.111  0.00  0.00    +0.078 C 
ATOM     16  C   UNL     1      14.536   4.622   1.411  0.00  0.00    +0.163 C 
ATOM     17  C   UNL     1      15.178   4.014   0.162  0.00  0.00    +0.148 C 
ENDROOT
BRANCH  12  18
ATOM      6  O   UNL     1      12.661   5.285  -3.010  0.00  0.00    -0.273 OA
ATOM     10  N   UNL     1      10.993   3.780  -2.404  0.00  0.00    -0.302 N 
ATOM     18  C   UNL     1      12.203   4.434  -2.253  0.00  0.00    +0.245 C 
ATOM     34  H   UNL     1      10.716   3.064  -1.740  0.00  0.00    +0.150 HD
BRANCH  10  19
ATOM     19  C   UNL     1      10.094   4.026  -3.509  0.00  0.00    +0.159 C 
BRANCH  19  23
ATOM      8  O   UNL     1       9.396   1.713  -3.239  0.00  0.00    -0.274 OA
ATOM     11  N   UNL     1       9.320   2.646  -5.337  0.00  0.00    -0.328 N 
ATOM     23  C   UNL     1       9.589   2.671  -3.985  0.00  0.00    +0.231 C 
ATOM     37  H   UNL     1       8.965   1.806  -5.781  0.00  0.00    +0.145 HD
ATOM     38  H   UNL     1       9.462   3.452  -5.937  0.00  0.00    +0.145 HD
ENDBRANCH  19  23
BRANCH  19  20
ATOM     20  C   UNL     1       8.915   4.922  -3.109  0.00  0.00    +0.034 C 
BRANCH  20  22
ATOM     22  C   UNL     1       9.220   6.434  -3.112  0.00  0.00    -0.015 C 
ATOM     25  C   UNL     1       8.112   7.251  -3.778  0.00  0.00    +0.007 C 
ATOM     26  C   UNL     1       9.427   6.922  -1.675  0.00  0.00    +0.007 C 
ENDBRANCH  20  22
ENDBRANCH  19  20
ENDBRANCH  10  19
ENDBRANCH  12  18
BRANCH  13   9
ATOM      7  O   UNL     1      10.611   3.559   2.859  0.00  0.00    -0.270 OA
ATOM      9  N   UNL     1      12.442   4.965   2.639  0.00  0.00    -0.306 N 
ATOM     21  C   UNL     1      11.261   4.536   3.222  0.00  0.00    +0.244 C 
ATOM     32  H   UNL     1      12.862   5.845   2.920  0.00  0.00    +0.149 HD
BRANCH  21  24
ATOM      1 CL   UNL     1      11.901   8.642   6.336  0.00  0.00    -0.081 Cl
ATOM      2  F   UNL     1       9.354   7.651   7.488  0.00  0.00    -0.204 F 
ATOM     24  C   UNL     1      10.761   5.362   4.351  0.00  0.00    +0.038 A 
ATOM     27  C   UNL     1      11.480   6.484   4.768  0.00  0.00    +0.036 A 
ATOM     28  C   UNL     1       9.572   5.018   4.993  0.00  0.00    +0.016 A 
ATOM     29  C   UNL     1      11.010   7.259   5.827  0.00  0.00    +0.077 A 
ATOM     30  C   UNL     1       9.101   5.795   6.053  0.00  0.00    +0.040 A 
ATOM     31  C   UNL     1       9.820   6.915   6.470  0.00  0.00    +0.142 A 
ENDBRANCH  21  24
ENDBRANCH  13   9
BRANCH  12   3
ATOM      3  O   UNL     1      12.797   2.592  -0.974  0.00  0.00    -0.379 OA
ATOM     33  H   UNL     1      11.852   2.369  -0.993  0.00  0.00    +0.211 HD
ENDBRANCH  12   3
BRANCH  16   4
ATOM      4  O   UNL     1      15.216   4.088   2.550  0.00  0.00    -0.387 OA
ATOM     35  H   UNL     1      15.783   3.358   2.248  0.00  0.00    +0.210 HD
ENDBRANCH  16   4
BRANCH  17   5
ATOM      5  O   UNL     1      16.510   4.513   0.049  0.00  0.00    -0.389 OA
ATOM     36  H   UNL     1      17.102   3.749  -0.056  0.00  0.00    +0.210 HD
ENDBRANCH  17   5
TORSDOF 10
ENDMDL
MODEL 9
REMARK VINA RESULT:      -6.6     16.026     19.212
REMARK  Name = 7050187
REMARK  12 active torsions:
REMARK  status: ('A' for Active; 'I' for Inactive)
REMARK    1  A    between atoms: O_3  and  C_12
REMARK    2  A    between atoms: O_4  and  C_16
REMARK    3  A    between atoms: O_5  and  C_17
REMARK    4  A    between atoms: N_9  and  C_13
REMARK    5  A    between atoms: N_10  and  C_19
REMARK    6  A    between atoms: C_12  and  C_18
REMARK    7  A    between atoms: C_19  and  C_20
REMARK    8  A    between atoms: C_19  and  C_23
REMARK    9  A    between atoms: C_20  and  C_22
REMARK   10  A    between atoms: C_21  and  C_24
REMARK   11  A    between atoms: C_22  and  C_25
REMARK   12  A    between atoms: C_22  and  C_26
REMARK                            x       y       z     vdW  Elec       q    Type
REMARK                         _______ _______ _______ _____ _____    ______ ____
ROOT
ATOM     12  C   UNL     1      10.793   5.983   3.713  0.00  0.00    +0.146 C 
ATOM     13  C   UNL     1      10.184   7.026   5.949  0.00  0.00    +0.107 C 
ATOM     14  C   UNL     1      11.111   7.080   4.731  0.00  0.00    +0.069 C 
ATOM     15  C   UNL     1      10.805   4.602   4.367  0.00  0.00    +0.078 C 
ATOM     16  C   UNL     1      10.173   5.634   6.597  0.00  0.00    +0.163 C 
ATOM     17  C   UNL     1       9.876   4.530   5.580  0.00  0.00    +0.148 C 
ENDROOT
BRANCH  12  18
ATOM      6  O   UNL     1      11.987   7.056   1.944  0.00  0.00    -0.273 OA
ATOM     10  N   UNL     1      12.329   4.785   2.319  0.00  0.00    -0.302 N 
ATOM     18  C   UNL     1      11.765   6.024   2.570  0.00  0.00    +0.245 C 
ATOM     34  H   UNL     1      12.107   3.995   2.915  0.00  0.00    +0.150 HD
BRANCH  10  19
ATOM     19  C   UNL     1      13.279   4.550   1.255  0.00  0.00    +0.159 C 
BRANCH  19  23
ATOM      8  O   UNL     1      15.142   3.110   1.861  0.00  0.00    -0.274 OA
ATOM     11  N   UNL     1      15.189   5.308   2.530  0.00  0.00    -0.328 N 
ATOM     23  C   UNL     1      14.611   4.218   1.913  0.00  0.00    +0.231 C 
ATOM     37  H   UNL     1      16.086   5.226   2.996  0.00  0.00    +0.145 HD
ATOM     38  H   UNL     1      14.750   6.223   2.544  0.00  0.00    +0.145 HD
ENDBRANCH  19  23
BRANCH  19  20
ATOM     20  C   UNL     1      12.844   3.408   0.328  0.00  0.00    +0.034 C 
BRANCH  20  22
ATOM     22  C   UNL     1      12.786   3.776  -1.168  0.00  0.00    -0.015 C 
ATOM     25  C   UNL     1      14.162   4.123  -1.737  0.00  0.00    +0.007 C 
ATOM     26  C   UNL     1      12.179   2.615  -1.962  0.00  0.00    +0.007 C 
ENDBRANCH  20  22
ENDBRANCH  19  20
ENDBRANCH  10  19
ENDBRANCH  12  18
BRANCH  13   9
ATOM      7  O   UNL     1       8.800   9.471   6.542  0.00  0.00    -0.270 OA
ATOM      9  N   UNL     1      10.580   8.031   6.911  0.00  0.00    -0.306 N 
ATOM     21  C   UNL     1       9.842   9.183   7.126  0.00  0.00    +0.244 C 
ATOM     32  H   UNL     1      11.488   7.916   7.348  0.00  0.00    +0.149 HD
BRANCH  21  24
ATOM      1 CL   UNL     1       9.126  12.035  11.406  0.00  0.00    -0.081 Cl
ATOM      2  F   UNL     1      11.960  12.753  10.908  0.00  0.00    -0.204 F 
ATOM     24  C   UNL     1      10.398  10.129   8.127  0.00  0.00    +0.038 A 
ATOM     27  C   UNL     1       9.596  10.587   9.175  0.00  0.00    +0.036 A 
ATOM     28  C   UNL     1      11.720  10.557   8.023  0.00  0.00    +0.016 A 
ATOM     29  C   UNL     1      10.119  11.474  10.116  0.00  0.00    +0.077 A 
ATOM     30  C   UNL     1      12.243  11.444   8.965  0.00  0.00    +0.040 A 
ATOM     31  C   UNL     1      11.443  11.902  10.011  0.00  0.00    +0.142 A 
ENDBRANCH  21  24
ENDBRANCH  13   9
BRANCH  12   3
ATOM      3  O   UNL     1       9.519   6.206   3.122  0.00  0.00    -0.379 OA
ATOM     33  H   UNL     1       8.922   6.564   3.800  0.00  0.00    +0.211 HD
ENDBRANCH  12   3
BRANCH  16   4
ATOM      4  O   UNL     1       9.147   5.591   7.593  0.00  0.00    -0.387 OA
ATOM     35  H   UNL     1       9.563   5.366   8.444  0.00  0.00    +0.210 HD
ENDBRANCH  16   4
BRANCH  17   5
ATOM      5  O   UNL     1      10.051   3.266   6.219  0.00  0.00    -0.389 OA
ATOM     36  H   UNL     1      10.969   3.223   6.536  0.00  0.00    +0.210 HD
ENDBRANCH  17   5
TORSDOF 10
ENDMDL
MODEL 10
REMARK VINA RESULT:      -6.5     28.017     29.564
REMARK  Name = 7050187
REMARK  12 active torsions:
REMARK  status: ('A' for Active; 'I' for Inactive)
REMARK    1  A    between atoms: O_3  and  C_12
REMARK    2  A    between atoms: O_4  and  C_16
REMARK    3  A    between atoms: O_5  and  C_17
REMARK    4  A    between atoms: N_9  and  C_13
REMARK    5  A    between atoms: N_10  and  C_19
REMARK    6  A    between atoms: C_12  and  C_18
REMARK    7  A    between atoms: C_19  and  C_20
REMARK    8  A    between atoms: C_19  and  C_23
REMARK    9  A    between atoms: C_20  and  C_22
REMARK   10  A    between atoms: C_21  and  C_24
REMARK   11  A    between atoms: C_22  and  C_25
REMARK   12  A    between atoms: C_22  and  C_26
REMARK                            x       y       z     vdW  Elec       q    Type
REMARK                         _______ _______ _______ _____ _____    ______ ____
ROOT
ATOM     12  C   UNL     1      -3.238 -11.076  14.039  0.00  0.00    +0.146 C 
ATOM     13  C   UNL     1      -3.918 -10.951  11.594  0.00  0.00    +0.107 C 
ATOM     14  C   UNL     1      -4.238 -10.513  13.027  0.00  0.00    +0.069 C 
ATOM     15  C   UNL     1      -3.133 -12.596  13.926  0.00  0.00    +0.078 C 
ATOM     16  C   UNL     1      -3.788 -12.475  11.477  0.00  0.00    +0.163 C 
ATOM     17  C   UNL     1      -2.805 -13.047  12.502  0.00  0.00    +0.148 C 
ENDROOT
BRANCH  12  18
ATOM      6  O   UNL     1      -2.786 -10.547  16.324  0.00  0.00    -0.273 OA
ATOM     10  N   UNL     1      -4.992 -10.536  15.580  0.00  0.00    -0.302 N 
ATOM     18  C   UNL     1      -3.623 -10.686  15.436  0.00  0.00    +0.245 C 
ATOM     34  H   UNL     1      -5.601 -10.639  14.776  0.00  0.00    +0.150 HD
BRANCH  10  19
ATOM     19  C   UNL     1      -5.621 -10.186  16.834  0.00  0.00    +0.159 C 
BRANCH  19  23
ATOM      8  O   UNL     1      -7.523  -9.742  15.386  0.00  0.00    -0.274 OA
ATOM     11  N   UNL     1      -7.677  -9.175  17.607  0.00  0.00    -0.328 N 
ATOM     23  C   UNL     1      -7.016  -9.675  16.504  0.00  0.00    +0.231 C 
ATOM     37  H   UNL     1      -8.621  -8.813  17.528  0.00  0.00    +0.145 HD
ATOM     38  H   UNL     1      -7.254  -9.147  18.529  0.00  0.00    +0.145 HD
ENDBRANCH  19  23
BRANCH  19  20
ATOM     20  C   UNL     1      -5.704 -11.378  17.795  0.00  0.00    +0.034 C 
BRANCH  20  22
ATOM     22  C   UNL     1      -5.032 -11.153  19.164  0.00  0.00    -0.015 C 
ATOM     25  C   UNL     1      -6.012 -11.313  20.328  0.00  0.00    +0.007 C 
ATOM     26  C   UNL     1      -3.866 -12.131  19.335  0.00  0.00    +0.007 C 
ENDBRANCH  20  22
ENDBRANCH  19  20
ENDBRANCH  10  19
ENDBRANCH  12  18
BRANCH  13   9
ATOM      7  O   UNL     1      -3.538  -9.126   9.410  0.00  0.00    -0.270 OA
ATOM      9  N   UNL     1      -4.937 -10.457  10.694  0.00  0.00    -0.306 N 
ATOM     21  C   UNL     1      -4.653  -9.574   9.665  0.00  0.00    +0.244 C 
ATOM     32  H   UNL     1      -5.899 -10.695  10.913  0.00  0.00    +0.149 HD
BRANCH  21  24
ATOM      1 CL   UNL     1      -7.093  -9.575   5.081  0.00  0.00    -0.081 Cl
ATOM      2  F   UNL     1      -9.053  -7.935   6.585  0.00  0.00    -0.204 F 
ATOM     24  C   UNL     1      -5.814  -9.141   8.846  0.00  0.00    +0.038 A 
ATOM     27  C   UNL     1      -5.900  -9.515   7.504  0.00  0.00    +0.036 A 
ATOM     28  C   UNL     1      -6.819  -8.363   9.419  0.00  0.00    +0.016 A 
ATOM     29  C   UNL     1      -6.992  -9.110   6.736  0.00  0.00    +0.077 A 
ATOM     30  C   UNL     1      -7.912  -7.958   8.651  0.00  0.00    +0.040 A 
ATOM     31  C   UNL     1      -7.997  -8.331   7.309  0.00  0.00    +0.142 A 
ENDBRANCH  21  24
ENDBRANCH  13   9
BRANCH  12   3
ATOM      3  O   UNL     1      -1.951 -10.505  13.839  0.00  0.00    -0.379 OA
ATOM     33  H   UNL     1      -1.881 -10.219  12.913  0.00  0.00    +0.211 HD
ENDBRANCH  12   3
BRANCH  16   4
ATOM      4  O   UNL     1      -3.295 -12.804  10.175  0.00  0.00    -0.387 OA
ATOM     35  H   UNL     1      -4.037 -12.744   9.549  0.00  0.00    +0.210 HD
ENDBRANCH  16   4
BRANCH  17   5
ATOM      5  O   UNL     1      -2.869 -14.472  12.444  0.00  0.00    -0.389 OA
ATOM     36  H   UNL     1      -2.956 -14.799  13.355  0.00  0.00    +0.210 HD
ENDBRANCH  17   5
TORSDOF 10
ENDMDL
