MODEL 1
REMARK VINA RESULT:      -5.7      0.000      0.000
REMARK  Name = 75368650
REMARK  6 active torsions:
REMARK  status: ('A' for Active; 'I' for Inactive)
REMARK    1  A    between atoms: N_2  and  C_6
REMARK    2  A    between atoms: N_4  and  C_14
REMARK    3  A    between atoms: C_14  and  C_18
REMARK    4  A    between atoms: C_18  and  C_19
REMARK    5  A    between atoms: C_18  and  C_20
REMARK    6  A    between atoms: C_18  and  C_21
REMARK                            x       y       z     vdW  Elec       q    Type
REMARK                         _______ _______ _______ _____ _____    ______ ____
ROOT
ATOM      1  O   UNL     1      -1.895 -10.739  13.473  0.00  0.00    -0.252 OA
ATOM      2  N   UNL     1      -4.073 -10.383  12.640  0.00  0.00    -0.281 N 
ATOM      3  N   UNL     1      -3.792 -10.634  14.855  0.00  0.00    -0.278 N 
ATOM      4  N   UNL     1      -5.581 -11.320  16.914  0.00  0.00    -0.299 NA
ATOM      5  C   UNL     1      -5.196 -10.314  14.700  0.00  0.00    +0.109 C 
ATOM      7  C   UNL     1      -5.418 -10.374  13.191  0.00  0.00    +0.133 C 
ATOM      8  C   UNL     1      -6.054 -11.282  15.515  0.00  0.00    +0.108 C 
ATOM      9  C   UNL     1      -3.254 -10.842  16.183  0.00  0.00    +0.125 C 
ATOM     10  C   UNL     1      -3.100 -10.599  13.636  0.00  0.00    +0.305 C 
ATOM     13  C   UNL     1      -4.176 -11.767  16.982  0.00  0.00    +0.103 C 
ENDROOT
BRANCH   2   6
ATOM      6  C   UNL     1      -3.828 -10.327  11.220  0.00  0.00    +0.078 C 
ATOM     11  C   UNL     1      -4.318  -8.996  10.643  0.00  0.00    +0.022 C 
ATOM     12  C   UNL     1      -4.480 -11.515  10.509  0.00  0.00    +0.022 C 
ATOM     15  C   UNL     1      -4.119  -8.930   9.131  0.00  0.00    +0.002 C 
ATOM     16  C   UNL     1      -4.280 -11.446   8.998  0.00  0.00    +0.002 C 
ATOM     17  C   UNL     1      -4.766 -10.118   8.426  0.00  0.00    +0.000 C 
ENDBRANCH   2   6
BRANCH   4  14
ATOM     14  C   UNL     1      -6.434 -12.197  17.715  0.00  0.00    +0.090 C 
BRANCH  14  18
ATOM     18  C   UNL     1      -7.176 -11.474  18.869  0.00  0.00    -0.025 C 
ATOM     19  C   UNL     1      -8.277 -10.587  18.255  0.00  0.00    +0.012 C 
ATOM     20  C   UNL     1      -7.836 -12.491  19.817  0.00  0.00    +0.012 C 
ATOM     21  C   UNL     1      -6.218 -10.578  19.673  0.00  0.00    +0.012 C 
ENDBRANCH  14  18
ENDBRANCH   4  14
TORSDOF 3
ENDMDL
MODEL 2
REMARK VINA RESULT:      -5.6     26.962     28.230
REMARK  Name = 75368650
REMARK  6 active torsions:
REMARK  status: ('A' for Active; 'I' for Inactive)
REMARK    1  A    between atoms: N_2  and  C_6
REMARK    2  A    between atoms: N_4  and  C_14
REMARK    3  A    between atoms: C_14  and  C_18
REMARK    4  A    between atoms: C_18  and  C_19
REMARK    5  A    between atoms: C_18  and  C_20
REMARK    6  A    between atoms: C_18  and  C_21
REMARK                            x       y       z     vdW  Elec       q    Type
REMARK                         _______ _______ _______ _____ _____    ______ ____
ROOT
ATOM      1  O   UNL     1      14.686   8.659  14.648  0.00  0.00    -0.252 OA
ATOM      2  N   UNL     1      14.579  10.744  15.747  0.00  0.00    -0.281 N 
ATOM      3  N   UNL     1      14.057   8.888  16.901  0.00  0.00    -0.278 N 
ATOM      4  N   UNL     1      12.597   8.493  19.272  0.00  0.00    -0.299 NA
ATOM      5  C   UNL     1      14.013   9.951  17.882  0.00  0.00    +0.109 C 
ATOM      7  C   UNL     1      14.140  11.223  17.047  0.00  0.00    +0.133 C 
ATOM      8  C   UNL     1      12.733   9.854  18.713  0.00  0.00    +0.108 C 
ATOM      9  C   UNL     1      13.789   7.527  17.316  0.00  0.00    +0.125 C 
ATOM     10  C   UNL     1      14.472   9.342  15.641  0.00  0.00    +0.305 C 
ATOM     13  C   UNL     1      12.536   7.486  18.194  0.00  0.00    +0.103 C 
ENDROOT
BRANCH   2   6
ATOM      6  C   UNL     1      14.926  11.646  14.677  0.00  0.00    +0.078 C 
ATOM     11  C   UNL     1      16.447  11.748  14.533  0.00  0.00    +0.022 C 
ATOM     12  C   UNL     1      14.295  13.022  14.900  0.00  0.00    +0.022 C 
ATOM     15  C   UNL     1      16.845  12.738  13.441  0.00  0.00    +0.002 C 
ATOM     16  C   UNL     1      14.695  14.009  13.807  0.00  0.00    +0.002 C 
ATOM     17  C   UNL     1      16.210  14.107  13.664  0.00  0.00    +0.000 C 
ENDBRANCH   2   6
BRANCH   4  14
ATOM     14  C   UNL     1      11.407   8.408  20.118  0.00  0.00    +0.090 C 
BRANCH  14  18
ATOM     18  C   UNL     1      11.660   7.747  21.499  0.00  0.00    -0.025 C 
ATOM     19  C   UNL     1      13.163   7.862  21.820  0.00  0.00    +0.012 C 
ATOM     20  C   UNL     1      10.865   8.466  22.602  0.00  0.00    +0.012 C 
ATOM     21  C   UNL     1      11.274   6.258  21.483  0.00  0.00    +0.012 C 
ENDBRANCH  14  18
ENDBRANCH   4  14
TORSDOF 3
ENDMDL
MODEL 3
REMARK VINA RESULT:      -5.5      1.436      7.442
REMARK  Name = 75368650
REMARK  6 active torsions:
REMARK  status: ('A' for Active; 'I' for Inactive)
REMARK    1  A    between atoms: N_2  and  C_6
REMARK    2  A    between atoms: N_4  and  C_14
REMARK    3  A    between atoms: C_14  and  C_18
REMARK    4  A    between atoms: C_18  and  C_19
REMARK    5  A    between atoms: C_18  and  C_20
REMARK    6  A    between atoms: C_18  and  C_21
REMARK                            x       y       z     vdW  Elec       q    Type
REMARK                         _______ _______ _______ _____ _____    ______ ____
ROOT
ATOM      1  O   UNL     1      -1.874 -10.651  15.649  0.00  0.00    -0.252 OA
ATOM      2  N   UNL     1      -4.224 -10.838  15.720  0.00  0.00    -0.281 N 
ATOM      3  N   UNL     1      -3.194 -10.935  13.726  0.00  0.00    -0.278 N 
ATOM      4  N   UNL     1      -4.129 -10.542  11.103  0.00  0.00    -0.299 NA
ATOM      5  C   UNL     1      -4.586 -11.203  13.430  0.00  0.00    +0.109 C 
ATOM      7  C   UNL     1      -5.301 -10.908  14.746  0.00  0.00    +0.133 C 
ATOM      8  C   UNL     1      -5.050 -10.357  12.244  0.00  0.00    +0.108 C 
ATOM      9  C   UNL     1      -2.226 -10.943  12.650  0.00  0.00    +0.125 C 
ATOM     10  C   UNL     1      -2.959 -10.794  15.101  0.00  0.00    +0.305 C 
ATOM     13  C   UNL     1      -2.757 -10.136  11.463  0.00  0.00    +0.103 C 
ENDROOT
BRANCH   2   6
ATOM      6  C   UNL     1      -4.479 -10.679  17.131  0.00  0.00    +0.078 C 
ATOM     11  C   UNL     1      -4.077 -11.944  17.895  0.00  0.00    +0.022 C 
ATOM     12  C   UNL     1      -5.946 -10.320  17.381  0.00  0.00    +0.022 C 
ATOM     15  C   UNL     1      -4.385 -11.823  19.385  0.00  0.00    +0.002 C 
ATOM     16  C   UNL     1      -6.249 -10.201  18.872  0.00  0.00    +0.002 C 
ATOM     17  C   UNL     1      -5.846 -11.461  19.631  0.00  0.00    +0.000 C 
ENDBRANCH   2   6
BRANCH   4  14
ATOM     14  C   UNL     1      -4.598  -9.784   9.943  0.00  0.00    +0.090 C 
BRANCH  14  18
ATOM     18  C   UNL     1      -5.242 -10.658   8.836  0.00  0.00    -0.025 C 
ATOM     19  C   UNL     1      -4.413 -11.950   8.696  0.00  0.00    +0.012 C 
ATOM     20  C   UNL     1      -6.685 -11.039   9.210  0.00  0.00    +0.012 C 
ATOM     21  C   UNL     1      -5.245  -9.930   7.481  0.00  0.00    +0.012 C 
ENDBRANCH  14  18
ENDBRANCH   4  14
TORSDOF 3
ENDMDL
MODEL 4
REMARK VINA RESULT:      -5.5      5.322      7.515
REMARK  Name = 75368650
REMARK  6 active torsions:
REMARK  status: ('A' for Active; 'I' for Inactive)
REMARK    1  A    between atoms: N_2  and  C_6
REMARK    2  A    between atoms: N_4  and  C_14
REMARK    3  A    between atoms: C_14  and  C_18
REMARK    4  A    between atoms: C_18  and  C_19
REMARK    5  A    between atoms: C_18  and  C_20
REMARK    6  A    between atoms: C_18  and  C_21
REMARK                            x       y       z     vdW  Elec       q    Type
REMARK                         _______ _______ _______ _____ _____    ______ ____
ROOT
ATOM      1  O   UNL     1     -11.816  -9.554  18.789  0.00  0.00    -0.252 OA
ATOM      2  N   UNL     1     -10.666  -8.570  16.980  0.00  0.00    -0.281 N 
ATOM      3  N   UNL     1      -9.636 -10.174  18.169  0.00  0.00    -0.278 N 
ATOM      4  N   UNL     1      -6.924 -10.864  18.447  0.00  0.00    -0.299 NA
ATOM      5  C   UNL     1      -8.724  -9.884  17.083  0.00  0.00    +0.109 C 
ATOM      7  C   UNL     1      -9.325  -8.645  16.424  0.00  0.00    +0.133 C 
ATOM      8  C   UNL     1      -7.303  -9.702  17.616  0.00  0.00    +0.108 C 
ATOM      9  C   UNL     1      -9.290 -11.198  19.133  0.00  0.00    +0.125 C 
ATOM     10  C   UNL     1     -10.832  -9.449  18.069  0.00  0.00    +0.305 C 
ATOM     13  C   UNL     1      -7.842 -11.013  19.593  0.00  0.00    +0.103 C 
ENDROOT
BRANCH   2   6
ATOM      6  C   UNL     1     -11.625  -7.589  16.534  0.00  0.00    +0.078 C 
ATOM     11  C   UNL     1     -12.864  -8.274  15.953  0.00  0.00    +0.022 C 
ATOM     12  C   UNL     1     -10.991  -6.632  15.521  0.00  0.00    +0.022 C 
ATOM     15  C   UNL     1     -13.874  -7.259  15.425  0.00  0.00    +0.002 C 
ATOM     16  C   UNL     1     -12.004  -5.619  14.996  0.00  0.00    +0.002 C 
ATOM     17  C   UNL     1     -13.239  -6.304  14.419  0.00  0.00    +0.000 C 
ENDBRANCH   2   6
BRANCH   4  14
ATOM     14  C   UNL     1      -5.544 -10.727  18.912  0.00  0.00    +0.090 C 
BRANCH  14  18
ATOM     18  C   UNL     1      -4.564 -11.758  18.293  0.00  0.00    -0.025 C 
ATOM     19  C   UNL     1      -3.560 -12.185  19.381  0.00  0.00    +0.012 C 
ATOM     20  C   UNL     1      -5.319 -13.005  17.804  0.00  0.00    +0.012 C 
ATOM     21  C   UNL     1      -3.781 -11.146  17.118  0.00  0.00    +0.012 C 
ENDBRANCH  14  18
ENDBRANCH   4  14
TORSDOF 3
ENDMDL
MODEL 5
REMARK VINA RESULT:      -5.4     20.904     23.609
REMARK  Name = 75368650
REMARK  6 active torsions:
REMARK  status: ('A' for Active; 'I' for Inactive)
REMARK    1  A    between atoms: N_2  and  C_6
REMARK    2  A    between atoms: N_4  and  C_14
REMARK    3  A    between atoms: C_14  and  C_18
REMARK    4  A    between atoms: C_18  and  C_19
REMARK    5  A    between atoms: C_18  and  C_20
REMARK    6  A    between atoms: C_18  and  C_21
REMARK                            x       y       z     vdW  Elec       q    Type
REMARK                         _______ _______ _______ _____ _____    ______ ____
ROOT
ATOM      1  O   UNL     1     -14.901  -0.314  29.254  0.00  0.00    -0.252 OA
ATOM      2  N   UNL     1     -16.079   1.549  28.414  0.00  0.00    -0.281 N 
ATOM      3  N   UNL     1     -14.830   1.807  30.264  0.00  0.00    -0.278 N 
ATOM      4  N   UNL     1     -14.857   3.747  32.299  0.00  0.00    -0.299 NA
ATOM      5  C   UNL     1     -15.303   3.140  29.955  0.00  0.00    +0.109 C 
ATOM      7  C   UNL     1     -16.326   2.915  28.844  0.00  0.00    +0.133 C 
ATOM      8  C   UNL     1     -15.856   3.812  31.212  0.00  0.00    +0.108 C 
ATOM      9  C   UNL     1     -13.962   1.608  31.405  0.00  0.00    +0.125 C 
ATOM     10  C   UNL     1     -15.225   0.865  29.303  0.00  0.00    +0.305 C 
ATOM     13  C   UNL     1     -14.522   2.346  32.623  0.00  0.00    +0.103 C 
ENDROOT
BRANCH   2   6
ATOM      6  C   UNL     1     -16.770   0.965  27.291  0.00  0.00    +0.078 C 
ATOM     11  C   UNL     1     -16.665   1.875  26.064  0.00  0.00    +0.022 C 
ATOM     12  C   UNL     1     -18.230   0.673  27.644  0.00  0.00    +0.022 C 
ATOM     15  C   UNL     1     -17.433   1.306  24.874  0.00  0.00    +0.002 C 
ATOM     16  C   UNL     1     -18.994   0.104  26.452  0.00  0.00    +0.002 C 
ATOM     17  C   UNL     1     -18.887   1.011  25.230  0.00  0.00    +0.000 C 
ENDBRANCH   2   6
BRANCH   4  14
ATOM     14  C   UNL     1     -15.354   4.441  33.488  0.00  0.00    +0.090 C 
BRANCH  14  18
ATOM     18  C   UNL     1     -14.649   5.793  33.770  0.00  0.00    -0.025 C 
ATOM     19  C   UNL     1     -13.569   6.009  32.693  0.00  0.00    +0.012 C 
ATOM     20  C   UNL     1     -15.653   6.957  33.702  0.00  0.00    +0.012 C 
ATOM     21  C   UNL     1     -13.970   5.789  35.151  0.00  0.00    +0.012 C 
ENDBRANCH  14  18
ENDBRANCH   4  14
TORSDOF 3
ENDMDL
MODEL 6
REMARK VINA RESULT:      -5.2     23.045     26.604
REMARK  Name = 75368650
REMARK  6 active torsions:
REMARK  status: ('A' for Active; 'I' for Inactive)
REMARK    1  A    between atoms: N_2  and  C_6
REMARK    2  A    between atoms: N_4  and  C_14
REMARK    3  A    between atoms: C_14  and  C_18
REMARK    4  A    between atoms: C_18  and  C_19
REMARK    5  A    between atoms: C_18  and  C_20
REMARK    6  A    between atoms: C_18  and  C_21
REMARK                            x       y       z     vdW  Elec       q    Type
REMARK                         _______ _______ _______ _____ _____    ______ ____
ROOT
ATOM      1  O   UNL     1     -17.572   4.279  31.978  0.00  0.00    -0.252 OA
ATOM      2  N   UNL     1     -15.418   3.327  32.112  0.00  0.00    -0.281 N 
ATOM      3  N   UNL     1     -15.781   5.315  33.093  0.00  0.00    -0.278 N 
ATOM      4  N   UNL     1     -14.031   7.357  33.917  0.00  0.00    -0.299 NA
ATOM      5  C   UNL     1     -14.425   4.969  33.464  0.00  0.00    +0.109 C 
ATOM      7  C   UNL     1     -14.116   3.742  32.610  0.00  0.00    +0.133 C 
ATOM      8  C   UNL     1     -13.492   6.159  33.239  0.00  0.00    +0.108 C 
ATOM      9  C   UNL     1     -16.358   6.550  33.583  0.00  0.00    +0.125 C 
ATOM     10  C   UNL     1     -16.406   4.303  32.351  0.00  0.00    +0.305 C 
ATOM     13  C   UNL     1     -15.367   7.701  33.393  0.00  0.00    +0.103 C 
ENDROOT
BRANCH   2   6
ATOM      6  C   UNL     1     -15.591   2.123  31.338  0.00  0.00    +0.078 C 
ATOM     11  C   UNL     1     -14.817   0.963  31.969  0.00  0.00    +0.022 C 
ATOM     12  C   UNL     1     -15.170   2.346  29.884  0.00  0.00    +0.022 C 
ATOM     15  C   UNL     1     -14.940  -0.314  31.141  0.00  0.00    +0.002 C 
ATOM     16  C   UNL     1     -15.295   1.069  29.059  0.00  0.00    +0.002 C 
ATOM     17  C   UNL     1     -14.524  -0.087  29.691  0.00  0.00    +0.000 C 
ENDBRANCH   2   6
BRANCH   4  14
ATOM     14  C   UNL     1     -13.114   8.486  33.758  0.00  0.00    +0.090 C 
BRANCH  14  18
ATOM     18  C   UNL     1     -12.541   9.026  35.094  0.00  0.00    -0.025 C 
ATOM     19  C   UNL     1     -13.460  10.159  35.591  0.00  0.00    +0.012 C 
ATOM     20  C   UNL     1     -12.506   7.919  36.161  0.00  0.00    +0.012 C 
ATOM     21  C   UNL     1     -11.124   9.593  34.904  0.00  0.00    +0.012 C 
ENDBRANCH  14  18
ENDBRANCH   4  14
TORSDOF 3
ENDMDL
MODEL 7
REMARK VINA RESULT:      -5.2      2.951      4.856
REMARK  Name = 75368650
REMARK  6 active torsions:
REMARK  status: ('A' for Active; 'I' for Inactive)
REMARK    1  A    between atoms: N_2  and  C_6
REMARK    2  A    between atoms: N_4  and  C_14
REMARK    3  A    between atoms: C_14  and  C_18
REMARK    4  A    between atoms: C_18  and  C_19
REMARK    5  A    between atoms: C_18  and  C_20
REMARK    6  A    between atoms: C_18  and  C_21
REMARK                            x       y       z     vdW  Elec       q    Type
REMARK                         _______ _______ _______ _____ _____    ______ ____
ROOT
ATOM      1  O   UNL     1      -4.258 -12.362  18.534  0.00  0.00    -0.252 OA
ATOM      2  N   UNL     1      -4.893 -11.111  16.638  0.00  0.00    -0.281 N 
ATOM      3  N   UNL     1      -6.360 -11.334  18.324  0.00  0.00    -0.278 N 
ATOM      4  N   UNL     1      -9.152 -11.020  18.444  0.00  0.00    -0.299 NA
ATOM      5  C   UNL     1      -7.005 -10.425  17.399  0.00  0.00    +0.109 C 
ATOM      7  C   UNL     1      -6.106 -10.465  16.165  0.00  0.00    +0.133 C 
ATOM      8  C   UNL     1      -8.452 -10.853  17.154  0.00  0.00    +0.108 C 
ATOM      9  C   UNL     1      -7.032 -11.685  19.558  0.00  0.00    +0.125 C 
ATOM     10  C   UNL     1      -5.067 -11.685  17.913  0.00  0.00    +0.305 C 
ATOM     13  C   UNL     1      -8.492 -12.048  19.273  0.00  0.00    +0.103 C 
ENDROOT
BRANCH   2   6
ATOM      6  C   UNL     1      -3.727 -11.253  15.800  0.00  0.00    +0.078 C 
ATOM     11  C   UNL     1      -2.517 -10.571  16.445  0.00  0.00    +0.022 C 
ATOM     12  C   UNL     1      -3.995 -10.702  14.398  0.00  0.00    +0.022 C 
ATOM     15  C   UNL     1      -1.280 -10.661  15.555  0.00  0.00    +0.002 C 
ATOM     16  C   UNL     1      -2.757 -10.793  13.512  0.00  0.00    +0.002 C 
ATOM     17  C   UNL     1      -1.552 -10.115  14.157  0.00  0.00    +0.000 C 
ENDBRANCH   2   6
BRANCH   4  14
ATOM     14  C   UNL     1     -10.555 -11.371  18.219  0.00  0.00    +0.090 C 
BRANCH  14  18
ATOM     18  C   UNL     1     -11.559 -10.274  18.660  0.00  0.00    -0.025 C 
ATOM     19  C   UNL     1     -12.982 -10.757  18.320  0.00  0.00    +0.012 C 
ATOM     20  C   UNL     1     -11.472 -10.032  20.177  0.00  0.00    +0.012 C 
ATOM     21  C   UNL     1     -11.300  -8.951  17.919  0.00  0.00    +0.012 C 
ENDBRANCH  14  18
ENDBRANCH   4  14
TORSDOF 3
ENDMDL
MODEL 8
REMARK VINA RESULT:      -5.2     23.915     26.946
REMARK  Name = 75368650
REMARK  6 active torsions:
REMARK  status: ('A' for Active; 'I' for Inactive)
REMARK    1  A    between atoms: N_2  and  C_6
REMARK    2  A    between atoms: N_4  and  C_14
REMARK    3  A    between atoms: C_14  and  C_18
REMARK    4  A    between atoms: C_18  and  C_19
REMARK    5  A    between atoms: C_18  and  C_20
REMARK    6  A    between atoms: C_18  and  C_21
REMARK                            x       y       z     vdW  Elec       q    Type
REMARK                         _______ _______ _______ _____ _____    ______ ____
ROOT
ATOM      1  O   UNL     1      13.165   6.960   3.176  0.00  0.00    -0.252 OA
ATOM      2  N   UNL     1      11.312   5.564   3.604  0.00  0.00    -0.281 N 
ATOM      3  N   UNL     1      12.351   5.399   1.619  0.00  0.00    -0.278 N 
ATOM      4  N   UNL     1      11.528   4.344  -0.854  0.00  0.00    -0.299 NA
ATOM      5  C   UNL     1      11.363   4.341   1.602  0.00  0.00    +0.109 C 
ATOM      7  C   UNL     1      10.520   4.609   2.846  0.00  0.00    +0.133 C 
ATOM      8  C   UNL     1      10.587   4.359   0.285  0.00  0.00    +0.108 C 
ATOM      9  C   UNL     1      13.229   5.569   0.481  0.00  0.00    +0.125 C 
ATOM     10  C   UNL     1      12.379   6.083   2.843  0.00  0.00    +0.305 C 
ATOM     13  C   UNL     1      12.419   5.520  -0.817  0.00  0.00    +0.103 C 
ENDROOT
BRANCH   2   6
ATOM      6  C   UNL     1      10.921   6.007   4.920  0.00  0.00    +0.078 C 
ATOM     11  C   UNL     1      10.093   4.930   5.625  0.00  0.00    +0.022 C 
ATOM     12  C   UNL     1      10.160   7.332   4.843  0.00  0.00    +0.022 C 
ATOM     15  C   UNL     1       9.620   5.393   7.001  0.00  0.00    +0.002 C 
ATOM     16  C   UNL     1       9.690   7.792   6.220  0.00  0.00    +0.002 C 
ATOM     17  C   UNL     1       8.866   6.716   6.921  0.00  0.00    +0.000 C 
ENDBRANCH   2   6
BRANCH   4  14
ATOM     14  C   UNL     1      10.794   4.300  -2.119  0.00  0.00    +0.090 C 
BRANCH  14  18
ATOM     18  C   UNL     1      11.193   3.117  -3.040  0.00  0.00    -0.025 C 
ATOM     19  C   UNL     1       9.902   2.446  -3.550  0.00  0.00    +0.012 C 
ATOM     20  C   UNL     1      12.000   3.615  -4.251  0.00  0.00    +0.012 C 
ATOM     21  C   UNL     1      12.019   2.069  -2.275  0.00  0.00    +0.012 C 
ENDBRANCH  14  18
ENDBRANCH   4  14
TORSDOF 3
ENDMDL
MODEL 9
REMARK VINA RESULT:      -5.1     20.154     21.211
REMARK  Name = 75368650
REMARK  6 active torsions:
REMARK  status: ('A' for Active; 'I' for Inactive)
REMARK    1  A    between atoms: N_2  and  C_6
REMARK    2  A    between atoms: N_4  and  C_14
REMARK    3  A    between atoms: C_14  and  C_18
REMARK    4  A    between atoms: C_18  and  C_19
REMARK    5  A    between atoms: C_18  and  C_20
REMARK    6  A    between atoms: C_18  and  C_21
REMARK                            x       y       z     vdW  Elec       q    Type
REMARK                         _______ _______ _______ _____ _____    ______ ____
ROOT
ATOM      1  O   UNL     1     -16.515   5.053  20.528  0.00  0.00    -0.252 OA
ATOM      2  N   UNL     1     -14.741   5.573  21.993  0.00  0.00    -0.281 N 
ATOM      3  N   UNL     1     -16.318   4.128  22.679  0.00  0.00    -0.278 N 
ATOM      4  N   UNL     1     -17.084   3.250  25.238  0.00  0.00    -0.299 NA
ATOM      5  C   UNL     1     -15.336   4.125  23.742  0.00  0.00    +0.109 C 
ATOM      7  C   UNL     1     -14.398   5.272  23.373  0.00  0.00    +0.133 C 
ATOM      8  C   UNL     1     -16.022   4.269  25.100  0.00  0.00    +0.108 C 
ATOM      9  C   UNL     1     -17.481   3.272  22.785  0.00  0.00    +0.125 C 
ATOM     10  C   UNL     1     -15.930   4.930  21.596  0.00  0.00    +0.305 C 
ATOM     13  C   UNL     1     -18.100   3.402  24.179  0.00  0.00    +0.103 C 
ENDROOT
BRANCH   2   6
ATOM      6  C   UNL     1     -14.006   6.541  21.216  0.00  0.00    +0.078 C 
ATOM     11  C   UNL     1     -12.512   6.203  21.214  0.00  0.00    +0.022 C 
ATOM     12  C   UNL     1     -14.255   7.958  21.737  0.00  0.00    +0.022 C 
ATOM     15  C   UNL     1     -11.702   7.241  20.442  0.00  0.00    +0.002 C 
ATOM     16  C   UNL     1     -13.444   8.993  20.962  0.00  0.00    +0.002 C 
ATOM     17  C   UNL     1     -11.956   8.653  20.959  0.00  0.00    +0.000 C 
ENDBRANCH   2   6
BRANCH   4  14
ATOM     14  C   UNL     1     -17.706   3.341  26.559  0.00  0.00    +0.090 C 
BRANCH  14  18
ATOM     18  C   UNL     1     -17.581   2.047  27.406  0.00  0.00    -0.025 C 
ATOM     19  C   UNL     1     -19.001   1.540  27.726  0.00  0.00    +0.012 C 
ATOM     20  C   UNL     1     -16.832   0.954  26.626  0.00  0.00    +0.012 C 
ATOM     21  C   UNL     1     -16.848   2.317  28.731  0.00  0.00    +0.012 C 
ENDBRANCH  14  18
ENDBRANCH   4  14
TORSDOF 3
ENDMDL
MODEL 10
REMARK VINA RESULT:      -5.0     29.295     31.211
REMARK  Name = 75368650
REMARK  6 active torsions:
REMARK  status: ('A' for Active; 'I' for Inactive)
REMARK    1  A    between atoms: N_2  and  C_6
REMARK    2  A    between atoms: N_4  and  C_14
REMARK    3  A    between atoms: C_14  and  C_18
REMARK    4  A    between atoms: C_18  and  C_19
REMARK    5  A    between atoms: C_18  and  C_20
REMARK    6  A    between atoms: C_18  and  C_21
REMARK                            x       y       z     vdW  Elec       q    Type
REMARK                         _______ _______ _______ _____ _____    ______ ____
ROOT
ATOM      1  O   UNL     1      18.869   8.416  22.329  0.00  0.00    -0.252 OA
ATOM      2  N   UNL     1      18.207   6.753  20.793  0.00  0.00    -0.281 N 
ATOM      3  N   UNL     1      20.206   6.557  21.800  0.00  0.00    -0.278 N 
ATOM      4  N   UNL     1      22.508   5.081  21.143  0.00  0.00    -0.299 NA
ATOM      5  C   UNL     1      20.062   5.336  21.036  0.00  0.00    +0.109 C 
ATOM      7  C   UNL     1      18.819   5.583  20.185  0.00  0.00    +0.133 C 
ATOM      8  C   UNL     1      21.337   5.051  20.243  0.00  0.00    +0.108 C 
ATOM      9  C   UNL     1      21.394   6.756  22.604  0.00  0.00    +0.125 C 
ATOM     10  C   UNL     1      19.068   7.372  21.721  0.00  0.00    +0.305 C 
ATOM     13  C   UNL     1      22.641   6.402  21.790  0.00  0.00    +0.103 C 
ENDROOT
BRANCH   2   6
ATOM      6  C   UNL     1      16.933   7.265  20.352  0.00  0.00    +0.078 C 
ATOM     11  C   UNL     1      15.922   7.253  21.502  0.00  0.00    +0.022 C 
ATOM     12  C   UNL     1      16.416   6.474  19.149  0.00  0.00    +0.022 C 
ATOM     15  C   UNL     1      14.548   7.741  21.050  0.00  0.00    +0.002 C 
ATOM     16  C   UNL     1      15.043   6.965  18.700  0.00  0.00    +0.002 C 
ATOM     17  C   UNL     1      14.038   6.953  19.848  0.00  0.00    +0.000 C 
ENDBRANCH   2   6
BRANCH   4  14
ATOM     14  C   UNL     1      23.727   4.751  20.404  0.00  0.00    +0.090 C 
BRANCH  14  18
ATOM     18  C   UNL     1      24.452   3.480  20.919  0.00  0.00    -0.025 C 
ATOM     19  C   UNL     1      24.840   3.708  22.392  0.00  0.00    +0.012 C 
ATOM     20  C   UNL     1      23.527   2.253  20.839  0.00  0.00    +0.012 C 
ATOM     21  C   UNL     1      25.732   3.204  20.113  0.00  0.00    +0.012 C 
ENDBRANCH  14  18
ENDBRANCH   4  14
TORSDOF 3
ENDMDL
