MODEL 1
REMARK VINA RESULT:      -6.4      0.000      0.000
REMARK  Name = 11883078
REMARK  12 active torsions:
REMARK  status: ('A' for Active; 'I' for Inactive)
REMARK    1  A    between atoms: O_2  and  C_16
REMARK    2  A    between atoms: O_3  and  C_21
REMARK    3  A    between atoms: O_6  and  C_29
REMARK    4  A    between atoms: O_6  and  C_32
REMARK    5  A    between atoms: N_9  and  C_27
REMARK    6  A    between atoms: C_11  and  C_19
REMARK    7  A    between atoms: C_13  and  C_21
REMARK    8  A    between atoms: C_13  and  C_22
REMARK    9  A    between atoms: C_14  and  C_24
REMARK   10  A    between atoms: C_24  and  C_25
REMARK   11  A    between atoms: C_27  and  C_29
REMARK   12  A    between atoms: C_28  and  C_30
REMARK                            x       y       z     vdW  Elec       q    Type
REMARK                         _______ _______ _______ _____ _____    ______ ____
ROOT
ATOM      1  S   UNL     1      18.044   6.456  20.306  0.00  0.00    -0.057 S 
ATOM      5  O   UNL     1      20.743   9.048  23.018  0.00  0.00    -0.266 OA
ATOM      8  N   UNL     1      18.172   8.627  21.706  0.00  0.00    -0.229 NA
ATOM     10  N   UNL     1      20.148   7.248  21.654  0.00  0.00    -0.258 N 
ATOM     11  C   UNL     1      14.681   9.552  20.355  0.00  0.00    -0.019 C 
ATOM     12  C   UNL     1      14.238   8.027  20.235  0.00  0.00    +0.011 C 
ATOM     13  C   UNL     1      12.832   7.740  19.579  0.00  0.00    +0.021 C 
ATOM     14  C   UNL     1      15.879   9.634  21.410  0.00  0.00    +0.054 C 
ATOM     15  C   UNL     1      13.495  10.392  20.895  0.00  0.00    +0.010 C 
ATOM     16  C   UNL     1      11.773   8.695  20.199  0.00  0.00    +0.123 C 
ATOM     17  C   UNL     1      15.387   7.144  19.666  0.00  0.00    +0.049 C 
ATOM     18  C   UNL     1      12.187  10.162  20.152  0.00  0.00    +0.032 C 
ATOM     19  C   UNL     1      15.142  10.153  19.004  0.00  0.00    +0.012 C 
ATOM     20  C   UNL     1      16.911   8.570  21.143  0.00  0.00    +0.058 A 
ATOM     22  C   UNL     1      12.399   6.286  19.922  0.00  0.00    +0.016 C 
ATOM     23  C   UNL     1      16.663   7.452  20.373  0.00  0.00    +0.015 A 
ATOM     26  C   UNL     1      18.857   7.570  21.328  0.00  0.00    +0.165 A 
ATOM     28  C   UNL     1      21.032   7.985  22.474  0.00  0.00    +0.285 C 
ATOM     38  H   UNL     1      20.490   6.381  21.247  0.00  0.00    +0.157 HD
ENDROOT
BRANCH  28  30
ATOM      7  O   UNL     1      23.148   7.826  23.651  0.00  0.00    -0.458 OA
ATOM     30  C   UNL     1      22.383   7.411  22.609  0.00  0.00    +0.189 A 
ATOM     31  C   UNL     1      23.062   6.487  21.847  0.00  0.00    +0.054 A 
ATOM     33  C   UNL     1      24.326   6.325  22.462  0.00  0.00    +0.042 A 
ATOM     34  C   UNL     1      24.330   7.159  23.556  0.00  0.00    +0.196 A 
ENDBRANCH  28  30
BRANCH  16   2
ATOM      2  O   UNL     1      10.517   8.551  19.536  0.00  0.00    -0.391 OA
ATOM     35  H   UNL     1      10.159   7.678  19.772  0.00  0.00    +0.210 HD
ENDBRANCH  16   2
BRANCH  13  21
ATOM     21  C   UNL     1      12.815   7.825  18.036  0.00  0.00    +0.165 C 
BRANCH  21   3
ATOM      3  O   UNL     1      11.862   6.900  17.564  0.00  0.00    -0.394 OA
ATOM     36  H   UNL     1      11.984   6.076  18.066  0.00  0.00    +0.209 HD
ENDBRANCH  21   3
ENDBRANCH  13  21
BRANCH  14  24
ATOM     24  C   UNL     1      16.522  11.022  21.536  0.00  0.00    +0.106 C 
BRANCH  24  25
ATOM      4  O   UNL     1      17.178  12.352  23.448  0.00  0.00    -0.276 OA
ATOM      9  N   UNL     1      15.191  11.148  23.517  0.00  0.00    -0.313 N 
ATOM     25  C   UNL     1      16.364  11.595  22.925  0.00  0.00    +0.214 C 
ATOM     37  H   UNL     1      14.578  10.528  22.996  0.00  0.00    +0.149 HD
BRANCH   9  27
ATOM     27  C   UNL     1      14.782  11.532  24.849  0.00  0.00    +0.132 C 
BRANCH  27  29
ATOM     29  C   UNL     1      13.465  12.286  24.832  0.00  0.00    +0.178 C 
BRANCH  29   6
ATOM      6  O   UNL     1      12.510  11.585  25.618  0.00  0.00    -0.381 OA
ATOM     32  C   UNL     1      11.183  11.862  25.194  0.00  0.00    +0.194 C 
ENDBRANCH  29   6
ENDBRANCH  27  29
ENDBRANCH   9  27
ENDBRANCH  24  25
ENDBRANCH  14  24
TORSDOF 9
ENDMDL
MODEL 2
REMARK VINA RESULT:      -6.3     30.398     33.710
REMARK  Name = 11883078
REMARK  12 active torsions:
REMARK  status: ('A' for Active; 'I' for Inactive)
REMARK    1  A    between atoms: O_2  and  C_16
REMARK    2  A    between atoms: O_3  and  C_21
REMARK    3  A    between atoms: O_6  and  C_29
REMARK    4  A    between atoms: O_6  and  C_32
REMARK    5  A    between atoms: N_9  and  C_27
REMARK    6  A    between atoms: C_11  and  C_19
REMARK    7  A    between atoms: C_13  and  C_21
REMARK    8  A    between atoms: C_13  and  C_22
REMARK    9  A    between atoms: C_14  and  C_24
REMARK   10  A    between atoms: C_24  and  C_25
REMARK   11  A    between atoms: C_27  and  C_29
REMARK   12  A    between atoms: C_28  and  C_30
REMARK                            x       y       z     vdW  Elec       q    Type
REMARK                         _______ _______ _______ _____ _____    ______ ____
ROOT
ATOM      1  S   UNL     1     -10.182 -12.791  20.362  0.00  0.00    -0.057 S 
ATOM      5  O   UNL     1     -13.382  -9.507  19.784  0.00  0.00    -0.266 OA
ATOM      8  N   UNL     1     -10.759 -10.596  19.120  0.00  0.00    -0.229 NA
ATOM     10  N   UNL     1     -12.420 -11.454  20.642  0.00  0.00    -0.258 N 
ATOM     11  C   UNL     1      -7.174 -10.606  17.702  0.00  0.00    -0.019 C 
ATOM     12  C   UNL     1      -7.095 -12.197  17.702  0.00  0.00    +0.011 C 
ATOM     13  C   UNL     1      -5.713 -12.845  17.301  0.00  0.00    +0.021 C 
ATOM     14  C   UNL     1      -8.717 -10.190  17.697  0.00  0.00    +0.054 C 
ATOM     15  C   UNL     1      -6.514 -10.057  16.410  0.00  0.00    +0.010 C 
ATOM     16  C   UNL     1      -5.174 -12.150  16.018  0.00  0.00    +0.123 C 
ATOM     17  C   UNL     1      -7.716 -12.798  18.997  0.00  0.00    +0.049 C 
ATOM     18  C   UNL     1      -5.133 -10.630  16.131  0.00  0.00    +0.032 C 
ATOM     19  C   UNL     1      -6.472  -9.969  18.926  0.00  0.00    +0.012 C 
ATOM     20  C   UNL     1      -9.495 -10.982  18.715  0.00  0.00    +0.058 A 
ATOM     22  C   UNL     1      -5.937 -14.344  16.955  0.00  0.00    +0.016 C 
ATOM     23  C   UNL     1      -9.035 -12.159  19.272  0.00  0.00    +0.015 A 
ATOM     26  C   UNL     1     -11.214 -11.470  19.992  0.00  0.00    +0.165 A 
ATOM     28  C   UNL     1     -13.445 -10.490  20.518  0.00  0.00    +0.285 C 
ATOM     38  H   UNL     1     -12.571 -12.229  21.284  0.00  0.00    +0.157 HD
ENDROOT
BRANCH  28  30
ATOM      7  O   UNL     1     -14.570 -11.743  22.267  0.00  0.00    -0.458 OA
ATOM     30  C   UNL     1     -14.618 -10.712  21.383  0.00  0.00    +0.189 A 
ATOM     31  C   UNL     1     -15.819 -10.047  21.480  0.00  0.00    +0.054 A 
ATOM     33  C   UNL     1     -16.555 -10.713  22.488  0.00  0.00    +0.042 A 
ATOM     34  C   UNL     1     -15.753 -11.736  22.937  0.00  0.00    +0.196 A 
ENDBRANCH  28  30
BRANCH  16   2
ATOM      2  O   UNL     1      -3.866 -12.624  15.702  0.00  0.00    -0.391 OA
ATOM     35  H   UNL     1      -3.572 -13.189  16.436  0.00  0.00    +0.210 HD
ENDBRANCH  16   2
BRANCH  13  21
ATOM     21  C   UNL     1      -4.650 -12.832  18.421  0.00  0.00    +0.165 C 
BRANCH  21   3
ATOM      3  O   UNL     1      -4.045 -14.105  18.457  0.00  0.00    -0.394 OA
ATOM     36  H   UNL     1      -3.777 -14.323  17.548  0.00  0.00    +0.209 HD
ENDBRANCH  21   3
ENDBRANCH  13  21
BRANCH  14  24
ATOM     24  C   UNL     1      -8.971  -8.684  17.842  0.00  0.00    +0.106 C 
BRANCH  24  25
ATOM      4  O   UNL     1      -9.627  -8.619  15.515  0.00  0.00    -0.276 OA
ATOM      9  N   UNL     1     -10.332  -6.933  16.952  0.00  0.00    -0.313 N 
ATOM     25  C   UNL     1      -9.664  -8.106  16.630  0.00  0.00    +0.214 C 
ATOM     37  H   UNL     1     -10.309  -6.596  17.910  0.00  0.00    +0.149 HD
BRANCH   9  27
ATOM     27  C   UNL     1     -11.080  -6.161  15.987  0.00  0.00    +0.132 C 
BRANCH  27  29
ATOM     29  C   UNL     1     -12.532  -6.600  15.928  0.00  0.00    +0.178 C 
BRANCH  29   6
ATOM      6  O   UNL     1     -13.113  -6.144  14.713  0.00  0.00    -0.381 OA
ATOM     32  C   UNL     1     -12.206  -5.338  13.974  0.00  0.00    +0.194 C 
ENDBRANCH  29   6
ENDBRANCH  27  29
ENDBRANCH   9  27
ENDBRANCH  24  25
ENDBRANCH  14  24
TORSDOF 9
ENDMDL
MODEL 3
REMARK VINA RESULT:      -6.3     15.951     19.839
REMARK  Name = 11883078
REMARK  12 active torsions:
REMARK  status: ('A' for Active; 'I' for Inactive)
REMARK    1  A    between atoms: O_2  and  C_16
REMARK    2  A    between atoms: O_3  and  C_21
REMARK    3  A    between atoms: O_6  and  C_29
REMARK    4  A    between atoms: O_6  and  C_32
REMARK    5  A    between atoms: N_9  and  C_27
REMARK    6  A    between atoms: C_11  and  C_19
REMARK    7  A    between atoms: C_13  and  C_21
REMARK    8  A    between atoms: C_13  and  C_22
REMARK    9  A    between atoms: C_14  and  C_24
REMARK   10  A    between atoms: C_24  and  C_25
REMARK   11  A    between atoms: C_27  and  C_29
REMARK   12  A    between atoms: C_28  and  C_30
REMARK                            x       y       z     vdW  Elec       q    Type
REMARK                         _______ _______ _______ _____ _____    ______ ____
ROOT
ATOM      1  S   UNL     1      14.984   8.098   6.450  0.00  0.00    -0.057 S 
ATOM      5  O   UNL     1      12.182   6.364   3.209  0.00  0.00    -0.266 OA
ATOM      8  N   UNL     1      14.814   7.360   3.976  0.00  0.00    -0.229 NA
ATOM     10  N   UNL     1      12.822   7.143   5.316  0.00  0.00    -0.258 N 
ATOM     11  C   UNL     1      18.387   8.713   3.461  0.00  0.00    -0.019 C 
ATOM     12  C   UNL     1      18.812   8.382   4.960  0.00  0.00    +0.011 C 
ATOM     13  C   UNL     1      20.247   8.853   5.417  0.00  0.00    +0.021 C 
ATOM     14  C   UNL     1      17.135   7.791   3.090  0.00  0.00    +0.054 C 
ATOM     15  C   UNL     1      19.556   8.359   2.504  0.00  0.00    +0.010 C 
ATOM     16  C   UNL     1      21.286   8.461   4.327  0.00  0.00    +0.123 C 
ATOM     17  C   UNL     1      17.683   8.751   5.966  0.00  0.00    +0.049 C 
ATOM     18  C   UNL     1      20.898   8.934   2.931  0.00  0.00    +0.032 C 
ATOM     19  C   UNL     1      18.011  10.201   3.256  0.00  0.00    +0.012 C 
ATOM     20  C   UNL     1      16.103   7.813   4.187  0.00  0.00    +0.058 A 
ATOM     22  C   UNL     1      20.638   8.098   6.719  0.00  0.00    +0.016 C 
ATOM     23  C   UNL     1      16.375   8.230   5.474  0.00  0.00    +0.015 A 
ATOM     26  C   UNL     1      14.133   7.471   5.096  0.00  0.00    +0.165 A 
ATOM     28  C   UNL     1      11.906   6.610   4.381  0.00  0.00    +0.285 C 
ATOM     38  H   UNL     1      12.489   7.314   6.262  0.00  0.00    +0.157 HD
ENDROOT
BRANCH  28  30
ATOM      7  O   UNL     1      10.405   5.938   6.166  0.00  0.00    -0.458 OA
ATOM     30  C   UNL     1      10.541   6.399   4.895  0.00  0.00    +0.189 A 
ATOM     31  C   UNL     1       9.308   6.587   4.314  0.00  0.00    +0.054 A 
ATOM     33  C   UNL     1       8.353   6.217   5.290  0.00  0.00    +0.042 A 
ATOM     34  C   UNL     1       9.070   5.830   6.399  0.00  0.00    +0.196 A 
ENDBRANCH  28  30
BRANCH  16   2
ATOM      2  O   UNL     1      22.574   8.985   4.649  0.00  0.00    -0.391 OA
ATOM     35  H   UNL     1      22.829   9.596   3.937  0.00  0.00    +0.210 HD
ENDBRANCH  16   2
BRANCH  13  21
ATOM     21  C   UNL     1      20.351  10.355   5.761  0.00  0.00    +0.165 C 
BRANCH  21   3
ATOM      3  O   UNL     1      21.209  10.485   6.871  0.00  0.00    -0.394 OA
ATOM     36  H   UNL     1      22.035  10.021   6.655  0.00  0.00    +0.209 HD
ENDBRANCH  21   3
ENDBRANCH  13  21
BRANCH  14  24
ATOM     24  C   UNL     1      16.508   8.089   1.721  0.00  0.00    +0.106 C 
BRANCH  24  25
ATOM      4  O   UNL     1      17.158   6.681  -0.136  0.00  0.00    -0.276 OA
ATOM      9  N   UNL     1      15.476   5.975   1.305  0.00  0.00    -0.313 N 
ATOM     25  C   UNL     1      16.444   6.858   0.848  0.00  0.00    +0.214 C 
ATOM     37  H   UNL     1      14.942   6.211   2.137  0.00  0.00    +0.149 HD
BRANCH   9  27
ATOM     27  C   UNL     1      15.191   4.714   0.661  0.00  0.00    +0.132 C 
BRANCH  27  29
ATOM     29  C   UNL     1      15.102   3.581   1.668  0.00  0.00    +0.178 C 
BRANCH  29   6
ATOM      6  O   UNL     1      13.790   3.035   1.649  0.00  0.00    -0.381 OA
ATOM     32  C   UNL     1      13.113   3.352   0.441  0.00  0.00    +0.194 C 
ENDBRANCH  29   6
ENDBRANCH  27  29
ENDBRANCH   9  27
ENDBRANCH  24  25
ENDBRANCH  14  24
TORSDOF 9
ENDMDL
MODEL 4
REMARK VINA RESULT:      -6.1      5.865      8.826
REMARK  Name = 11883078
REMARK  12 active torsions:
REMARK  status: ('A' for Active; 'I' for Inactive)
REMARK    1  A    between atoms: O_2  and  C_16
REMARK    2  A    between atoms: O_3  and  C_21
REMARK    3  A    between atoms: O_6  and  C_29
REMARK    4  A    between atoms: O_6  and  C_32
REMARK    5  A    between atoms: N_9  and  C_27
REMARK    6  A    between atoms: C_11  and  C_19
REMARK    7  A    between atoms: C_13  and  C_21
REMARK    8  A    between atoms: C_13  and  C_22
REMARK    9  A    between atoms: C_14  and  C_24
REMARK   10  A    between atoms: C_24  and  C_25
REMARK   11  A    between atoms: C_27  and  C_29
REMARK   12  A    between atoms: C_28  and  C_30
REMARK                            x       y       z     vdW  Elec       q    Type
REMARK                         _______ _______ _______ _____ _____    ______ ____
ROOT
ATOM      1  S   UNL     1      13.503  14.380  19.354  0.00  0.00    -0.057 S 
ATOM      5  O   UNL     1      13.815  10.667  16.619  0.00  0.00    -0.266 OA
ATOM      8  N   UNL     1      13.162  11.819  19.218  0.00  0.00    -0.229 NA
ATOM     10  N   UNL     1      13.962  12.917  17.227  0.00  0.00    -0.258 N 
ATOM     11  C   UNL     1      12.392  11.851  22.996  0.00  0.00    -0.019 C 
ATOM     12  C   UNL     1      11.773  13.317  22.937  0.00  0.00    +0.011 C 
ATOM     13  C   UNL     1      11.354  13.973  24.309  0.00  0.00    +0.021 C 
ATOM     14  C   UNL     1      12.329  11.230  21.525  0.00  0.00    +0.054 C 
ATOM     15  C   UNL     1      11.533  10.967  23.937  0.00  0.00    +0.010 C 
ATOM     16  C   UNL     1      10.543  12.940  25.144  0.00  0.00    +0.123 C 
ATOM     17  C   UNL     1      12.620  14.255  22.027  0.00  0.00    +0.049 C 
ATOM     18  C   UNL     1      11.254  11.599  25.293  0.00  0.00    +0.032 C 
ATOM     19  C   UNL     1      13.856  11.835  23.499  0.00  0.00    +0.012 C 
ATOM     20  C   UNL     1      12.825  12.216  20.499  0.00  0.00    +0.058 A 
ATOM     22  C   UNL     1      10.414  15.179  24.029  0.00  0.00    +0.016 C 
ATOM     23  C   UNL     1      12.931  13.571  20.740  0.00  0.00    +0.015 A 
ATOM     26  C   UNL     1      13.541  12.874  18.530  0.00  0.00    +0.165 A 
ATOM     28  C   UNL     1      14.083  11.831  16.331  0.00  0.00    +0.285 C 
ATOM     38  H   UNL     1      14.215  13.842  16.888  0.00  0.00    +0.157 HD
ENDROOT
BRANCH  28  30
ATOM      7  O   UNL     1      13.940  11.714  13.911  0.00  0.00    -0.458 OA
ATOM     30  C   UNL     1      14.609  12.177  14.999  0.00  0.00    +0.189 A 
ATOM     31  C   UNL     1      15.705  12.916  14.615  0.00  0.00    +0.054 A 
ATOM     33  C   UNL     1      15.707  12.907  13.199  0.00  0.00    +0.042 A 
ATOM     34  C   UNL     1      14.614  12.163  12.819  0.00  0.00    +0.196 A 
ENDBRANCH  28  30
BRANCH  16   2
ATOM      2  O   UNL     1      10.259  13.457  26.443  0.00  0.00    -0.391 OA
ATOM     35  H   UNL     1      11.050  13.931  26.751  0.00  0.00    +0.210 HD
ENDBRANCH  16   2
BRANCH  13  21
ATOM     21  C   UNL     1      12.529  14.545  25.133  0.00  0.00    +0.165 C 
BRANCH  21   3
ATOM      3  O   UNL     1      12.019  15.565  25.961  0.00  0.00    -0.394 OA
ATOM     36  H   UNL     1      12.534  16.369  25.780  0.00  0.00    +0.209 HD
ENDBRANCH  21   3
ENDBRANCH  13  21
BRANCH  14  24
ATOM     24  C   UNL     1      13.020   9.868  21.377  0.00  0.00    +0.106 C 
BRANCH  24  25
ATOM      4  O   UNL     1      10.989   8.890  20.500  0.00  0.00    -0.276 OA
ATOM      9  N   UNL     1      13.050   8.082  19.791  0.00  0.00    -0.313 N 
ATOM     25  C   UNL     1      12.217   8.914  20.525  0.00  0.00    +0.214 C 
ATOM     37  H   UNL     1      14.057   8.188  19.875  0.00  0.00    +0.149 HD
BRANCH   9  27
ATOM     27  C   UNL     1      12.556   7.066  18.890  0.00  0.00    +0.132 C 
BRANCH  27  29
ATOM     29  C   UNL     1      12.438   7.590  17.470  0.00  0.00    +0.178 C 
BRANCH  29   6
ATOM      6  O   UNL     1      11.064   7.707  17.124  0.00  0.00    -0.381 OA
ATOM     32  C   UNL     1      10.837   8.817  16.267  0.00  0.00    +0.194 C 
ENDBRANCH  29   6
ENDBRANCH  27  29
ENDBRANCH   9  27
ENDBRANCH  24  25
ENDBRANCH  14  24
TORSDOF 9
ENDMDL
MODEL 5
REMARK VINA RESULT:      -6.0     29.718     32.181
REMARK  Name = 11883078
REMARK  12 active torsions:
REMARK  status: ('A' for Active; 'I' for Inactive)
REMARK    1  A    between atoms: O_2  and  C_16
REMARK    2  A    between atoms: O_3  and  C_21
REMARK    3  A    between atoms: O_6  and  C_29
REMARK    4  A    between atoms: O_6  and  C_32
REMARK    5  A    between atoms: N_9  and  C_27
REMARK    6  A    between atoms: C_11  and  C_19
REMARK    7  A    between atoms: C_13  and  C_21
REMARK    8  A    between atoms: C_13  and  C_22
REMARK    9  A    between atoms: C_14  and  C_24
REMARK   10  A    between atoms: C_24  and  C_25
REMARK   11  A    between atoms: C_27  and  C_29
REMARK   12  A    between atoms: C_28  and  C_30
REMARK                            x       y       z     vdW  Elec       q    Type
REMARK                         _______ _______ _______ _____ _____    ______ ____
ROOT
ATOM      1  S   UNL     1      -5.332 -11.009  12.660  0.00  0.00    -0.057 S 
ATOM      5  O   UNL     1      -8.615  -8.833  10.240  0.00  0.00    -0.266 OA
ATOM      8  N   UNL     1      -7.639  -9.844  12.796  0.00  0.00    -0.229 NA
ATOM     10  N   UNL     1      -6.601  -9.953  10.623  0.00  0.00    -0.258 N 
ATOM     11  C   UNL     1      -7.827 -10.936  16.489  0.00  0.00    -0.019 C 
ATOM     12  C   UNL     1      -6.247 -10.865  16.672  0.00  0.00    +0.011 C 
ATOM     13  C   UNL     1      -5.664 -11.351  18.055  0.00  0.00    +0.021 C 
ATOM     14  C   UNL     1      -8.220 -10.014  15.244  0.00  0.00    +0.054 C 
ATOM     15  C   UNL     1      -8.519 -10.368  17.756  0.00  0.00    +0.010 C 
ATOM     16  C   UNL     1      -6.498 -10.728  19.211  0.00  0.00    +0.123 C 
ATOM     17  C   UNL     1      -5.504 -11.454  15.437  0.00  0.00    +0.049 C 
ATOM     18  C   UNL     1      -7.998 -10.956  19.059  0.00  0.00    +0.032 C 
ATOM     19  C   UNL     1      -8.341 -12.376  16.246  0.00  0.00    +0.012 C 
ATOM     20  C   UNL     1      -7.314 -10.275  14.069  0.00  0.00    +0.058 A 
ATOM     22  C   UNL     1      -4.207 -10.829  18.204  0.00  0.00    +0.016 C 
ATOM     23  C   UNL     1      -6.092 -10.906  14.181  0.00  0.00    +0.015 A 
ATOM     26  C   UNL     1      -6.671 -10.183  11.971  0.00  0.00    +0.165 A 
ATOM     28  C   UNL     1      -7.558  -9.297   9.817  0.00  0.00    +0.285 C 
ATOM     38  H   UNL     1      -5.761 -10.305  10.170  0.00  0.00    +0.157 HD
ENDROOT
BRANCH  28  30
ATOM      7  O   UNL     1      -6.232 -10.039   7.924  0.00  0.00    -0.458 OA
ATOM     30  C   UNL     1      -7.230  -9.238   8.381  0.00  0.00    +0.189 A 
ATOM     31  C   UNL     1      -7.761  -8.492   7.354  0.00  0.00    +0.054 A 
ATOM     33  C   UNL     1      -7.043  -8.860   6.191  0.00  0.00    +0.042 A 
ATOM     34  C   UNL     1      -6.125  -9.803   6.589  0.00  0.00    +0.196 A 
ENDBRANCH  28  30
BRANCH  16   2
ATOM      2  O   UNL     1      -6.079 -11.249  20.471  0.00  0.00    -0.391 OA
ATOM     35  H   UNL     1      -5.266 -10.781  20.727  0.00  0.00    +0.210 HD
ENDBRANCH  16   2
BRANCH  13  21
ATOM     21  C   UNL     1      -5.573 -12.886  18.208  0.00  0.00    +0.165 C 
BRANCH  21   3
ATOM      3  O   UNL     1      -4.305 -13.192  18.741  0.00  0.00    -0.394 OA
ATOM     36  H   UNL     1      -4.350 -13.044  19.701  0.00  0.00    +0.209 HD
ENDBRANCH  21   3
ENDBRANCH  13  21
BRANCH  14  24
ATOM     24  C   UNL     1      -9.700 -10.085  14.841  0.00  0.00    +0.106 C 
BRANCH  24  25
ATOM      4  O   UNL     1     -11.114  -8.459  13.740  0.00  0.00    -0.276 OA
ATOM      9  N   UNL     1      -9.782  -7.797  15.526  0.00  0.00    -0.313 N 
ATOM     25  C   UNL     1     -10.292  -8.713  14.617  0.00  0.00    +0.214 C 
ATOM     37  H   UNL     1      -9.111  -8.111  16.222  0.00  0.00    +0.149 HD
BRANCH   9  27
ATOM     27  C   UNL     1     -10.167  -6.406  15.546  0.00  0.00    +0.132 C 
BRANCH  27  29
ATOM     29  C   UNL     1     -11.441  -6.191  16.345  0.00  0.00    +0.178 C 
BRANCH  29   6
ATOM      6  O   UNL     1     -12.493  -5.823  15.464  0.00  0.00    -0.381 OA
ATOM     32  C   UNL     1     -13.612  -6.689  15.599  0.00  0.00    +0.194 C 
ENDBRANCH  29   6
ENDBRANCH  27  29
ENDBRANCH   9  27
ENDBRANCH  24  25
ENDBRANCH  14  24
TORSDOF 9
ENDMDL
MODEL 6
REMARK VINA RESULT:      -6.0     28.955     31.681
REMARK  Name = 11883078
REMARK  12 active torsions:
REMARK  status: ('A' for Active; 'I' for Inactive)
REMARK    1  A    between atoms: O_2  and  C_16
REMARK    2  A    between atoms: O_3  and  C_21
REMARK    3  A    between atoms: O_6  and  C_29
REMARK    4  A    between atoms: O_6  and  C_32
REMARK    5  A    between atoms: N_9  and  C_27
REMARK    6  A    between atoms: C_11  and  C_19
REMARK    7  A    between atoms: C_13  and  C_21
REMARK    8  A    between atoms: C_13  and  C_22
REMARK    9  A    between atoms: C_14  and  C_24
REMARK   10  A    between atoms: C_24  and  C_25
REMARK   11  A    between atoms: C_27  and  C_29
REMARK   12  A    between atoms: C_28  and  C_30
REMARK                            x       y       z     vdW  Elec       q    Type
REMARK                         _______ _______ _______ _____ _____    ______ ____
ROOT
ATOM      1  S   UNL     1      -7.612 -10.821  12.475  0.00  0.00    -0.057 S 
ATOM      5  O   UNL     1      -3.724 -11.176  10.002  0.00  0.00    -0.266 OA
ATOM      8  N   UNL     1      -5.047 -11.136  12.601  0.00  0.00    -0.229 NA
ATOM     10  N   UNL     1      -6.010 -10.916  10.402  0.00  0.00    -0.258 N 
ATOM     11  C   UNL     1      -5.333 -10.875  16.437  0.00  0.00    -0.019 C 
ATOM     12  C   UNL     1      -6.791 -11.515  16.450  0.00  0.00    +0.011 C 
ATOM     13  C   UNL     1      -7.537 -11.567  17.839  0.00  0.00    +0.021 C 
ATOM     14  C   UNL     1      -4.615 -11.315  15.079  0.00  0.00    +0.054 C 
ATOM     15  C   UNL     1      -4.513 -11.435  17.628  0.00  0.00    +0.010 C 
ATOM     16  C   UNL     1      -6.562 -12.106  18.925  0.00  0.00    +0.123 C 
ATOM     17  C   UNL     1      -7.667 -10.959  15.289  0.00  0.00    +0.049 C 
ATOM     18  C   UNL     1      -5.235 -11.356  18.965  0.00  0.00    +0.032 C 
ATOM     19  C   UNL     1      -5.353  -9.329  16.532  0.00  0.00    +0.012 C 
ATOM     20  C   UNL     1      -5.529 -11.128  13.896  0.00  0.00    +0.058 A 
ATOM     22  C   UNL     1      -8.721 -12.570  17.742  0.00  0.00    +0.016 C 
ATOM     23  C   UNL     1      -6.897 -10.988  14.012  0.00  0.00    +0.015 A 
ATOM     26  C   UNL     1      -6.054 -10.974  11.769  0.00  0.00    +0.165 A 
ATOM     28  C   UNL     1      -4.866 -11.017   9.578  0.00  0.00    +0.285 C 
ATOM     38  H   UNL     1      -6.911 -10.779   9.949  0.00  0.00    +0.157 HD
ENDROOT
BRANCH  28  30
ATOM      7  O   UNL     1      -4.514 -11.742   7.289  0.00  0.00    -0.458 OA
ATOM     30  C   UNL     1      -5.122 -10.871   8.134  0.00  0.00    +0.189 A 
ATOM     31  C   UNL     1      -5.898  -9.977   7.431  0.00  0.00    +0.054 A 
ATOM     33  C   UNL     1      -5.756 -10.323   6.067  0.00  0.00    +0.042 A 
ATOM     34  C   UNL     1      -4.905 -11.403   6.032  0.00  0.00    +0.196 A 
ENDBRANCH  28  30
BRANCH  16   2
ATOM      2  O   UNL     1      -7.165 -12.045  20.217  0.00  0.00    -0.391 OA
ATOM     35  H   UNL     1      -6.542 -11.593  20.811  0.00  0.00    +0.210 HD
ENDBRANCH  16   2
BRANCH  13  21
ATOM     21  C   UNL     1      -8.165 -10.226  18.281  0.00  0.00    +0.165 C 
BRANCH  21   3
ATOM      3  O   UNL     1      -9.185 -10.513  19.210  0.00  0.00    -0.394 OA
ATOM     36  H   UNL     1      -9.382  -9.688  19.687  0.00  0.00    +0.209 HD
ENDBRANCH  21   3
ENDBRANCH  13  21
BRANCH  14  24
ATOM     24  C   UNL     1      -3.246 -10.662  14.841  0.00  0.00    +0.106 C 
BRANCH  24  25
ATOM      4  O   UNL     1      -1.048 -11.570  15.287  0.00  0.00    -0.276 OA
ATOM      9  N   UNL     1      -2.526 -12.755  13.940  0.00  0.00    -0.313 N 
ATOM     25  C   UNL     1      -2.140 -11.686  14.736  0.00  0.00    +0.214 C 
ATOM     37  H   UNL     1      -3.459 -12.761  13.537  0.00  0.00    +0.149 HD
BRANCH   9  27
ATOM     27  C   UNL     1      -1.667 -13.882  13.661  0.00  0.00    +0.132 C 
BRANCH  27  29
ATOM     29  C   UNL     1      -2.208 -14.726  12.520  0.00  0.00    +0.178 C 
BRANCH  29   6
ATOM      6  O   UNL     1      -3.153 -13.966  11.779  0.00  0.00    -0.381 OA
ATOM     32  C   UNL     1      -3.622 -14.683  10.645  0.00  0.00    +0.194 C 
ENDBRANCH  29   6
ENDBRANCH  27  29
ENDBRANCH   9  27
ENDBRANCH  24  25
ENDBRANCH  14  24
TORSDOF 9
ENDMDL
MODEL 7
REMARK VINA RESULT:      -5.9     28.527     32.392
REMARK  Name = 11883078
REMARK  12 active torsions:
REMARK  status: ('A' for Active; 'I' for Inactive)
REMARK    1  A    between atoms: O_2  and  C_16
REMARK    2  A    between atoms: O_3  and  C_21
REMARK    3  A    between atoms: O_6  and  C_29
REMARK    4  A    between atoms: O_6  and  C_32
REMARK    5  A    between atoms: N_9  and  C_27
REMARK    6  A    between atoms: C_11  and  C_19
REMARK    7  A    between atoms: C_13  and  C_21
REMARK    8  A    between atoms: C_13  and  C_22
REMARK    9  A    between atoms: C_14  and  C_24
REMARK   10  A    between atoms: C_24  and  C_25
REMARK   11  A    between atoms: C_27  and  C_29
REMARK   12  A    between atoms: C_28  and  C_30
REMARK                            x       y       z     vdW  Elec       q    Type
REMARK                         _______ _______ _______ _____ _____    ______ ____
ROOT
ATOM      1  S   UNL     1      -6.795 -10.555  10.910  0.00  0.00    -0.057 S 
ATOM      5  O   UNL     1     -10.949  -8.902  12.080  0.00  0.00    -0.266 OA
ATOM      8  N   UNL     1      -8.289  -9.791  12.879  0.00  0.00    -0.229 NA
ATOM     10  N   UNL     1      -9.255  -9.681  10.674  0.00  0.00    -0.258 N 
ATOM     11  C   UNL     1      -5.512 -10.975  15.278  0.00  0.00    -0.019 C 
ATOM     12  C   UNL     1      -4.359 -10.648  14.230  0.00  0.00    +0.011 C 
ATOM     13  C   UNL     1      -2.890 -11.061  14.630  0.00  0.00    +0.021 C 
ATOM     14  C   UNL     1      -6.794 -10.105  14.887  0.00  0.00    +0.054 C 
ATOM     15  C   UNL     1      -5.052 -10.557  16.698  0.00  0.00    +0.010 C 
ATOM     16  C   UNL     1      -2.611 -10.608  16.092  0.00  0.00    +0.123 C 
ATOM     17  C   UNL     1      -4.760 -11.080  12.789  0.00  0.00    +0.049 C 
ATOM     18  C   UNL     1      -3.674 -11.077  17.079  0.00  0.00    +0.032 C 
ATOM     19  C   UNL     1      -5.895 -12.476  15.303  0.00  0.00    +0.012 C 
ATOM     20  C   UNL     1      -7.076 -10.188  13.409  0.00  0.00    +0.058 A 
ATOM     22  C   UNL     1      -1.884 -10.308  13.713  0.00  0.00    +0.016 C 
ATOM     23  C   UNL     1      -6.143 -10.611  12.484  0.00  0.00    +0.015 A 
ATOM     26  C   UNL     1      -8.258  -9.948  11.574  0.00  0.00    +0.165 A 
ATOM     28  C   UNL     1     -10.545  -9.176  10.952  0.00  0.00    +0.285 C 
ATOM     38  H   UNL     1      -9.023  -9.880   9.704  0.00  0.00    +0.157 HD
ENDROOT
BRANCH  28  30
ATOM      7  O   UNL     1     -12.749  -8.819  10.000  0.00  0.00    -0.458 OA
ATOM     30  C   UNL     1     -11.426  -9.033   9.779  0.00  0.00    +0.189 A 
ATOM     31  C   UNL     1     -11.162  -9.077   8.429  0.00  0.00    +0.054 A 
ATOM     33  C   UNL     1     -12.403  -8.876   7.780  0.00  0.00    +0.042 A 
ATOM     34  C   UNL     1     -13.337  -8.723   8.778  0.00  0.00    +0.196 A 
ENDBRANCH  28  30
BRANCH  16   2
ATOM      2  O   UNL     1      -1.336 -11.078  16.529  0.00  0.00    -0.391 OA
ATOM     35  H   UNL     1      -1.303 -10.980  17.496  0.00  0.00    +0.210 HD
ENDBRANCH  16   2
BRANCH  13  21
ATOM     21  C   UNL     1      -2.573 -12.562  14.449  0.00  0.00    +0.165 C 
BRANCH  21   3
ATOM      3  O   UNL     1      -1.265 -12.668  13.936  0.00  0.00    -0.394 OA
ATOM     36  H   UNL     1      -0.930 -13.548  14.177  0.00  0.00    +0.209 HD
ENDBRANCH  21   3
ENDBRANCH  13  21
BRANCH  14  24
ATOM     24  C   UNL     1      -8.049 -10.411  15.716  0.00  0.00    +0.106 C 
BRANCH  24  25
ATOM      4  O   UNL     1      -8.325  -8.894  17.580  0.00  0.00    -0.276 OA
ATOM      9  N   UNL     1      -9.389  -8.439  15.564  0.00  0.00    -0.313 N 
ATOM     25  C   UNL     1      -8.581  -9.181  16.413  0.00  0.00    +0.214 C 
ATOM     37  H   UNL     1      -9.531  -8.758  14.610  0.00  0.00    +0.149 HD
BRANCH   9  27
ATOM     27  C   UNL     1     -10.037  -7.211  15.964  0.00  0.00    +0.132 C 
BRANCH  27  29
ATOM     29  C   UNL     1     -11.321  -6.980  15.186  0.00  0.00    +0.178 C 
BRANCH  29   6
ATOM      6  O   UNL     1     -11.483  -5.589  14.947  0.00  0.00    -0.381 OA
ATOM     32  C   UNL     1     -12.497  -5.341  13.982  0.00  0.00    +0.194 C 
ENDBRANCH  29   6
ENDBRANCH  27  29
ENDBRANCH   9  27
ENDBRANCH  24  25
ENDBRANCH  14  24
TORSDOF 9
ENDMDL
MODEL 8
REMARK VINA RESULT:      -5.8     28.266     31.907
REMARK  Name = 11883078
REMARK  12 active torsions:
REMARK  status: ('A' for Active; 'I' for Inactive)
REMARK    1  A    between atoms: O_2  and  C_16
REMARK    2  A    between atoms: O_3  and  C_21
REMARK    3  A    between atoms: O_6  and  C_29
REMARK    4  A    between atoms: O_6  and  C_32
REMARK    5  A    between atoms: N_9  and  C_27
REMARK    6  A    between atoms: C_11  and  C_19
REMARK    7  A    between atoms: C_13  and  C_21
REMARK    8  A    between atoms: C_13  and  C_22
REMARK    9  A    between atoms: C_14  and  C_24
REMARK   10  A    between atoms: C_24  and  C_25
REMARK   11  A    between atoms: C_27  and  C_29
REMARK   12  A    between atoms: C_28  and  C_30
REMARK                            x       y       z     vdW  Elec       q    Type
REMARK                         _______ _______ _______ _____ _____    ______ ____
ROOT
ATOM      1  S   UNL     1      -5.029  -9.538  10.210  0.00  0.00    -0.057 S 
ATOM      5  O   UNL     1      -9.427  -8.207   9.718  0.00  0.00    -0.266 OA
ATOM      8  N   UNL     1      -7.305  -9.272  11.411  0.00  0.00    -0.229 NA
ATOM     10  N   UNL     1      -7.217  -8.625   9.091  0.00  0.00    -0.258 N 
ATOM     11  C   UNL     1      -5.745 -11.015  14.476  0.00  0.00    -0.019 C 
ATOM     12  C   UNL     1      -4.292 -10.446  14.159  0.00  0.00    +0.011 C 
ATOM     13  C   UNL     1      -3.111 -10.948  15.075  0.00  0.00    +0.021 C 
ATOM     14  C   UNL     1      -6.813 -10.072  13.752  0.00  0.00    +0.054 C 
ATOM     15  C   UNL     1      -5.999 -10.957  16.005  0.00  0.00    +0.010 C 
ATOM     16  C   UNL     1      -3.548 -10.866  16.566  0.00  0.00    +0.123 C 
ATOM     17  C   UNL     1      -3.975 -10.512  12.636  0.00  0.00    +0.049 C 
ATOM     18  C   UNL     1      -4.878 -11.559  16.840  0.00  0.00    +0.032 C 
ATOM     19  C   UNL     1      -5.938 -12.475  13.997  0.00  0.00    +0.012 C 
ATOM     20  C   UNL     1      -6.410  -9.791  12.328  0.00  0.00    +0.058 A 
ATOM     22  C   UNL     1      -1.893  -9.998  14.899  0.00  0.00    +0.016 C 
ATOM     23  C   UNL     1      -5.127  -9.978  11.853  0.00  0.00    +0.015 A 
ATOM     26  C   UNL     1      -6.690  -9.106  10.260  0.00  0.00    +0.165 A 
ATOM     28  C   UNL     1      -8.544  -8.199   8.863  0.00  0.00    +0.285 C 
ATOM     38  H   UNL     1      -6.564  -8.582   8.311  0.00  0.00    +0.157 HD
ENDROOT
BRANCH  28  30
ATOM      7  O   UNL     1      -8.000  -8.195   6.498  0.00  0.00    -0.458 OA
ATOM     30  C   UNL     1      -8.834  -7.772   7.483  0.00  0.00    +0.189 A 
ATOM     31  C   UNL     1      -9.837  -6.985   6.963  0.00  0.00    +0.054 A 
ATOM     33  C   UNL     1      -9.603  -6.923   5.568  0.00  0.00    +0.042 A 
ATOM     34  C   UNL     1      -8.475  -7.675   5.335  0.00  0.00    +0.196 A 
ENDBRANCH  28  30
BRANCH  16   2
ATOM      2  O   UNL     1      -2.551 -11.434  17.415  0.00  0.00    -0.391 OA
ATOM     35  H   UNL     1      -2.596 -10.975  18.270  0.00  0.00    +0.210 HD
ENDBRANCH  16   2
BRANCH  13  21
ATOM     21  C   UNL     1      -2.589 -12.361  14.732  0.00  0.00    +0.165 C 
BRANCH  21   3
ATOM      3  O   UNL     1      -1.182 -12.331  14.808  0.00  0.00    -0.394 OA
ATOM     36  H   UNL     1      -0.934 -12.598  15.709  0.00  0.00    +0.209 HD
ENDBRANCH  21   3
ENDBRANCH  13  21
BRANCH  14  24
ATOM     24  C   UNL     1      -8.263 -10.567  13.839  0.00  0.00    +0.106 C 
BRANCH  24  25
ATOM      4  O   UNL     1     -10.205  -9.153  13.555  0.00  0.00    -0.276 OA
ATOM      9  N   UNL     1      -8.823  -8.845  15.398  0.00  0.00    -0.313 N 
ATOM     25  C   UNL     1      -9.218  -9.459  14.218  0.00  0.00    +0.214 C 
ATOM     37  H   UNL     1      -7.993  -9.180  15.878  0.00  0.00    +0.149 HD
BRANCH   9  27
ATOM     27  C   UNL     1      -9.548  -7.749  15.998  0.00  0.00    +0.132 C 
BRANCH  27  29
ATOM     29  C   UNL     1     -10.062  -8.110  17.380  0.00  0.00    +0.178 C 
BRANCH  29   6
ATOM      6  O   UNL     1     -11.471  -8.288  17.327  0.00  0.00    -0.381 OA
ATOM     32  C   UNL     1     -11.894  -9.344  18.179  0.00  0.00    +0.194 C 
ENDBRANCH  29   6
ENDBRANCH  27  29
ENDBRANCH   9  27
ENDBRANCH  24  25
ENDBRANCH  14  24
TORSDOF 9
ENDMDL
MODEL 9
REMARK VINA RESULT:      -5.8      1.747      2.091
REMARK  Name = 11883078
REMARK  12 active torsions:
REMARK  status: ('A' for Active; 'I' for Inactive)
REMARK    1  A    between atoms: O_2  and  C_16
REMARK    2  A    between atoms: O_3  and  C_21
REMARK    3  A    between atoms: O_6  and  C_29
REMARK    4  A    between atoms: O_6  and  C_32
REMARK    5  A    between atoms: N_9  and  C_27
REMARK    6  A    between atoms: C_11  and  C_19
REMARK    7  A    between atoms: C_13  and  C_21
REMARK    8  A    between atoms: C_13  and  C_22
REMARK    9  A    between atoms: C_14  and  C_24
REMARK   10  A    between atoms: C_24  and  C_25
REMARK   11  A    between atoms: C_27  and  C_29
REMARK   12  A    between atoms: C_28  and  C_30
REMARK                            x       y       z     vdW  Elec       q    Type
REMARK                         _______ _______ _______ _____ _____    ______ ____
ROOT
ATOM      1  S   UNL     1      17.080   7.511  20.550  0.00  0.00    -0.057 S 
ATOM      5  O   UNL     1      20.431  10.067  22.448  0.00  0.00    -0.266 OA
ATOM      8  N   UNL     1      17.588   9.592  22.002  0.00  0.00    -0.229 NA
ATOM     10  N   UNL     1      19.482   8.328  21.211  0.00  0.00    -0.258 N 
ATOM     11  C   UNL     1      13.821  10.410  21.918  0.00  0.00    -0.019 C 
ATOM     12  C   UNL     1      13.410   8.874  21.827  0.00  0.00    +0.011 C 
ATOM     13  C   UNL     1      11.877   8.554  21.636  0.00  0.00    +0.021 C 
ATOM     14  C   UNL     1      15.292  10.490  22.536  0.00  0.00    +0.054 C 
ATOM     15  C   UNL     1      12.848  11.148  22.874  0.00  0.00    +0.010 C 
ATOM     16  C   UNL     1      11.046   9.409  22.636  0.00  0.00    +0.123 C 
ATOM     17  C   UNL     1      14.339   8.093  20.852  0.00  0.00    +0.049 C 
ATOM     18  C   UNL     1      11.378  10.896  22.573  0.00  0.00    +0.032 C 
ATOM     19  C   UNL     1      13.801  11.121  20.543  0.00  0.00    +0.012 C 
ATOM     20  C   UNL     1      16.215   9.502  21.870  0.00  0.00    +0.058 A 
ATOM     22  C   UNL     1      11.623   7.060  21.985  0.00  0.00    +0.016 C 
ATOM     23  C   UNL     1      15.765   8.424  21.134  0.00  0.00    +0.015 A 
ATOM     26  C   UNL     1      18.146   8.600  21.341  0.00  0.00    +0.165 A 
ATOM     28  C   UNL     1      20.561   9.058  21.758  0.00  0.00    +0.285 C 
ATOM     38  H   UNL     1      19.700   7.509  20.648  0.00  0.00    +0.157 HD
ENDROOT
BRANCH  28  30
ATOM      7  O   UNL     1      21.975   7.451  20.614  0.00  0.00    -0.458 OA
ATOM     30  C   UNL     1      21.899   8.551  21.408  0.00  0.00    +0.189 A 
ATOM     31  C   UNL     1      23.159   8.993  21.742  0.00  0.00    +0.054 A 
ATOM     33  C   UNL     1      24.066   8.107  21.113  0.00  0.00    +0.042 A 
ATOM     34  C   UNL     1      23.297   7.188  20.438  0.00  0.00    +0.196 A 
ENDBRANCH  28  30
BRANCH  16   2
ATOM      2  O   UNL     1       9.649   9.239  22.402  0.00  0.00    -0.391 OA
ATOM     35  H   UNL     1       9.548   8.701  21.598  0.00  0.00    +0.210 HD
ENDBRANCH  16   2
BRANCH  13  21
ATOM     21  C   UNL     1      11.358   8.737  20.193  0.00  0.00    +0.165 C 
BRANCH  21   3
ATOM      3  O   UNL     1      10.183   7.972  20.056  0.00  0.00    -0.394 OA
ATOM     36  H   UNL     1      10.339   7.324  19.348  0.00  0.00    +0.209 HD
ENDBRANCH  21   3
ENDBRANCH  13  21
BRANCH  14  24
ATOM     24  C   UNL     1      15.899  11.899  22.558  0.00  0.00    +0.106 C 
BRANCH  24  25
ATOM      4  O   UNL     1      16.958  13.301  24.222  0.00  0.00    -0.276 OA
ATOM      9  N   UNL     1      15.553  11.577  24.900  0.00  0.00    -0.313 N 
ATOM     25  C   UNL     1      16.213  12.359  23.963  0.00  0.00    +0.214 C 
ATOM     37  H   UNL     1      14.949  10.825  24.582  0.00  0.00    +0.149 HD
BRANCH   9  27
ATOM     27  C   UNL     1      15.670  11.786  26.325  0.00  0.00    +0.132 C 
BRANCH  27  29
ATOM     29  C   UNL     1      14.534  12.640  26.858  0.00  0.00    +0.178 C 
BRANCH  29   6
ATOM      6  O   UNL     1      13.322  12.265  26.219  0.00  0.00    -0.381 OA
ATOM     32  C   UNL     1      12.536  13.402  25.885  0.00  0.00    +0.194 C 
ENDBRANCH  29   6
ENDBRANCH  27  29
ENDBRANCH   9  27
ENDBRANCH  24  25
ENDBRANCH  14  24
TORSDOF 9
ENDMDL
MODEL 10
REMARK VINA RESULT:      -5.8     30.653     35.245
REMARK  Name = 11883078
REMARK  12 active torsions:
REMARK  status: ('A' for Active; 'I' for Inactive)
REMARK    1  A    between atoms: O_2  and  C_16
REMARK    2  A    between atoms: O_3  and  C_21
REMARK    3  A    between atoms: O_6  and  C_29
REMARK    4  A    between atoms: O_6  and  C_32
REMARK    5  A    between atoms: N_9  and  C_27
REMARK    6  A    between atoms: C_11  and  C_19
REMARK    7  A    between atoms: C_13  and  C_21
REMARK    8  A    between atoms: C_13  and  C_22
REMARK    9  A    between atoms: C_14  and  C_24
REMARK   10  A    between atoms: C_24  and  C_25
REMARK   11  A    between atoms: C_27  and  C_29
REMARK   12  A    between atoms: C_28  and  C_30
REMARK                            x       y       z     vdW  Elec       q    Type
REMARK                         _______ _______ _______ _____ _____    ______ ____
ROOT
ATOM      1  S   UNL     1      -7.809  -7.682   6.407  0.00  0.00    -0.057 S 
ATOM      5  O   UNL     1      -4.843 -11.200   6.842  0.00  0.00    -0.266 OA
ATOM      8  N   UNL     1      -6.893  -9.827   5.286  0.00  0.00    -0.229 NA
ATOM     10  N   UNL     1      -5.964  -9.239   7.431  0.00  0.00    -0.258 N 
ATOM     11  C   UNL     1      -9.565  -9.380   2.544  0.00  0.00    -0.019 C 
ATOM     12  C   UNL     1      -9.548  -7.793   2.676  0.00  0.00    +0.011 C 
ATOM     13  C   UNL     1     -10.602  -6.992   1.818  0.00  0.00    +0.021 C 
ATOM     14  C   UNL     1      -8.184  -9.937   3.123  0.00  0.00    +0.054 C 
ATOM     15  C   UNL     1      -9.661  -9.771   1.046  0.00  0.00    +0.010 C 
ATOM     16  C   UNL     1     -10.601  -7.539   0.362  0.00  0.00    +0.123 C 
ATOM     17  C   UNL     1      -9.485  -7.347   4.166  0.00  0.00    +0.049 C 
ATOM     18  C   UNL     1     -10.770  -9.053   0.290  0.00  0.00    +0.032 C 
ATOM     19  C   UNL     1     -10.744 -10.035   3.304  0.00  0.00    +0.012 C 
ATOM     20  C   UNL     1      -7.853  -9.296   4.445  0.00  0.00    +0.058 A 
ATOM     22  C   UNL     1     -10.173  -5.499   1.751  0.00  0.00    +0.016 C 
ATOM     23  C   UNL     1      -8.435  -8.125   4.886  0.00  0.00    +0.015 A 
ATOM     26  C   UNL     1      -6.791  -9.064   6.354  0.00  0.00    +0.165 A 
ATOM     28  C   UNL     1      -5.035 -10.282   7.636  0.00  0.00    +0.285 C 
ATOM     38  H   UNL     1      -6.049  -8.529   8.157  0.00  0.00    +0.157 HD
ENDROOT
BRANCH  28  30
ATOM      7  O   UNL     1      -4.185 -11.390   9.622  0.00  0.00    -0.458 OA
ATOM     30  C   UNL     1      -4.314 -10.233   8.921  0.00  0.00    +0.189 A 
ATOM     31  C   UNL     1      -3.712  -9.192   9.590  0.00  0.00    +0.054 A 
ATOM     33  C   UNL     1      -3.179  -9.746  10.778  0.00  0.00    +0.042 A 
ATOM     34  C   UNL     1      -3.492 -11.085  10.751  0.00  0.00    +0.196 A 
ENDBRANCH  28  30
BRANCH  16   2
ATOM      2  O   UNL     1     -11.633  -6.924  -0.408  0.00  0.00    -0.391 OA
ATOM     35  H   UNL     1     -11.516  -5.961  -0.340  0.00  0.00    +0.210 HD
ENDBRANCH  16   2
BRANCH  13  21
ATOM     21  C   UNL     1     -12.033  -6.986   2.402  0.00  0.00    +0.165 C 
BRANCH  21   3
ATOM      3  O   UNL     1     -12.585  -5.708   2.178  0.00  0.00    -0.394 OA
ATOM     36  H   UNL     1     -12.182  -5.357   1.365  0.00  0.00    +0.209 HD
ENDBRANCH  21   3
ENDBRANCH  13  21
BRANCH  14  24
ATOM     24  C   UNL     1      -8.097 -11.467   3.201  0.00  0.00    +0.106 C 
BRANCH  24  25
ATOM      4  O   UNL     1      -6.936 -12.142   1.189  0.00  0.00    -0.276 OA
ATOM      9  N   UNL     1      -5.871 -12.335   3.245  0.00  0.00    -0.313 N 
ATOM     25  C   UNL     1      -6.930 -12.009   2.410  0.00  0.00    +0.214 C 
ATOM     37  H   UNL     1      -5.962 -12.178   4.245  0.00  0.00    +0.149 HD
BRANCH   9  27
ATOM     27  C   UNL     1      -4.623 -12.880   2.763  0.00  0.00    +0.132 C 
BRANCH  27  29
ATOM     29  C   UNL     1      -3.441 -12.356   3.560  0.00  0.00    +0.178 C 
BRANCH  29   6
ATOM      6  O   UNL     1      -2.252 -12.512   2.797  0.00  0.00    -0.381 OA
ATOM     32  C   UNL     1      -2.382 -13.554   1.839  0.00  0.00    +0.194 C 
ENDBRANCH  29   6
ENDBRANCH  27  29
ENDBRANCH   9  27
ENDBRANCH  24  25
ENDBRANCH  14  24
TORSDOF 9
ENDMDL
