REMARK  Name = 11912177
REMARK  10 active torsions:
REMARK  status: ('A' for Active; 'I' for Inactive)
REMARK    1  A    between atoms: O_3  and  C_24
REMARK    2  A    between atoms: O_3  and  C_27
REMARK    3  A    between atoms: N_5  and  C_18
REMARK    4  A    between atoms: N_5  and  C_19
REMARK    5  A    between atoms: N_6  and  C_20
REMARK    6  A    between atoms: C_8  and  C_14
REMARK    7  A    between atoms: C_9  and  C_13
REMARK    8  A    between atoms: C_13  and  C_15
REMARK    9  A    between atoms: C_14  and  C_16
REMARK   10  A    between atoms: C_18  and  C_23
REMARK                            x       y       z     vdW  Elec       q    Type
REMARK                         _______ _______ _______ _____ _____    ______ ____
ROOT
ATOM      2  O   UNL     1       2.164  -1.254  -1.797  0.00  0.00    -0.252 OA
ATOM      4  N   UNL     1       0.583   0.415  -1.562  0.00  0.00    -0.285 N 
ATOM      6  N   UNL     1       2.835   0.811  -0.982  0.00  0.00    -0.269 N 
ATOM      8  C   UNL     1      -2.099   0.860  -0.569  0.00  0.00    +0.004 C 
ATOM      9  C   UNL     1      -0.922   1.774  -0.136  0.00  0.00    +0.010 C 
ATOM     10  C   UNL     1      -1.611  -0.537  -0.995  0.00  0.00    +0.023 C 
ATOM     11  C   UNL     1       0.153   1.783  -1.235  0.00  0.00    +0.113 C 
ATOM     12  C   UNL     1      -0.498  -0.449  -2.038  0.00  0.00    +0.109 C 
ATOM     17  C   UNL     1       1.897  -0.093  -1.478  0.00  0.00    +0.306 C 
ATOM     28  H   UNL     1       2.683   1.801  -1.139  0.00  0.00    +0.156 HD
ENDROOT
BRANCH   6  20
ATOM     20  C   UNL     1       4.009   0.515  -0.246  0.00  0.00    +0.038 A 
ATOM     21  C   UNL     1       4.329  -0.809   0.054  0.00  0.00    +0.069 A 
ATOM     22  C   UNL     1       4.846   1.548   0.178  0.00  0.00    +0.023 A 
ATOM     24  C   UNL     1       5.485  -1.101   0.778  0.00  0.00    +0.122 A 
ATOM     25  C   UNL     1       6.002   1.257   0.902  0.00  0.00    +0.005 A 
ATOM     26  C   UNL     1       6.321  -0.068   1.202  0.00  0.00    +0.046 A 
BRANCH  24   3
ATOM      3  O   UNL     1       5.798  -2.393   1.070  0.00  0.00    -0.495 OA
ATOM     27  C   UNL     1       4.899  -3.399   0.606  0.00  0.00    +0.277 C 
ENDBRANCH  24   3
ENDBRANCH   6  20
BRANCH   9  13
ATOM     13  C   UNL     1      -0.304   1.399   1.216  0.00  0.00    +0.002 C 
ATOM     15  C   UNL     1       0.771   2.387   1.618  0.00  0.00    +0.004 C 
ENDBRANCH   9  13
BRANCH   8  14
ATOM     14  C   UNL     1      -3.194   0.748   0.491  0.00  0.00    +0.100 C 
BRANCH  14  16
ATOM      1  O   UNL     1      -4.653   0.145  -1.312  0.00  0.00    -0.276 OA
ATOM      5  N   UNL     1      -5.589   0.216   0.809  0.00  0.00    -0.291 N 
ATOM     16  C   UNL     1      -4.533   0.344  -0.100  0.00  0.00    +0.216 C 
ATOM     19  C   UNL     1      -5.423   0.456   2.237  0.00  0.00    +0.133 C 
BRANCH   5  18
ATOM     18  C   UNL     1      -6.937  -0.167   0.396  0.00  0.00    +0.226 C 
BRANCH  18  23
ATOM      7  N   UNL     1      -7.232  -2.772   0.460  0.00  0.00    -0.195 NA
ATOM     23  C   UNL     1      -7.099  -1.619   0.432  0.00  0.00    +0.082 C 
ENDBRANCH  18  23
ENDBRANCH   5  18
ENDBRANCH  14  16
ENDBRANCH   8  14
TORSDOF 7
