REMARK  Name = 40778178
REMARK  10 active torsions:
REMARK  status: ('A' for Active; 'I' for Inactive)
REMARK    1  A    between atoms: O_3  and  C_12
REMARK    2  A    between atoms: O_4  and  C_13
REMARK    3  A    between atoms: O_7  and  C_34
REMARK    4  A    between atoms: O_7  and  C_35
REMARK    5  A    between atoms: N_9  and  C_22
REMARK    6  A    between atoms: N_10  and  C_16
REMARK    7  A    between atoms: C_11  and  C_15
REMARK    8  A    between atoms: C_14  and  C_16
REMARK    9  A    between atoms: C_15  and  C_17
REMARK   10  A    between atoms: C_23  and  C_26
REMARK                            x       y       z     vdW  Elec       q    Type
REMARK                         _______ _______ _______ _____ _____    ______ ____
ROOT
ATOM      2  O   UNL     1      -4.186   0.822   0.866  0.00  0.00    -0.366 OA
ATOM     11  C   UNL     1      -3.838   1.822  -0.119  0.00  0.00    +0.159 C 
ATOM     12  C   UNL     1      -4.811   1.639  -1.279  0.00  0.00    +0.175 C 
ATOM     13  C   UNL     1      -5.135   0.163  -1.190  0.00  0.00    +0.176 C 
ATOM     14  C   UNL     1      -5.192  -0.046   0.314  0.00  0.00    +0.167 C 
ENDROOT
BRANCH  12   3
ATOM      3  O   UNL     1      -5.974   2.419  -1.007  0.00  0.00    -0.387 OA
ATOM     36  H   UNL     1      -5.714   3.355  -1.051  0.00  0.00    +0.210 HD
ENDBRANCH  12   3
BRANCH  13   4
ATOM      4  O   UNL     1      -6.350  -0.182  -1.819  0.00  0.00    -0.387 OA
ATOM     37  H   UNL     1      -6.286   0.094  -2.749  0.00  0.00    +0.210 HD
ENDBRANCH  13   4
BRANCH  11  15
ATOM     15  C   UNL     1      -2.386   1.595  -0.518  0.00  0.00    +0.130 C 
BRANCH  15  17
ATOM      5  O   UNL     1      -1.948   2.690   1.543  0.00  0.00    -0.276 OA
ATOM      8  N   UNL     1      -0.101   1.968   0.333  0.00  0.00    -0.298 N 
ATOM      9  N   UNL     1       2.743   1.482   0.086  0.00  0.00    -0.327 N 
ATOM     17  C   UNL     1      -1.468   2.135   0.551  0.00  0.00    +0.218 C 
ATOM     18  C   UNL     1       0.468   1.309  -0.846  0.00  0.00    +0.126 C 
ATOM     19  C   UNL     1       0.852   2.458   1.326  0.00  0.00    +0.126 C 
ATOM     20  C   UNL     1       1.920   1.710  -1.105  0.00  0.00    +0.124 C 
ATOM     21  C   UNL     1       2.101   1.582   1.400  0.00  0.00    +0.124 C 
BRANCH   9  22
ATOM      1  F   UNL     1       8.144   0.417  -0.340  0.00  0.00    -0.205 F 
ATOM     22  C   UNL     1       4.105   1.213  -0.021  0.00  0.00    +0.030 A 
ATOM     24  C   UNL     1       4.837   1.738  -1.086  0.00  0.00    +0.026 A 
ATOM     25  C   UNL     1       4.737   0.419   0.936  0.00  0.00    +0.026 A 
ATOM     27  C   UNL     1       6.202   1.469  -1.194  0.00  0.00    +0.040 A 
ATOM     28  C   UNL     1       6.101   0.150   0.828  0.00  0.00    +0.040 A 
ATOM     29  C   UNL     1       6.834   0.675  -0.236  0.00  0.00    +0.124 A 
ENDBRANCH   9  22
ENDBRANCH  15  17
ENDBRANCH  11  15
BRANCH  14  16
ATOM     16  C   UNL     1      -4.915  -1.479   0.734  0.00  0.00    +0.138 C 
BRANCH  16  10
ATOM      6  O   UNL     1      -2.466  -1.231   2.211  0.00  0.00    -0.270 OA
ATOM     10  N   UNL     1      -3.614  -1.901   0.309  0.00  0.00    -0.309 N 
ATOM     23  C   UNL     1      -2.475  -1.741   1.094  0.00  0.00    +0.244 C 
ATOM     38  H   UNL     1      -3.557  -2.381  -0.583  0.00  0.00    +0.149 HD
BRANCH  23  26
ATOM     26  C   UNL     1      -1.196  -2.208   0.499  0.00  0.00    +0.037 A 
ATOM     30  C   UNL     1      -0.151  -2.618   1.327  0.00  0.00    +0.016 A 
ATOM     31  C   UNL     1      -1.039  -2.235  -0.887  0.00  0.00    +0.016 A 
ATOM     32  C   UNL     1       1.050  -3.056   0.769  0.00  0.00    +0.046 A 
ATOM     33  C   UNL     1       0.162  -2.672  -1.445  0.00  0.00    +0.046 A 
ATOM     34  C   UNL     1       1.207  -3.083  -0.617  0.00  0.00    +0.120 A 
BRANCH  34   7
ATOM      7  O   UNL     1       2.378  -3.510  -1.162  0.00  0.00    -0.495 OA
ATOM     35  C   UNL     1       3.405  -3.915  -0.257  0.00  0.00    +0.277 C 
ENDBRANCH  34   7
ENDBRANCH  23  26
ENDBRANCH  16  10
ENDBRANCH  14  16
TORSDOF 9
