MODEL 1
REMARK VINA RESULT:      -7.5      0.000      0.000
REMARK  Name = 11883361
REMARK  6 active torsions:
REMARK  status: ('A' for Active; 'I' for Inactive)
REMARK    1  A    between atoms: S_1  and  N_8
REMARK    2  A    between atoms: S_1  and  C_23
REMARK    3  A    between atoms: O_4  and  C_13
REMARK    4  A    between atoms: O_4  and  C_22
REMARK    5  A    between atoms: N_8  and  C_12
REMARK    6  A    between atoms: N_9  and  C_16
REMARK                            x       y       z     vdW  Elec       q    Type
REMARK                         _______ _______ _______ _____ _____    ______ ____
ROOT
ATOM      2  O   UNL     1      -5.857 -10.283  17.361  0.00  0.00    -0.369 OA
ATOM      3  O   UNL     1      -4.116 -11.970  19.254  0.00  0.00    -0.368 OA
ATOM     10  C   UNL     1      -4.589 -12.212  17.912  0.00  0.00    +0.171 C 
ATOM     11  C   UNL     1      -5.988 -11.635  17.829  0.00  0.00    +0.191 C 
ATOM     12  C   UNL     1      -3.796 -11.385  16.931  0.00  0.00    +0.133 C 
ATOM     13  C   UNL     1      -6.451 -11.687  19.265  0.00  0.00    +0.235 C 
ATOM     14  C   UNL     1      -4.492 -10.039  16.983  0.00  0.00    +0.183 C 
ATOM     15  C   UNL     1      -5.177 -11.383  20.021  0.00  0.00    +0.207 C 
ENDROOT
BRANCH  12   8
ATOM      8  N   UNL     1      -3.916 -11.960  15.570  0.00  0.00    -0.182 NA
ATOM     33  H   UNL     1      -4.780 -12.466  15.340  0.00  0.00    +0.148 HD
BRANCH   8   1
ATOM      1  S   UNL     1      -2.534 -12.126  14.598  0.00  0.00    +0.059 S 
ATOM      5  O   UNL     1      -2.404 -13.507  14.175  0.00  0.00    -0.153 OA
ATOM      6  O   UNL     1      -1.425 -11.453  15.246  0.00  0.00    -0.153 OA
BRANCH   1  23
ATOM     23  C   UNL     1      -2.966 -11.161  13.181  0.00  0.00    +0.106 A 
ATOM     24  C   UNL     1      -4.271 -10.723  13.033  0.00  0.00    +0.037 A 
ATOM     25  C   UNL     1      -1.992 -10.864  12.247  0.00  0.00    +0.029 A 
ATOM     26  C   UNL     1      -4.630  -9.956  11.913  0.00  0.00    -0.016 A 
ATOM     27  C   UNL     1      -2.332 -10.103  11.128  0.00  0.00    +0.010 A 
ATOM     28  C   UNL     1      -3.646  -9.642  10.945  0.00  0.00    -0.018 A 
ATOM     29  C   UNL     1      -5.943  -9.495  11.731  0.00  0.00    +0.008 A 
ATOM     30  C   UNL     1      -4.005  -8.875   9.825  0.00  0.00    +0.008 A 
ATOM     31  C   UNL     1      -6.283  -8.735  10.612  0.00  0.00    +0.001 A 
ATOM     32  C   UNL     1      -5.315  -8.425   9.660  0.00  0.00    +0.001 A 
ENDBRANCH   1  23
ENDBRANCH   8   1
ENDBRANCH  12   8
BRANCH  13   4
ATOM      4  O   UNL     1      -7.476 -10.765  19.561  0.00  0.00    -0.442 OA
BRANCH   4  22
ATOM      7  O   UNL     1      -9.370 -12.025  19.243  0.00  0.00    -0.226 OA
ATOM      9  N   UNL     1      -9.086  -9.986  18.173  0.00  0.00    -0.278 N 
ATOM     22  C   UNL     1      -8.711 -11.017  19.009  0.00  0.00    +0.401 C 
ATOM     34  H   UNL     1      -8.421  -9.232  18.035  0.00  0.00    +0.152 HD
BRANCH   9  16
ATOM     16  C   UNL     1     -10.335  -9.957  17.443  0.00  0.00    +0.076 C 
ATOM     17  C   UNL     1     -11.086  -8.645  17.689  0.00  0.00    +0.022 C 
ATOM     18  C   UNL     1     -10.105 -10.195  15.947  0.00  0.00    +0.022 C 
ATOM     19  C   UNL     1     -10.421  -7.453  17.000  0.00  0.00    +0.002 C 
ATOM     20  C   UNL     1      -9.442  -9.000  15.261  0.00  0.00    +0.002 C 
ATOM     21  C   UNL     1     -10.213  -7.708  15.511  0.00  0.00    +0.000 C 
ENDBRANCH   9  16
ENDBRANCH   4  22
ENDBRANCH  13   4
TORSDOF 6
ENDMDL
MODEL 2
REMARK VINA RESULT:      -7.4     27.709     30.260
REMARK  Name = 11883361
REMARK  6 active torsions:
REMARK  status: ('A' for Active; 'I' for Inactive)
REMARK    1  A    between atoms: S_1  and  N_8
REMARK    2  A    between atoms: S_1  and  C_23
REMARK    3  A    between atoms: O_4  and  C_13
REMARK    4  A    between atoms: O_4  and  C_22
REMARK    5  A    between atoms: N_8  and  C_12
REMARK    6  A    between atoms: N_9  and  C_16
REMARK                            x       y       z     vdW  Elec       q    Type
REMARK                         _______ _______ _______ _____ _____    ______ ____
ROOT
ATOM      2  O   UNL     1      16.547   8.032  21.076  0.00  0.00    -0.369 OA
ATOM      3  O   UNL     1      16.787   5.674  19.116  0.00  0.00    -0.368 OA
ATOM     10  C   UNL     1      15.956   5.877  20.278  0.00  0.00    +0.171 C 
ATOM     11  C   UNL     1      16.793   6.633  21.291  0.00  0.00    +0.191 C 
ATOM     12  C   UNL     1      14.836   6.831  19.947  0.00  0.00    +0.133 C 
ATOM     13  C   UNL     1      18.201   6.247  20.907  0.00  0.00    +0.235 C 
ATOM     14  C   UNL     1      15.486   8.189  20.120  0.00  0.00    +0.183 C 
ATOM     15  C   UNL     1      18.107   6.160  19.400  0.00  0.00    +0.207 C 
ENDROOT
BRANCH  12   8
ATOM      8  N   UNL     1      13.732   6.676  20.925  0.00  0.00    -0.182 NA
ATOM     33  H   UNL     1      13.939   6.188  21.805  0.00  0.00    +0.148 HD
BRANCH   8   1
ATOM      1  S   UNL     1      12.126   6.924  20.434  0.00  0.00    +0.059 S 
ATOM      5  O   UNL     1      11.262   5.976  21.111  0.00  0.00    -0.153 OA
ATOM      6  O   UNL     1      12.093   7.039  18.988  0.00  0.00    -0.153 OA
BRANCH   1  23
ATOM     23  C   UNL     1      11.789   8.532  21.086  0.00  0.00    +0.106 A 
ATOM     24  C   UNL     1      12.309   9.644  20.447  0.00  0.00    +0.037 A 
ATOM     25  C   UNL     1      11.012   8.648  22.223  0.00  0.00    +0.029 A 
ATOM     26  C   UNL     1      12.051  10.928  20.952  0.00  0.00    -0.016 A 
ATOM     27  C   UNL     1      10.746   9.916  22.739  0.00  0.00    +0.010 A 
ATOM     28  C   UNL     1      11.257  11.066  22.117  0.00  0.00    -0.018 A 
ATOM     29  C   UNL     1      12.562  12.078  20.330  0.00  0.00    +0.008 A 
ATOM     30  C   UNL     1      10.999  12.351  22.622  0.00  0.00    +0.008 A 
ATOM     31  C   UNL     1      12.296  13.346  20.846  0.00  0.00    +0.001 A 
ATOM     32  C   UNL     1      11.515  13.482  21.991  0.00  0.00    +0.001 A 
ENDBRANCH   1  23
ENDBRANCH   8   1
ENDBRANCH  12   8
BRANCH  13   4
ATOM      4  O   UNL     1      19.174   7.179  21.324  0.00  0.00    -0.442 OA
BRANCH   4  22
ATOM      7  O   UNL     1      21.119   7.728  20.232  0.00  0.00    -0.226 OA
ATOM      9  N   UNL     1      20.909   5.725  21.384  0.00  0.00    -0.278 N 
ATOM     22  C   UNL     1      20.467   6.945  20.916  0.00  0.00    +0.401 C 
ATOM     34  H   UNL     1      20.247   5.157  21.903  0.00  0.00    +0.152 HD
BRANCH   9  16
ATOM     16  C   UNL     1      22.228   5.194  21.123  0.00  0.00    +0.076 C 
ATOM     17  C   UNL     1      23.266   5.808  22.068  0.00  0.00    +0.022 C 
ATOM     18  C   UNL     1      22.234   3.665  21.209  0.00  0.00    +0.022 C 
ATOM     19  C   UNL     1      23.124   5.299  23.503  0.00  0.00    +0.002 C 
ATOM     20  C   UNL     1      22.094   3.160  22.645  0.00  0.00    +0.002 C 
ATOM     21  C   UNL     1      23.144   3.776  23.564  0.00  0.00    +0.000 C 
ENDBRANCH   9  16
ENDBRANCH   4  22
ENDBRANCH  13   4
TORSDOF 6
ENDMDL
MODEL 3
REMARK VINA RESULT:      -7.3      2.310      7.992
REMARK  Name = 11883361
REMARK  6 active torsions:
REMARK  status: ('A' for Active; 'I' for Inactive)
REMARK    1  A    between atoms: S_1  and  N_8
REMARK    2  A    between atoms: S_1  and  C_23
REMARK    3  A    between atoms: O_4  and  C_13
REMARK    4  A    between atoms: O_4  and  C_22
REMARK    5  A    between atoms: N_8  and  C_12
REMARK    6  A    between atoms: N_9  and  C_16
REMARK                            x       y       z     vdW  Elec       q    Type
REMARK                         _______ _______ _______ _____ _____    ______ ____
ROOT
ATOM      2  O   UNL     1      -5.628  -9.526  16.276  0.00  0.00    -0.369 OA
ATOM      3  O   UNL     1      -5.504 -12.574  16.670  0.00  0.00    -0.368 OA
ATOM     10  C   UNL     1      -5.910 -11.506  17.552  0.00  0.00    +0.171 C 
ATOM     11  C   UNL     1      -4.989 -10.334  17.277  0.00  0.00    +0.191 C 
ATOM     12  C   UNL     1      -7.273 -11.000  17.152  0.00  0.00    +0.133 C 
ATOM     13  C   UNL     1      -3.749 -11.009  16.743  0.00  0.00    +0.235 C 
ATOM     14  C   UNL     1      -6.957 -10.020  16.039  0.00  0.00    +0.183 C 
ATOM     15  C   UNL     1      -4.329 -12.164  15.957  0.00  0.00    +0.207 C 
ENDROOT
BRANCH  12   8
ATOM      8  N   UNL     1      -7.901 -10.282  18.288  0.00  0.00    -0.182 NA
ATOM     33  H   UNL     1      -7.318  -9.622  18.816  0.00  0.00    +0.148 HD
BRANCH   8   1
ATOM      1  S   UNL     1      -9.373 -10.836  18.926  0.00  0.00    +0.059 S 
ATOM      5  O   UNL     1      -9.436 -10.519  20.341  0.00  0.00    -0.153 OA
ATOM      6  O   UNL     1      -9.597 -12.195  18.472  0.00  0.00    -0.153 OA
BRANCH   1  23
ATOM     23  C   UNL     1     -10.544  -9.812  18.087  0.00  0.00    +0.106 A 
ATOM     24  C   UNL     1     -10.101  -8.676  17.432  0.00  0.00    +0.037 A 
ATOM     25  C   UNL     1     -11.880 -10.164  18.103  0.00  0.00    +0.029 A 
ATOM     26  C   UNL     1     -11.019  -7.852  16.760  0.00  0.00    -0.016 A 
ATOM     27  C   UNL     1     -12.805  -9.356  17.441  0.00  0.00    +0.010 A 
ATOM     28  C   UNL     1     -12.392  -8.197  16.765  0.00  0.00    -0.018 A 
ATOM     29  C   UNL     1     -10.605  -6.693  16.085  0.00  0.00    +0.008 A 
ATOM     30  C   UNL     1     -13.310  -7.372  16.094  0.00  0.00    +0.008 A 
ATOM     31  C   UNL     1     -11.530  -5.885  15.423  0.00  0.00    +0.001 A 
ATOM     32  C   UNL     1     -12.881  -6.224  15.428  0.00  0.00    +0.001 A 
ENDBRANCH   1  23
ENDBRANCH   8   1
ENDBRANCH  12   8
BRANCH  13   4
ATOM      4  O   UNL     1      -2.952 -10.168  15.940  0.00  0.00    -0.442 OA
BRANCH   4  22
ATOM      7  O   UNL     1      -1.148 -11.458  15.339  0.00  0.00    -0.226 OA
ATOM      9  N   UNL     1      -2.559 -10.542  13.741  0.00  0.00    -0.278 N 
ATOM     22  C   UNL     1      -2.126 -10.786  15.028  0.00  0.00    +0.401 C 
ATOM     34  H   UNL     1      -3.361  -9.929  13.627  0.00  0.00    +0.152 HD
BRANCH   9  16
ATOM     16  C   UNL     1      -1.900 -11.055  12.561  0.00  0.00    +0.076 C 
ATOM     17  C   UNL     1      -2.636 -12.279  12.008  0.00  0.00    +0.022 C 
ATOM     18  C   UNL     1      -1.753  -9.965  11.494  0.00  0.00    +0.022 C 
ATOM     19  C   UNL     1      -3.969 -11.914  11.352  0.00  0.00    +0.002 C 
ATOM     20  C   UNL     1      -3.086  -9.604  10.840  0.00  0.00    +0.002 C 
ATOM     21  C   UNL     1      -3.795 -10.836  10.287  0.00  0.00    +0.000 C 
ENDBRANCH   9  16
ENDBRANCH   4  22
ENDBRANCH  13   4
TORSDOF 6
ENDMDL
MODEL 4
REMARK VINA RESULT:      -7.2      2.147      7.668
REMARK  Name = 11883361
REMARK  6 active torsions:
REMARK  status: ('A' for Active; 'I' for Inactive)
REMARK    1  A    between atoms: S_1  and  N_8
REMARK    2  A    between atoms: S_1  and  C_23
REMARK    3  A    between atoms: O_4  and  C_13
REMARK    4  A    between atoms: O_4  and  C_22
REMARK    5  A    between atoms: N_8  and  C_12
REMARK    6  A    between atoms: N_9  and  C_16
REMARK                            x       y       z     vdW  Elec       q    Type
REMARK                         _______ _______ _______ _____ _____    ______ ____
ROOT
ATOM      2  O   UNL     1      -4.209 -12.069  14.641  0.00  0.00    -0.369 OA
ATOM      3  O   UNL     1      -2.079 -10.875  16.510  0.00  0.00    -0.368 OA
ATOM     10  C   UNL     1      -3.460 -10.527  16.281  0.00  0.00    +0.171 C 
ATOM     11  C   UNL     1      -3.725 -10.727  14.802  0.00  0.00    +0.191 C 
ATOM     12  C   UNL     1      -4.361 -11.534  16.951  0.00  0.00    +0.133 C 
ATOM     13  C   UNL     1      -2.353 -10.550  14.197  0.00  0.00    +0.235 C 
ATOM     14  C   UNL     1      -4.429 -12.657  15.934  0.00  0.00    +0.183 C 
ATOM     15  C   UNL     1      -1.459 -11.166  15.249  0.00  0.00    +0.207 C 
ENDROOT
BRANCH  12   8
ATOM      8  N   UNL     1      -5.712 -10.955  17.148  0.00  0.00    -0.182 NA
ATOM     33  H   UNL     1      -6.034 -10.253  16.470  0.00  0.00    +0.148 HD
BRANCH   8   1
ATOM      1  S   UNL     1      -6.501 -11.140  18.639  0.00  0.00    +0.059 S 
ATOM      5  O   UNL     1      -5.865 -10.292  19.630  0.00  0.00    -0.153 OA
ATOM      6  O   UNL     1      -6.684 -12.555  18.898  0.00  0.00    -0.153 OA
BRANCH   1  23
ATOM     23  C   UNL     1      -8.099 -10.468  18.293  0.00  0.00    +0.106 A 
ATOM     24  C   UNL     1      -8.206  -9.381  17.443  0.00  0.00    +0.037 A 
ATOM     25  C   UNL     1      -9.211 -11.041  18.880  0.00  0.00    +0.029 A 
ATOM     26  C   UNL     1      -9.468  -8.836  17.158  0.00  0.00    -0.016 A 
ATOM     27  C   UNL     1     -10.473 -10.511  18.607  0.00  0.00    +0.010 A 
ATOM     28  C   UNL     1     -10.619  -9.409  17.749  0.00  0.00    -0.018 A 
ATOM     29  C   UNL     1      -9.614  -7.734  16.300  0.00  0.00    +0.008 A 
ATOM     30  C   UNL     1     -11.882  -8.864  17.464  0.00  0.00    +0.008 A 
ATOM     31  C   UNL     1     -10.876  -7.205  16.028  0.00  0.00    +0.001 A 
ATOM     32  C   UNL     1     -12.008  -7.769  16.610  0.00  0.00    +0.001 A 
ENDBRANCH   1  23
ENDBRANCH   8   1
ENDBRANCH  12   8
BRANCH  13   4
ATOM      4  O   UNL     1      -2.206 -11.178  12.943  0.00  0.00    -0.442 OA
BRANCH   4  22
ATOM      7  O   UNL     1      -1.265  -9.625  11.536  0.00  0.00    -0.226 OA
ATOM      9  N   UNL     1      -3.384 -10.483  11.138  0.00  0.00    -0.278 N 
ATOM     22  C   UNL     1      -2.202 -10.357  11.838  0.00  0.00    +0.401 C 
ATOM     34  H   UNL     1      -4.094 -11.095  11.528  0.00  0.00    +0.152 HD
BRANCH   9  16
ATOM     16  C   UNL     1      -3.683  -9.749   9.929  0.00  0.00    +0.076 C 
ATOM     17  C   UNL     1      -4.387 -10.643   8.903  0.00  0.00    +0.022 C 
ATOM     18  C   UNL     1      -4.510  -8.496  10.235  0.00  0.00    +0.022 C 
ATOM     19  C   UNL     1      -5.827 -10.970   9.302  0.00  0.00    +0.002 C 
ATOM     20  C   UNL     1      -5.949  -8.827  10.631  0.00  0.00    +0.002 C 
ATOM     21  C   UNL     1      -6.632  -9.707   9.590  0.00  0.00    +0.000 C 
ENDBRANCH   9  16
ENDBRANCH   4  22
ENDBRANCH  13   4
TORSDOF 6
ENDMDL
MODEL 5
REMARK VINA RESULT:      -7.2     27.729     29.554
REMARK  Name = 11883361
REMARK  6 active torsions:
REMARK  status: ('A' for Active; 'I' for Inactive)
REMARK    1  A    between atoms: S_1  and  N_8
REMARK    2  A    between atoms: S_1  and  C_23
REMARK    3  A    between atoms: O_4  and  C_13
REMARK    4  A    between atoms: O_4  and  C_22
REMARK    5  A    between atoms: N_8  and  C_12
REMARK    6  A    between atoms: N_9  and  C_16
REMARK                            x       y       z     vdW  Elec       q    Type
REMARK                         _______ _______ _______ _____ _____    ______ ____
ROOT
ATOM      2  O   UNL     1      12.496  11.075  20.584  0.00  0.00    -0.369 OA
ATOM      3  O   UNL     1      12.524  11.262  23.654  0.00  0.00    -0.368 OA
ATOM     10  C   UNL     1      13.568  10.982  22.699  0.00  0.00    +0.171 C 
ATOM     11  C   UNL     1      12.943  10.155  21.593  0.00  0.00    +0.191 C 
ATOM     12  C   UNL     1      13.987  12.255  22.008  0.00  0.00    +0.133 C 
ATOM     13  C   UNL     1      11.784   9.489  22.296  0.00  0.00    +0.235 C 
ATOM     14  C   UNL     1      12.956  12.397  20.906  0.00  0.00    +0.183 C 
ATOM     15  C   UNL     1      11.333  10.567  23.256  0.00  0.00    +0.207 C 
ENDROOT
BRANCH  12   8
ATOM      8  N   UNL     1      15.336  12.090  21.414  0.00  0.00    -0.182 NA
ATOM     33  H   UNL     1      15.393  11.747  20.447  0.00  0.00    +0.148 HD
BRANCH   8   1
ATOM      1  S   UNL     1      16.705  12.073  22.417  0.00  0.00    +0.059 S 
ATOM      5  O   UNL     1      16.286  11.974  23.803  0.00  0.00    -0.153 OA
ATOM      6  O   UNL     1      17.602  13.133  21.999  0.00  0.00    -0.153 OA
BRANCH   1  23
ATOM     23  C   UNL     1      17.468  10.544  21.969  0.00  0.00    +0.106 A 
ATOM     24  C   UNL     1      16.741   9.610  21.251  0.00  0.00    +0.037 A 
ATOM     25  C   UNL     1      18.777  10.309  22.344  0.00  0.00    +0.029 A 
ATOM     26  C   UNL     1      17.333   8.390  20.887  0.00  0.00    -0.016 A 
ATOM     27  C   UNL     1      19.381   9.102  21.991  0.00  0.00    +0.010 A 
ATOM     28  C   UNL     1      18.673   8.131  21.263  0.00  0.00    -0.018 A 
ATOM     29  C   UNL     1      16.625   7.420  20.159  0.00  0.00    +0.008 A 
ATOM     30  C   UNL     1      19.265   6.911  20.899  0.00  0.00    +0.008 A 
ATOM     31  C   UNL     1      17.229   6.213  19.806  0.00  0.00    +0.001 A 
ATOM     32  C   UNL     1      18.547   5.959  20.176  0.00  0.00    +0.001 A 
ENDBRANCH   1  23
ENDBRANCH   8   1
ENDBRANCH  12   8
BRANCH  13   4
ATOM      4  O   UNL     1      10.751   9.089  21.424  0.00  0.00    -0.442 OA
BRANCH   4  22
ATOM      7  O   UNL     1      11.012   6.878  20.857  0.00  0.00    -0.226 OA
ATOM      9  N   UNL     1      11.362   8.568  19.306  0.00  0.00    -0.278 N 
ATOM     22  C   UNL     1      11.042   8.066  20.551  0.00  0.00    +0.401 C 
ATOM     34  H   UNL     1      11.391   9.578  19.204  0.00  0.00    +0.152 HD
BRANCH   9  16
ATOM     16  C   UNL     1      11.716   7.742  18.173  0.00  0.00    +0.076 C 
ATOM     17  C   UNL     1      11.348   8.430  16.855  0.00  0.00    +0.022 C 
ATOM     18  C   UNL     1      13.200   7.365  18.208  0.00  0.00    +0.022 C 
ATOM     19  C   UNL     1      12.264   9.613  16.537  0.00  0.00    +0.002 C 
ATOM     20  C   UNL     1      14.112   8.549  17.888  0.00  0.00    +0.002 C 
ATOM     21  C   UNL     1      13.734   9.210  16.566  0.00  0.00    +0.000 C 
ENDBRANCH   9  16
ENDBRANCH   4  22
ENDBRANCH  13   4
TORSDOF 6
ENDMDL
MODEL 6
REMARK VINA RESULT:      -7.0      1.596      2.233
REMARK  Name = 11883361
REMARK  6 active torsions:
REMARK  status: ('A' for Active; 'I' for Inactive)
REMARK    1  A    between atoms: S_1  and  N_8
REMARK    2  A    between atoms: S_1  and  C_23
REMARK    3  A    between atoms: O_4  and  C_13
REMARK    4  A    between atoms: O_4  and  C_22
REMARK    5  A    between atoms: N_8  and  C_12
REMARK    6  A    between atoms: N_9  and  C_16
REMARK                            x       y       z     vdW  Elec       q    Type
REMARK                         _______ _______ _______ _____ _____    ______ ____
ROOT
ATOM      2  O   UNL     1      -3.931 -10.252  16.932  0.00  0.00    -0.369 OA
ATOM      3  O   UNL     1      -4.916 -12.868  15.650  0.00  0.00    -0.368 OA
ATOM     10  C   UNL     1      -4.660 -11.562  15.093  0.00  0.00    +0.171 C 
ATOM     11  C   UNL     1      -5.089 -10.548  16.136  0.00  0.00    +0.191 C 
ATOM     12  C   UNL     1      -3.174 -11.341  14.962  0.00  0.00    +0.133 C 
ATOM     13  C   UNL     1      -6.131 -11.306  16.922  0.00  0.00    +0.235 C 
ATOM     14  C   UNL     1      -2.777 -10.877  16.349  0.00  0.00    +0.183 C 
ATOM     15  C   UNL     1      -5.573 -12.712  16.916  0.00  0.00    +0.207 C 
ENDROOT
BRANCH  12   8
ATOM      8  N   UNL     1      -2.906 -10.265  13.977  0.00  0.00    -0.182 NA
ATOM     33  H   UNL     1      -3.281  -9.330  14.178  0.00  0.00    +0.148 HD
BRANCH   8   1
ATOM      1  S   UNL     1      -2.370 -10.662  12.416  0.00  0.00    +0.059 S 
ATOM      5  O   UNL     1      -2.399 -12.103  12.247  0.00  0.00    -0.153 OA
ATOM      6  O   UNL     1      -1.156  -9.919  12.137  0.00  0.00    -0.153 OA
BRANCH   1  23
ATOM     23  C   UNL     1      -3.642  -9.969  11.405  0.00  0.00    +0.106 A 
ATOM     24  C   UNL     1      -4.964 -10.100  11.796  0.00  0.00    +0.037 A 
ATOM     25  C   UNL     1      -3.294  -9.311  10.241  0.00  0.00    +0.029 A 
ATOM     26  C   UNL     1      -5.986  -9.555  11.004  0.00  0.00    -0.016 A 
ATOM     27  C   UNL     1      -4.298  -8.763   9.442  0.00  0.00    +0.010 A 
ATOM     28  C   UNL     1      -5.648  -8.877   9.808  0.00  0.00    -0.018 A 
ATOM     29  C   UNL     1      -7.337  -9.668  11.370  0.00  0.00    +0.008 A 
ATOM     30  C   UNL     1      -6.672  -8.332   9.015  0.00  0.00    +0.008 A 
ATOM     31  C   UNL     1      -8.341  -9.121  10.570  0.00  0.00    +0.001 A 
ATOM     32  C   UNL     1      -8.008  -8.454   9.394  0.00  0.00    +0.001 A 
ENDBRANCH   1  23
ENDBRANCH   8   1
ENDBRANCH  12   8
BRANCH  13   4
ATOM      4  O   UNL     1      -6.316 -10.815  18.231  0.00  0.00    -0.442 OA
BRANCH   4  22
ATOM      7  O   UNL     1      -8.041 -10.903  19.745  0.00  0.00    -0.226 OA
ATOM      9  N   UNL     1      -8.347 -10.023  17.620  0.00  0.00    -0.278 N 
ATOM     22  C   UNL     1      -7.615 -10.606  18.634  0.00  0.00    +0.401 C 
ATOM     34  H   UNL     1      -7.877  -9.872  16.733  0.00  0.00    +0.152 HD
BRANCH   9  16
ATOM     16  C   UNL     1      -9.747  -9.679  17.736  0.00  0.00    +0.076 C 
ATOM     17  C   UNL     1      -9.966  -8.180  17.506  0.00  0.00    +0.022 C 
ATOM     18  C   UNL     1     -10.602 -10.519  16.782  0.00  0.00    +0.022 C 
ATOM     19  C   UNL     1      -9.780  -7.780  16.041  0.00  0.00    +0.002 C 
ATOM     20  C   UNL     1     -10.414 -10.114  15.319  0.00  0.00    +0.002 C 
ATOM     21  C   UNL     1     -10.648  -8.622  15.113  0.00  0.00    +0.000 C 
ENDBRANCH   9  16
ENDBRANCH   4  22
ENDBRANCH  13   4
TORSDOF 6
ENDMDL
MODEL 7
REMARK VINA RESULT:      -6.8      2.687      6.122
REMARK  Name = 11883361
REMARK  6 active torsions:
REMARK  status: ('A' for Active; 'I' for Inactive)
REMARK    1  A    between atoms: S_1  and  N_8
REMARK    2  A    between atoms: S_1  and  C_23
REMARK    3  A    between atoms: O_4  and  C_13
REMARK    4  A    between atoms: O_4  and  C_22
REMARK    5  A    between atoms: N_8  and  C_12
REMARK    6  A    between atoms: N_9  and  C_16
REMARK                            x       y       z     vdW  Elec       q    Type
REMARK                         _______ _______ _______ _____ _____    ______ ____
ROOT
ATOM      2  O   UNL     1      -5.814 -11.403  15.455  0.00  0.00    -0.369 OA
ATOM      3  O   UNL     1      -6.682 -10.003  18.052  0.00  0.00    -0.368 OA
ATOM     10  C   UNL     1      -6.671  -9.560  16.679  0.00  0.00    +0.171 C 
ATOM     11  C   UNL     1      -5.430 -10.147  16.037  0.00  0.00    +0.191 C 
ATOM     12  C   UNL     1      -7.809 -10.202  15.924  0.00  0.00    +0.133 C 
ATOM     13  C   UNL     1      -4.508 -10.336  17.218  0.00  0.00    +0.235 C 
ATOM     14  C   UNL     1      -7.240 -11.553  15.540  0.00  0.00    +0.183 C 
ATOM     15  C   UNL     1      -5.472 -10.728  18.315  0.00  0.00    +0.207 C 
ENDROOT
BRANCH  12   8
ATOM      8  N   UNL     1      -8.111  -9.419  14.702  0.00  0.00    -0.182 NA
ATOM     33  H   UNL     1      -7.895  -8.415  14.712  0.00  0.00    +0.148 HD
BRANCH   8   1
ATOM      1  S   UNL     1      -9.137 -10.069  13.515  0.00  0.00    +0.059 S 
ATOM      5  O   UNL     1     -10.131  -9.080  13.142  0.00  0.00    -0.153 OA
ATOM      6  O   UNL     1      -9.547 -11.397  13.929  0.00  0.00    -0.153 OA
BRANCH   1  23
ATOM     23  C   UNL     1      -8.033 -10.274  12.150  0.00  0.00    +0.106 A 
ATOM     24  C   UNL     1      -6.973  -9.395  12.000  0.00  0.00    +0.037 A 
ATOM     25  C   UNL     1      -8.250 -11.305  11.257  0.00  0.00    +0.029 A 
ATOM     26  C   UNL     1      -6.087  -9.544  10.921  0.00  0.00    -0.016 A 
ATOM     27  C   UNL     1      -7.379 -11.468  10.179  0.00  0.00    +0.010 A 
ATOM     28  C   UNL     1      -6.294 -10.596   9.996  0.00  0.00    -0.018 A 
ATOM     29  C   UNL     1      -5.002  -8.673  10.738  0.00  0.00    +0.008 A 
ATOM     30  C   UNL     1      -5.407 -10.745   8.916  0.00  0.00    +0.008 A 
ATOM     31  C   UNL     1      -4.132  -8.835   9.660  0.00  0.00    +0.001 A 
ATOM     32  C   UNL     1      -4.334  -9.869   8.750  0.00  0.00    +0.001 A 
ENDBRANCH   1  23
ENDBRANCH   8   1
ENDBRANCH  12   8
BRANCH  13   4
ATOM      4  O   UNL     1      -3.517 -11.316  17.007  0.00  0.00    -0.442 OA
BRANCH   4  22
ATOM      7  O   UNL     1      -1.835 -10.069  16.061  0.00  0.00    -0.226 OA
ATOM      9  N   UNL     1      -2.597 -12.019  15.061  0.00  0.00    -0.278 N 
ATOM     22  C   UNL     1      -2.577 -11.046  16.038  0.00  0.00    +0.401 C 
ATOM     34  H   UNL     1      -3.297 -12.750  15.144  0.00  0.00    +0.152 HD
BRANCH   9  16
ATOM     16  C   UNL     1      -1.727 -12.016  13.906  0.00  0.00    +0.076 C 
ATOM     17  C   UNL     1      -1.444 -13.443  13.426  0.00  0.00    +0.022 C 
ATOM     18  C   UNL     1      -2.307 -11.155  12.780  0.00  0.00    +0.022 C 
ATOM     19  C   UNL     1      -2.661 -14.088  12.760  0.00  0.00    +0.002 C 
ATOM     20  C   UNL     1      -3.522 -11.803  12.115  0.00  0.00    +0.002 C 
ATOM     21  C   UNL     1      -3.214 -13.218  11.636  0.00  0.00    +0.000 C 
ENDBRANCH   9  16
ENDBRANCH   4  22
ENDBRANCH  13   4
TORSDOF 6
ENDMDL
MODEL 8
REMARK VINA RESULT:      -6.7      2.202      3.527
REMARK  Name = 11883361
REMARK  6 active torsions:
REMARK  status: ('A' for Active; 'I' for Inactive)
REMARK    1  A    between atoms: S_1  and  N_8
REMARK    2  A    between atoms: S_1  and  C_23
REMARK    3  A    between atoms: O_4  and  C_13
REMARK    4  A    between atoms: O_4  and  C_22
REMARK    5  A    between atoms: N_8  and  C_12
REMARK    6  A    between atoms: N_9  and  C_16
REMARK                            x       y       z     vdW  Elec       q    Type
REMARK                         _______ _______ _______ _____ _____    ______ ____
ROOT
ATOM      2  O   UNL     1      -6.190 -10.489  17.190  0.00  0.00    -0.369 OA
ATOM      3  O   UNL     1      -4.255 -11.782  19.202  0.00  0.00    -0.368 OA
ATOM     10  C   UNL     1      -4.569 -12.100  17.830  0.00  0.00    +0.171 C 
ATOM     11  C   UNL     1      -6.052 -11.844  17.647  0.00  0.00    +0.191 C 
ATOM     12  C   UNL     1      -3.912 -11.103  16.908  0.00  0.00    +0.133 C 
ATOM     13  C   UNL     1      -6.590 -12.020  19.046  0.00  0.00    +0.235 C 
ATOM     14  C   UNL     1      -4.890  -9.945  16.911  0.00  0.00    +0.183 C 
ATOM     15  C   UNL     1      -5.471 -11.456  19.891  0.00  0.00    +0.207 C 
ENDROOT
BRANCH  12   8
ATOM      8  N   UNL     1      -3.807 -11.668  15.541  0.00  0.00    -0.182 NA
ATOM     33  H   UNL     1      -4.543 -12.315  15.235  0.00  0.00    +0.148 HD
BRANCH   8   1
ATOM      1  S   UNL     1      -2.338 -11.570  14.697  0.00  0.00    +0.059 S 
ATOM      5  O   UNL     1      -1.880 -12.906  14.368  0.00  0.00    -0.153 OA
ATOM      6  O   UNL     1      -1.460 -10.648  15.394  0.00  0.00    -0.153 OA
BRANCH   1  23
ATOM     23  C   UNL     1      -2.830 -10.777  13.196  0.00  0.00    +0.106 A 
ATOM     24  C   UNL     1      -4.167 -10.478  12.997  0.00  0.00    +0.037 A 
ATOM     25  C   UNL     1      -1.871 -10.472  12.250  0.00  0.00    +0.029 A 
ATOM     26  C   UNL     1      -4.575  -9.848  11.810  0.00  0.00    -0.016 A 
ATOM     27  C   UNL     1      -2.259  -9.847  11.064  0.00  0.00    +0.010 A 
ATOM     28  C   UNL     1      -3.606  -9.528  10.828  0.00  0.00    -0.018 A 
ATOM     29  C   UNL     1      -5.922  -9.530  11.574  0.00  0.00    +0.008 A 
ATOM     30  C   UNL     1      -4.015  -8.899   9.641  0.00  0.00    +0.008 A 
ATOM     31  C   UNL     1      -6.310  -8.905  10.389  0.00  0.00    +0.001 A 
ATOM     32  C   UNL     1      -5.357  -8.590   9.423  0.00  0.00    +0.001 A 
ENDBRANCH   1  23
ENDBRANCH   8   1
ENDBRANCH  12   8
BRANCH  13   4
ATOM      4  O   UNL     1      -7.811 -11.351  19.268  0.00  0.00    -0.442 OA
BRANCH   4  22
ATOM      7  O   UNL     1      -9.768 -11.635  18.099  0.00  0.00    -0.226 OA
ATOM      9  N   UNL     1      -9.056 -13.203  19.653  0.00  0.00    -0.278 N 
ATOM     22  C   UNL     1      -8.959 -12.032  18.931  0.00  0.00    +0.401 C 
ATOM     34  H   UNL     1      -8.335 -13.387  20.344  0.00  0.00    +0.152 HD
BRANCH   9  16
ATOM     16  C   UNL     1     -10.151 -14.138  19.524  0.00  0.00    +0.076 C 
ATOM     17  C   UNL     1      -9.672 -15.579  19.725  0.00  0.00    +0.022 C 
ATOM     18  C   UNL     1     -11.289 -13.791  20.489  0.00  0.00    +0.022 C 
ATOM     19  C   UNL     1      -9.320 -15.881  21.183  0.00  0.00    +0.002 C 
ATOM     20  C   UNL     1     -10.935 -14.096  21.945  0.00  0.00    +0.002 C 
ATOM     21  C   UNL     1     -10.471 -15.538  22.122  0.00  0.00    +0.000 C 
ENDBRANCH   9  16
ENDBRANCH   4  22
ENDBRANCH  13   4
TORSDOF 6
ENDMDL
MODEL 9
REMARK VINA RESULT:      -6.6     25.417     28.903
REMARK  Name = 11883361
REMARK  6 active torsions:
REMARK  status: ('A' for Active; 'I' for Inactive)
REMARK    1  A    between atoms: S_1  and  N_8
REMARK    2  A    between atoms: S_1  and  C_23
REMARK    3  A    between atoms: O_4  and  C_13
REMARK    4  A    between atoms: O_4  and  C_22
REMARK    5  A    between atoms: N_8  and  C_12
REMARK    6  A    between atoms: N_9  and  C_16
REMARK                            x       y       z     vdW  Elec       q    Type
REMARK                         _______ _______ _______ _____ _____    ______ ____
ROOT
ATOM      2  O   UNL     1      18.328 -10.785   0.288  0.00  0.00    -0.369 OA
ATOM      3  O   UNL     1      19.664 -11.920  -2.239  0.00  0.00    -0.368 OA
ATOM     10  C   UNL     1      18.339 -11.399  -2.004  0.00  0.00    +0.171 C 
ATOM     11  C   UNL     1      17.936 -11.836  -0.609  0.00  0.00    +0.191 C 
ATOM     12  C   UNL     1      18.387  -9.894  -1.914  0.00  0.00    +0.133 C 
ATOM     13  C   UNL     1      18.761 -13.083  -0.405  0.00  0.00    +0.235 C 
ATOM     14  C   UNL     1      18.787  -9.654  -0.471  0.00  0.00    +0.183 C 
ATOM     15  C   UNL     1      20.046 -12.736  -1.123  0.00  0.00    +0.207 C 
ENDROOT
BRANCH  12   8
ATOM      8  N   UNL     1      17.040  -9.328  -2.162  0.00  0.00    -0.182 NA
ATOM     33  H   UNL     1      16.299  -9.543  -1.483  0.00  0.00    +0.148 HD
BRANCH   8   1
ATOM      1  S   UNL     1      16.652  -8.709  -3.694  0.00  0.00    +0.059 S 
ATOM      5  O   UNL     1      15.292  -9.081  -4.035  0.00  0.00    -0.153 OA
ATOM      6  O   UNL     1      17.741  -9.004  -4.605  0.00  0.00    -0.153 OA
BRANCH   1  23
ATOM     23  C   UNL     1      16.683  -6.966  -3.403  0.00  0.00    +0.106 A 
ATOM     24  C   UNL     1      17.812  -6.394  -2.843  0.00  0.00    +0.037 A 
ATOM     25  C   UNL     1      15.577  -6.208  -3.739  0.00  0.00    +0.029 A 
ATOM     26  C   UNL     1      17.852  -5.011  -2.605  0.00  0.00    -0.016 A 
ATOM     27  C   UNL     1      15.600  -4.832  -3.509  0.00  0.00    +0.010 A 
ATOM     28  C   UNL     1      16.729  -4.217  -2.943  0.00  0.00    -0.018 A 
ATOM     29  C   UNL     1      18.981  -4.396  -2.039  0.00  0.00    +0.008 A 
ATOM     30  C   UNL     1      16.769  -2.833  -2.704  0.00  0.00    +0.008 A 
ATOM     31  C   UNL     1      19.003  -3.021  -1.809  0.00  0.00    +0.001 A 
ATOM     32  C   UNL     1      17.898  -2.240  -2.141  0.00  0.00    +0.001 A 
ENDBRANCH   1  23
ENDBRANCH   8   1
ENDBRANCH  12   8
BRANCH  13   4
ATOM      4  O   UNL     1      18.980 -13.397   0.952  0.00  0.00    -0.442 OA
BRANCH   4  22
ATOM      7  O   UNL     1      17.807 -15.370   1.044  0.00  0.00    -0.226 OA
ATOM      9  N   UNL     1      17.611 -13.774   2.716  0.00  0.00    -0.278 N 
ATOM     22  C   UNL     1      18.100 -14.283   1.531  0.00  0.00    +0.401 C 
ATOM     34  H   UNL     1      17.905 -12.838   2.978  0.00  0.00    +0.152 HD
BRANCH   9  16
ATOM     16  C   UNL     1      16.664 -14.469   3.559  0.00  0.00    +0.076 C 
ATOM     17  C   UNL     1      17.087 -14.406   5.030  0.00  0.00    +0.022 C 
ATOM     18  C   UNL     1      15.246 -13.921   3.364  0.00  0.00    +0.022 C 
ATOM     19  C   UNL     1      16.907 -13.012   5.632  0.00  0.00    +0.002 C 
ATOM     20  C   UNL     1      15.070 -12.528   3.969  0.00  0.00    +0.002 C 
ATOM     21  C   UNL     1      15.486 -12.493   5.435  0.00  0.00    +0.000 C 
ENDBRANCH   9  16
ENDBRANCH   4  22
ENDBRANCH  13   4
TORSDOF 6
ENDMDL
MODEL 10
REMARK VINA RESULT:      -6.5      3.661      6.352
REMARK  Name = 11883361
REMARK  6 active torsions:
REMARK  status: ('A' for Active; 'I' for Inactive)
REMARK    1  A    between atoms: S_1  and  N_8
REMARK    2  A    between atoms: S_1  and  C_23
REMARK    3  A    between atoms: O_4  and  C_13
REMARK    4  A    between atoms: O_4  and  C_22
REMARK    5  A    between atoms: N_8  and  C_12
REMARK    6  A    between atoms: N_9  and  C_16
REMARK                            x       y       z     vdW  Elec       q    Type
REMARK                         _______ _______ _______ _____ _____    ______ ____
ROOT
ATOM      2  O   UNL     1     -10.695  -9.715  17.265  0.00  0.00    -0.369 OA
ATOM      3  O   UNL     1      -8.448  -9.662  15.165  0.00  0.00    -0.368 OA
ATOM     10  C   UNL     1      -8.456  -9.342  16.571  0.00  0.00    +0.171 C 
ATOM     11  C   UNL     1      -9.787  -8.677  16.864  0.00  0.00    +0.191 C 
ATOM     12  C   UNL     1      -8.497 -10.610  17.387  0.00  0.00    +0.133 C 
ATOM     13  C   UNL     1     -10.163  -8.092  15.524  0.00  0.00    +0.235 C 
ATOM     14  C   UNL     1      -9.975 -10.950  17.410  0.00  0.00    +0.183 C 
ATOM     15  C   UNL     1      -9.640  -9.136  14.563  0.00  0.00    +0.207 C 
ENDROOT
BRANCH  12   8
ATOM      8  N   UNL     1      -8.023 -10.343  18.766  0.00  0.00    -0.182 NA
ATOM     33  H   UNL     1      -8.154  -9.395  19.140  0.00  0.00    +0.148 HD
BRANCH   8   1
ATOM      1  S   UNL     1      -6.955 -11.427  19.517  0.00  0.00    +0.059 S 
ATOM      5  O   UNL     1      -7.687 -12.603  19.951  0.00  0.00    -0.153 OA
ATOM      6  O   UNL     1      -6.130 -10.693  20.457  0.00  0.00    -0.153 OA
BRANCH   1  23
ATOM     23  C   UNL     1      -5.909 -11.901  18.174  0.00  0.00    +0.106 A 
ATOM     24  C   UNL     1      -4.881 -11.059  17.787  0.00  0.00    +0.037 A 
ATOM     25  C   UNL     1      -6.139 -13.104  17.533  0.00  0.00    +0.029 A 
ATOM     26  C   UNL     1      -4.042 -11.421  16.722  0.00  0.00    -0.016 A 
ATOM     27  C   UNL     1      -5.315 -13.479  16.472  0.00  0.00    +0.010 A 
ATOM     28  C   UNL     1      -4.262 -12.649  16.053  0.00  0.00    -0.018 A 
ATOM     29  C   UNL     1      -2.989 -10.591  16.303  0.00  0.00    +0.008 A 
ATOM     30  C   UNL     1      -3.422 -13.011  14.987  0.00  0.00    +0.008 A 
ATOM     31  C   UNL     1      -2.165 -10.965  15.242  0.00  0.00    +0.001 A 
ATOM     32  C   UNL     1      -2.381 -12.174  14.585  0.00  0.00    +0.001 A 
ENDBRANCH   1  23
ENDBRANCH   8   1
ENDBRANCH  12   8
BRANCH  13   4
ATOM      4  O   UNL     1     -11.548  -7.877  15.372  0.00  0.00    -0.442 OA
BRANCH   4  22
ATOM      7  O   UNL     1     -11.934  -5.832  16.345  0.00  0.00    -0.226 OA
ATOM      9  N   UNL     1     -12.436  -6.218  14.112  0.00  0.00    -0.278 N 
ATOM     22  C   UNL     1     -11.972  -6.568  15.364  0.00  0.00    +0.401 C 
ATOM     34  H   UNL     1     -12.453  -6.942  13.401  0.00  0.00    +0.152 HD
BRANCH   9  16
ATOM     16  C   UNL     1     -12.951  -4.907  13.784  0.00  0.00    +0.076 C 
ATOM     17  C   UNL     1     -12.181  -4.290  12.612  0.00  0.00    +0.022 C 
ATOM     18  C   UNL     1     -14.455  -4.963  13.494  0.00  0.00    +0.022 C 
ATOM     19  C   UNL     1     -12.499  -4.971  11.281  0.00  0.00    +0.002 C 
ATOM     20  C   UNL     1     -14.768  -5.642  12.161  0.00  0.00    +0.002 C 
ATOM     21  C   UNL     1     -13.999  -5.004  11.009  0.00  0.00    +0.000 C 
ENDBRANCH   9  16
ENDBRANCH   4  22
ENDBRANCH  13   4
TORSDOF 6
ENDMDL
