MODEL 1
REMARK VINA RESULT:      -7.0      0.000      0.000
REMARK  Name = 45361547
REMARK  10 active torsions:
REMARK  status: ('A' for Active; 'I' for Inactive)
REMARK    1  A    between atoms: O_1  and  C_12
REMARK    2  A    between atoms: N_4  and  C_16
REMARK    3  A    between atoms: N_5  and  C_26
REMARK    4  A    between atoms: C_9  and  C_19
REMARK    5  A    between atoms: C_11  and  C_21
REMARK    6  A    between atoms: C_15  and  C_20
REMARK    7  A    between atoms: C_20  and  C_22
REMARK    8  A    between atoms: C_20  and  C_23
REMARK    9  A    between atoms: C_24  and  C_25
REMARK   10  A    between atoms: C_26  and  C_28
REMARK                            x       y       z     vdW  Elec       q    Type
REMARK                         _______ _______ _______ _____ _____    ______ ____
ROOT
ATOM      9  C   UNL     1      -4.732 -11.036  16.901  0.00  0.00    -0.027 C 
ATOM     10  C   UNL     1      -5.525 -10.400  15.711  0.00  0.00    +0.028 C 
ATOM     11  C   UNL     1      -7.074 -10.508  15.950  0.00  0.00    +0.012 C 
ATOM     12  C   UNL     1      -5.020 -10.945  14.343  0.00  0.00    +0.122 C 
ATOM     13  C   UNL     1      -3.216 -10.811  16.688  0.00  0.00    +0.007 C 
ATOM     14  C   UNL     1      -5.133 -10.322  18.212  0.00  0.00    +0.009 C 
ATOM     15  C   UNL     1      -3.489 -10.814  14.180  0.00  0.00    +0.029 C 
ATOM     16  C   UNL     1      -7.455  -9.854  17.308  0.00  0.00    +0.076 C 
ATOM     17  C   UNL     1      -2.711 -11.379  15.368  0.00  0.00    +0.007 C 
ATOM     18  C   UNL     1      -6.630 -10.370  18.485  0.00  0.00    +0.023 C 
ATOM     19  C   UNL     1      -4.996 -12.555  17.047  0.00  0.00    +0.011 C 
ATOM     21  C   UNL     1      -7.916  -9.876  14.830  0.00  0.00    +0.010 C 
ENDROOT
BRANCH  16   4
ATOM      3  O   UNL     1      -9.481  -7.819  17.352  0.00  0.00    -0.268 OA
ATOM      4  N   UNL     1      -8.859 -10.036  17.616  0.00  0.00    -0.307 N 
ATOM     24  C   UNL     1      -9.761  -8.987  17.611  0.00  0.00    +0.264 C 
ATOM     35  H   UNL     1      -9.173 -10.960  17.901  0.00  0.00    +0.149 HD
BRANCH  24  25
ATOM      6  N   UNL     1     -11.329 -10.032  19.117  0.00  0.00    -0.247 NA
ATOM      7  N   UNL     1     -13.493  -9.276  17.500  0.00  0.00    -0.259 NA
ATOM     25  C   UNL     1     -11.158  -9.335  17.975  0.00  0.00    +0.143 A 
ATOM     27  C   UNL     1     -12.222  -8.964  17.181  0.00  0.00    +0.143 A 
ATOM     29  C   UNL     1     -12.601 -10.343  19.436  0.00  0.00    +0.131 A 
ATOM     31  C   UNL     1     -13.663  -9.972  18.642  0.00  0.00    +0.130 A 
ENDBRANCH  24  25
ENDBRANCH  16   4
BRANCH  12   1
ATOM      1  O   UNL     1      -5.611 -10.192  13.283  0.00  0.00    -0.391 OA
ATOM     36  H   UNL     1      -5.203  -9.309  13.276  0.00  0.00    +0.210 HD
ENDBRANCH  12   1
BRANCH  15  20
ATOM     20  C   UNL     1      -2.997 -11.472  12.885  0.00  0.00    +0.077 C 
ATOM     22  C   UNL     1      -1.812 -12.385  13.178  0.00  0.00    +0.017 C 
BRANCH  20  23
ATOM      2  O   UNL     1      -1.529  -9.862  11.827  0.00  0.00    -0.276 OA
ATOM      5  N   UNL     1      -3.680 -10.113  10.997  0.00  0.00    -0.309 N 
ATOM     23  C   UNL     1      -2.633 -10.399  11.862  0.00  0.00    +0.217 C 
ATOM     37  H   UNL     1      -4.545 -10.640  11.057  0.00  0.00    +0.149 HD
BRANCH   5  26
ATOM     26  C   UNL     1      -3.576  -9.130   9.944  0.00  0.00    +0.159 C 
BRANCH  26  28
ATOM      8  N   UNL     1      -5.775  -8.161   9.582  0.00  0.00    -0.258 NA
ATOM     28  C   UNL     1      -4.841  -9.033   9.140  0.00  0.00    +0.058 A 
ATOM     30  C   UNL     1      -4.989  -9.821   8.010  0.00  0.00    +0.025 A 
ATOM     32  C   UNL     1      -6.171  -9.706   7.287  0.00  0.00    +0.003 A 
ATOM     33  C   UNL     1      -6.910  -8.077   8.854  0.00  0.00    +0.111 A 
ATOM     34  C   UNL     1      -7.155  -8.819   7.710  0.00  0.00    +0.020 A 
ENDBRANCH  26  28
ENDBRANCH   5  26
ENDBRANCH  20  23
ENDBRANCH  15  20
TORSDOF 7
ENDMDL
MODEL 2
REMARK VINA RESULT:      -7.0     24.875     27.268
REMARK  Name = 45361547
REMARK  10 active torsions:
REMARK  status: ('A' for Active; 'I' for Inactive)
REMARK    1  A    between atoms: O_1  and  C_12
REMARK    2  A    between atoms: N_4  and  C_16
REMARK    3  A    between atoms: N_5  and  C_26
REMARK    4  A    between atoms: C_9  and  C_19
REMARK    5  A    between atoms: C_11  and  C_21
REMARK    6  A    between atoms: C_15  and  C_20
REMARK    7  A    between atoms: C_20  and  C_22
REMARK    8  A    between atoms: C_20  and  C_23
REMARK    9  A    between atoms: C_24  and  C_25
REMARK   10  A    between atoms: C_26  and  C_28
REMARK                            x       y       z     vdW  Elec       q    Type
REMARK                         _______ _______ _______ _____ _____    ______ ____
ROOT
ATOM      9  C   UNL     1       9.434   6.251   6.311  0.00  0.00    -0.027 C 
ATOM     10  C   UNL     1      10.486   7.309   5.838  0.00  0.00    +0.028 C 
ATOM     11  C   UNL     1      10.061   8.755   6.281  0.00  0.00    +0.012 C 
ATOM     12  C   UNL     1      10.811   7.143   4.325  0.00  0.00    +0.122 C 
ATOM     13  C   UNL     1       9.938   4.831   5.958  0.00  0.00    +0.007 C 
ATOM     14  C   UNL     1       9.295   6.331   7.848  0.00  0.00    +0.009 C 
ATOM     15  C   UNL     1      11.213   5.695   3.959  0.00  0.00    +0.029 C 
ATOM     16  C   UNL     1       9.850   8.805   7.821  0.00  0.00    +0.076 C 
ATOM     17  C   UNL     1      10.220   4.652   4.471  0.00  0.00    +0.007 C 
ATOM     18  C   UNL     1       8.910   7.719   8.341  0.00  0.00    +0.023 C 
ATOM     19  C   UNL     1       8.044   6.462   5.661  0.00  0.00    +0.011 C 
ATOM     21  C   UNL     1      11.066   9.844   5.873  0.00  0.00    +0.010 C 
ENDROOT
BRANCH  16   4
ATOM      3  O   UNL     1      11.286  10.800   9.305  0.00  0.00    -0.268 OA
ATOM      4  N   UNL     1       9.346  10.093   8.252  0.00  0.00    -0.307 N 
ATOM     24  C   UNL     1      10.120  10.990   8.967  0.00  0.00    +0.264 C 
ATOM     35  H   UNL     1       8.371  10.315   8.068  0.00  0.00    +0.149 HD
BRANCH  24  25
ATOM      6  N   UNL     1      10.066  13.401   9.003  0.00  0.00    -0.247 NA
ATOM      7  N   UNL     1       7.639  13.396  10.409  0.00  0.00    -0.259 NA
ATOM     25  C   UNL     1       9.449  12.255   9.357  0.00  0.00    +0.143 A 
ATOM     27  C   UNL     1       8.256  12.254  10.048  0.00  0.00    +0.143 A 
ATOM     29  C   UNL     1       9.449  14.543   9.363  0.00  0.00    +0.131 A 
ATOM     31  C   UNL     1       8.257  14.540  10.054  0.00  0.00    +0.130 A 
ENDBRANCH  24  25
ENDBRANCH  16   4
BRANCH  12   1
ATOM      1  O   UNL     1      11.921   7.974   3.982  0.00  0.00    -0.391 OA
ATOM     36  H   UNL     1      12.691   7.401   3.824  0.00  0.00    +0.210 HD
ENDBRANCH  12   1
BRANCH  15  20
ATOM     20  C   UNL     1      11.403   5.523   2.447  0.00  0.00    +0.077 C 
ATOM     22  C   UNL     1      10.567   4.353   1.944  0.00  0.00    +0.017 C 
BRANCH  20  23
ATOM      2  O   UNL     1      13.687   6.255   2.109  0.00  0.00    -0.276 OA
ATOM      5  N   UNL     1      13.198   4.000   1.868  0.00  0.00    -0.309 N 
ATOM     23  C   UNL     1      12.883   5.327   2.128  0.00  0.00    +0.217 C 
ATOM     37  H   UNL     1      12.486   3.283   1.957  0.00  0.00    +0.149 HD
BRANCH   5  26
ATOM     26  C   UNL     1      14.536   3.566   1.540  0.00  0.00    +0.159 C 
BRANCH  26  28
ATOM      8  N   UNL     1      13.944   3.868  -0.797  0.00  0.00    -0.258 NA
ATOM     28  C   UNL     1      14.919   3.938   0.136  0.00  0.00    +0.058 A 
ATOM     30  C   UNL     1      16.222   4.327  -0.130  0.00  0.00    +0.025 A 
ATOM     32  C   UNL     1      16.544   4.667  -1.439  0.00  0.00    +0.003 A 
ATOM     33  C   UNL     1      14.295   4.205  -2.058  0.00  0.00    +0.111 A 
ATOM     34  C   UNL     1      15.568   4.608  -2.428  0.00  0.00    +0.020 A 
ENDBRANCH  26  28
ENDBRANCH   5  26
ENDBRANCH  20  23
ENDBRANCH  15  20
TORSDOF 7
ENDMDL
MODEL 3
REMARK VINA RESULT:      -6.9      2.291      8.530
REMARK  Name = 45361547
REMARK  10 active torsions:
REMARK  status: ('A' for Active; 'I' for Inactive)
REMARK    1  A    between atoms: O_1  and  C_12
REMARK    2  A    between atoms: N_4  and  C_16
REMARK    3  A    between atoms: N_5  and  C_26
REMARK    4  A    between atoms: C_9  and  C_19
REMARK    5  A    between atoms: C_11  and  C_21
REMARK    6  A    between atoms: C_15  and  C_20
REMARK    7  A    between atoms: C_20  and  C_22
REMARK    8  A    between atoms: C_20  and  C_23
REMARK    9  A    between atoms: C_24  and  C_25
REMARK   10  A    between atoms: C_26  and  C_28
REMARK                            x       y       z     vdW  Elec       q    Type
REMARK                         _______ _______ _______ _____ _____    ______ ____
ROOT
ATOM      9  C   UNL     1      -3.256 -11.679  12.010  0.00  0.00    -0.027 C 
ATOM     10  C   UNL     1      -4.558 -10.983  12.531  0.00  0.00    +0.028 C 
ATOM     11  C   UNL     1      -5.184 -10.065  11.421  0.00  0.00    +0.012 C 
ATOM     12  C   UNL     1      -4.316 -10.297  13.908  0.00  0.00    +0.122 C 
ATOM     13  C   UNL     1      -2.730 -12.660  13.085  0.00  0.00    +0.007 C 
ATOM     14  C   UNL     1      -3.598 -12.504  10.748  0.00  0.00    +0.009 C 
ATOM     15  C   UNL     1      -3.693 -11.256  14.948  0.00  0.00    +0.029 C 
ATOM     16  C   UNL     1      -5.453 -10.889  10.131  0.00  0.00    +0.076 C 
ATOM     17  C   UNL     1      -2.456 -11.984  14.422  0.00  0.00    +0.007 C 
ATOM     18  C   UNL     1      -4.234 -11.671   9.643  0.00  0.00    +0.023 C 
ATOM     19  C   UNL     1      -2.136 -10.665  11.668  0.00  0.00    +0.011 C 
ATOM     21  C   UNL     1      -6.484  -9.371  11.858  0.00  0.00    +0.010 C 
ENDROOT
BRANCH  16   4
ATOM      3  O   UNL     1      -7.931 -11.157   8.706  0.00  0.00    -0.268 OA
ATOM      4  N   UNL     1      -5.923 -10.051   9.047  0.00  0.00    -0.307 N 
ATOM     24  C   UNL     1      -7.139 -10.262   8.421  0.00  0.00    +0.264 C 
ATOM     35  H   UNL     1      -5.307  -9.319   8.702  0.00  0.00    +0.149 HD
BRANCH  24  25
ATOM      6  N   UNL     1      -8.445  -8.436   7.540  0.00  0.00    -0.247 NA
ATOM      7  N   UNL     1      -7.084  -8.551   5.090  0.00  0.00    -0.259 NA
ATOM     25  C   UNL     1      -7.464  -9.332   7.310  0.00  0.00    +0.143 A 
ATOM     27  C   UNL     1      -6.795  -9.389   6.106  0.00  0.00    +0.143 A 
ATOM     29  C   UNL     1      -8.732  -7.598   6.525  0.00  0.00    +0.131 A 
ATOM     31  C   UNL     1      -8.064  -7.655   5.321  0.00  0.00    +0.130 A 
ENDBRANCH  24  25
ENDBRANCH  16   4
BRANCH  12   1
ATOM      1  O   UNL     1      -5.565  -9.864  14.449  0.00  0.00    -0.391 OA
ATOM     36  H   UNL     1      -6.152  -9.633  13.708  0.00  0.00    +0.210 HD
ENDBRANCH  12   1
BRANCH  15  20
ATOM     20  C   UNL     1      -3.344 -10.529  16.253  0.00  0.00    +0.077 C 
ATOM     22  C   UNL     1      -1.856 -10.672  16.551  0.00  0.00    +0.017 C 
BRANCH  20  23
ATOM      2  O   UNL     1      -3.733 -11.789  18.285  0.00  0.00    -0.276 OA
ATOM      5  N   UNL     1      -5.522 -10.681  17.307  0.00  0.00    -0.309 N 
ATOM     23  C   UNL     1      -4.194 -11.077  17.396  0.00  0.00    +0.217 C 
ATOM     37  H   UNL     1      -5.813 -10.047  16.571  0.00  0.00    +0.149 HD
BRANCH   5  26
ATOM     26  C   UNL     1      -6.520 -11.075  18.274  0.00  0.00    +0.159 C 
BRANCH  26  28
ATOM      8  N   UNL     1      -8.875 -10.771  18.787  0.00  0.00    -0.258 NA
ATOM     28  C   UNL     1      -7.807 -10.323  18.090  0.00  0.00    +0.058 A 
ATOM     30  C   UNL     1      -7.839  -9.233  17.235  0.00  0.00    +0.025 A 
ATOM     32  C   UNL     1      -9.046  -8.558  17.088  0.00  0.00    +0.003 A 
ATOM     33  C   UNL     1     -10.030 -10.090  18.618  0.00  0.00    +0.111 A 
ATOM     34  C   UNL     1     -10.167  -8.988  17.789  0.00  0.00    +0.020 A 
ENDBRANCH  26  28
ENDBRANCH   5  26
ENDBRANCH  20  23
ENDBRANCH  15  20
TORSDOF 7
ENDMDL
MODEL 4
REMARK VINA RESULT:      -6.8      1.683      1.898
REMARK  Name = 45361547
REMARK  10 active torsions:
REMARK  status: ('A' for Active; 'I' for Inactive)
REMARK    1  A    between atoms: O_1  and  C_12
REMARK    2  A    between atoms: N_4  and  C_16
REMARK    3  A    between atoms: N_5  and  C_26
REMARK    4  A    between atoms: C_9  and  C_19
REMARK    5  A    between atoms: C_11  and  C_21
REMARK    6  A    between atoms: C_15  and  C_20
REMARK    7  A    between atoms: C_20  and  C_22
REMARK    8  A    between atoms: C_20  and  C_23
REMARK    9  A    between atoms: C_24  and  C_25
REMARK   10  A    between atoms: C_26  and  C_28
REMARK                            x       y       z     vdW  Elec       q    Type
REMARK                         _______ _______ _______ _____ _____    ______ ____
ROOT
ATOM      9  C   UNL     1      -4.872 -11.282  17.322  0.00  0.00    -0.027 C 
ATOM     10  C   UNL     1      -5.887 -10.518  16.407  0.00  0.00    +0.028 C 
ATOM     11  C   UNL     1      -7.341 -10.597  16.998  0.00  0.00    +0.012 C 
ATOM     12  C   UNL     1      -5.745 -10.956  14.920  0.00  0.00    +0.122 C 
ATOM     13  C   UNL     1      -3.438 -11.088  16.774  0.00  0.00    +0.007 C 
ATOM     14  C   UNL     1      -4.918 -10.674  18.743  0.00  0.00    +0.009 C 
ATOM     15  C   UNL     1      -4.289 -10.859  14.410  0.00  0.00    +0.029 C 
ATOM     16  C   UNL     1      -7.360 -10.053  18.454  0.00  0.00    +0.076 C 
ATOM     17  C   UNL     1      -3.285 -11.552  15.331  0.00  0.00    +0.007 C 
ATOM     18  C   UNL     1      -6.311 -10.698  19.358  0.00  0.00    +0.023 C 
ATOM     19  C   UNL     1      -5.173 -12.799  17.407  0.00  0.00    +0.011 C 
ATOM     21  C   UNL     1      -8.387  -9.841  16.162  0.00  0.00    +0.010 C 
ENDROOT
BRANCH  16   4
ATOM      3  O   UNL     1      -8.596 -12.530  19.218  0.00  0.00    -0.268 OA
ATOM      4  N   UNL     1      -8.660 -10.217  19.071  0.00  0.00    -0.307 N 
ATOM     24  C   UNL     1      -9.171 -11.460  19.403  0.00  0.00    +0.264 C 
ATOM     35  H   UNL     1      -9.236  -9.391  19.209  0.00  0.00    +0.149 HD
BRANCH  24  25
ATOM      6  N   UNL     1     -10.961 -12.630  20.519  0.00  0.00    -0.247 NA
ATOM      7  N   UNL     1     -12.539 -10.312  20.570  0.00  0.00    -0.259 NA
ATOM     25  C   UNL     1     -10.529 -11.461  20.004  0.00  0.00    +0.143 A 
ATOM     27  C   UNL     1     -11.305 -10.322  20.029  0.00  0.00    +0.143 A 
ATOM     29  C   UNL     1     -12.194 -12.619  21.060  0.00  0.00    +0.131 A 
ATOM     31  C   UNL     1     -12.970 -11.481  21.085  0.00  0.00    +0.130 A 
ENDBRANCH  24  25
ENDBRANCH  16   4
BRANCH  12   1
ATOM      1  O   UNL     1      -6.526 -10.092  14.093  0.00  0.00    -0.391 OA
ATOM     36  H   UNL     1      -7.457 -10.178  14.362  0.00  0.00    +0.210 HD
ENDBRANCH  12   1
BRANCH  15  20
ATOM     20  C   UNL     1      -4.148 -11.416  12.988  0.00  0.00    +0.077 C 
ATOM     22  C   UNL     1      -3.062 -12.485  12.948  0.00  0.00    +0.017 C 
BRANCH  20  23
ATOM      2  O   UNL     1      -2.707 -10.018  11.631  0.00  0.00    -0.276 OA
ATOM      5  N   UNL     1      -4.988  -9.598  11.621  0.00  0.00    -0.309 N 
ATOM     23  C   UNL     1      -3.845 -10.281  12.013  0.00  0.00    +0.217 C 
ATOM     37  H   UNL     1      -5.899  -9.911  11.939  0.00  0.00    +0.149 HD
BRANCH   5  26
ATOM     26  C   UNL     1      -4.956  -8.483  10.704  0.00  0.00    +0.159 C 
BRANCH  26  28
ATOM      8  N   UNL     1      -6.750  -8.327   9.072  0.00  0.00    -0.258 NA
ATOM     28  C   UNL     1      -5.534  -8.841   9.364  0.00  0.00    +0.058 A 
ATOM     30  C   UNL     1      -4.813  -9.661   8.512  0.00  0.00    +0.025 A 
ATOM     32  C   UNL     1      -5.375  -9.972   7.279  0.00  0.00    +0.003 A 
ATOM     33  C   UNL     1      -7.264  -8.651   7.865  0.00  0.00    +0.111 A 
ATOM     34  C   UNL     1      -6.624  -9.461   6.941  0.00  0.00    +0.020 A 
ENDBRANCH  26  28
ENDBRANCH   5  26
ENDBRANCH  20  23
ENDBRANCH  15  20
TORSDOF 7
ENDMDL
MODEL 5
REMARK VINA RESULT:      -6.8     24.785     27.428
REMARK  Name = 45361547
REMARK  10 active torsions:
REMARK  status: ('A' for Active; 'I' for Inactive)
REMARK    1  A    between atoms: O_1  and  C_12
REMARK    2  A    between atoms: N_4  and  C_16
REMARK    3  A    between atoms: N_5  and  C_26
REMARK    4  A    between atoms: C_9  and  C_19
REMARK    5  A    between atoms: C_11  and  C_21
REMARK    6  A    between atoms: C_15  and  C_20
REMARK    7  A    between atoms: C_20  and  C_22
REMARK    8  A    between atoms: C_20  and  C_23
REMARK    9  A    between atoms: C_24  and  C_25
REMARK   10  A    between atoms: C_26  and  C_28
REMARK                            x       y       z     vdW  Elec       q    Type
REMARK                         _______ _______ _______ _____ _____    ______ ____
ROOT
ATOM      9  C   UNL     1       9.479   6.053   6.052  0.00  0.00    -0.027 C 
ATOM     10  C   UNL     1      10.423   7.218   5.604  0.00  0.00    +0.028 C 
ATOM     11  C   UNL     1       9.886   8.602   6.117  0.00  0.00    +0.012 C 
ATOM     12  C   UNL     1      10.726   7.142   4.079  0.00  0.00    +0.122 C 
ATOM     13  C   UNL     1      10.095   4.698   5.629  0.00  0.00    +0.007 C 
ATOM     14  C   UNL     1       9.370   6.058   7.594  0.00  0.00    +0.009 C 
ATOM     15  C   UNL     1      11.243   5.751   3.644  0.00  0.00    +0.029 C 
ATOM     16  C   UNL     1       9.708   8.570   7.661  0.00  0.00    +0.076 C 
ATOM     17  C   UNL     1      10.356   4.606   4.131  0.00  0.00    +0.007 C 
ATOM     18  C   UNL     1       8.878   7.386   8.154  0.00  0.00    +0.023 C 
ATOM     19  C   UNL     1       8.061   6.168   5.440  0.00  0.00    +0.011 C 
ATOM     21  C   UNL     1      10.784   9.790   5.735  0.00  0.00    +0.010 C 
ENDROOT
BRANCH  16   4
ATOM      3  O   UNL     1      10.990  10.599   9.238  0.00  0.00    -0.268 OA
ATOM      4  N   UNL     1       9.106   9.790   8.157  0.00  0.00    -0.307 N 
ATOM     24  C   UNL     1       9.810  10.711   8.913  0.00  0.00    +0.264 C 
ATOM     35  H   UNL     1       8.115   9.941   7.987  0.00  0.00    +0.149 HD
BRANCH  24  25
ATOM      6  N   UNL     1       8.795  12.847   8.443  0.00  0.00    -0.247 NA
ATOM      7  N   UNL     1       7.911  13.091  11.093  0.00  0.00    -0.259 NA
ATOM     25  C   UNL     1       9.042  11.897   9.367  0.00  0.00    +0.143 A 
ATOM     27  C   UNL     1       8.607  12.017  10.670  0.00  0.00    +0.143 A 
ATOM     29  C   UNL     1       8.099  13.920   8.866  0.00  0.00    +0.131 A 
ATOM     31  C   UNL     1       7.665  14.040  10.168  0.00  0.00    +0.130 A 
ENDBRANCH  24  25
ENDBRANCH  16   4
BRANCH  12   1
ATOM      1  O   UNL     1      11.751   8.081   3.749  0.00  0.00    -0.391 OA
ATOM     36  H   UNL     1      12.609   7.629   3.823  0.00  0.00    +0.210 HD
ENDBRANCH  12   1
BRANCH  15  20
ATOM     20  C   UNL     1      11.411   5.658   2.122  0.00  0.00    +0.077 C 
ATOM     22  C   UNL     1      11.005   4.272   1.634  0.00  0.00    +0.017 C 
BRANCH  20  23
ATOM      2  O   UNL     1      13.227   6.056   0.570  0.00  0.00    -0.276 OA
ATOM      5  N   UNL     1      13.665   6.182   2.844  0.00  0.00    -0.309 N 
ATOM     23  C   UNL     1      12.851   5.984   1.737  0.00  0.00    +0.217 C 
ATOM     37  H   UNL     1      13.266   6.158   3.777  0.00  0.00    +0.149 HD
BRANCH   5  26
ATOM     26  C   UNL     1      15.069   6.502   2.734  0.00  0.00    +0.159 C 
BRANCH  26  28
ATOM      8  N   UNL     1      14.702   7.445   4.943  0.00  0.00    -0.258 NA
ATOM     28  C   UNL     1      15.554   7.313   3.902  0.00  0.00    +0.058 A 
ATOM     30  C   UNL     1      16.820   7.873   3.858  0.00  0.00    +0.025 A 
ATOM     32  C   UNL     1      17.240   8.617   4.955  0.00  0.00    +0.003 A 
ATOM     33  C   UNL     1      15.145   8.175   5.991  0.00  0.00    +0.111 A 
ATOM     34  C   UNL     1      16.392   8.776   6.046  0.00  0.00    +0.020 A 
ENDBRANCH  26  28
ENDBRANCH   5  26
ENDBRANCH  20  23
ENDBRANCH  15  20
TORSDOF 7
ENDMDL
MODEL 6
REMARK VINA RESULT:      -6.5      1.987      2.752
REMARK  Name = 45361547
REMARK  10 active torsions:
REMARK  status: ('A' for Active; 'I' for Inactive)
REMARK    1  A    between atoms: O_1  and  C_12
REMARK    2  A    between atoms: N_4  and  C_16
REMARK    3  A    between atoms: N_5  and  C_26
REMARK    4  A    between atoms: C_9  and  C_19
REMARK    5  A    between atoms: C_11  and  C_21
REMARK    6  A    between atoms: C_15  and  C_20
REMARK    7  A    between atoms: C_20  and  C_22
REMARK    8  A    between atoms: C_20  and  C_23
REMARK    9  A    between atoms: C_24  and  C_25
REMARK   10  A    between atoms: C_26  and  C_28
REMARK                            x       y       z     vdW  Elec       q    Type
REMARK                         _______ _______ _______ _____ _____    ______ ____
ROOT
ATOM      9  C   UNL     1      -6.205 -11.425  18.354  0.00  0.00    -0.027 C 
ATOM     10  C   UNL     1      -6.175 -10.508  17.085  0.00  0.00    +0.028 C 
ATOM     11  C   UNL     1      -7.588 -10.454  16.401  0.00  0.00    +0.012 C 
ATOM     12  C   UNL     1      -4.991 -10.884  16.147  0.00  0.00    +0.122 C 
ATOM     13  C   UNL     1      -4.832 -11.365  19.066  0.00  0.00    +0.007 C 
ATOM     14  C   UNL     1      -7.268 -10.887  19.339  0.00  0.00    +0.009 C 
ATOM     15  C   UNL     1      -3.635 -10.925  16.888  0.00  0.00    +0.029 C 
ATOM     16  C   UNL     1      -8.662  -9.985  17.422  0.00  0.00    +0.076 C 
ATOM     17  C   UNL     1      -3.675 -11.770  18.161  0.00  0.00    +0.007 C 
ATOM     18  C   UNL     1      -8.657 -10.787  18.723  0.00  0.00    +0.023 C 
ATOM     19  C   UNL     1      -6.525 -12.901  18.013  0.00  0.00    +0.011 C 
ATOM     21  C   UNL     1      -7.637  -9.546  15.162  0.00  0.00    +0.010 C 
ENDROOT
BRANCH  16   4
ATOM      3  O   UNL     1     -10.484  -7.785  17.132  0.00  0.00    -0.268 OA
ATOM      4  N   UNL     1      -9.995 -10.035  16.858  0.00  0.00    -0.307 N 
ATOM     24  C   UNL     1     -10.801  -8.913  16.762  0.00  0.00    +0.264 C 
ATOM     35  H   UNL     1     -10.367 -10.938  16.578  0.00  0.00    +0.149 HD
BRANCH  24  25
ATOM      6  N   UNL     1     -13.112  -8.260  16.542  0.00  0.00    -0.247 NA
ATOM      7  N   UNL     1     -13.625 -10.397  14.801  0.00  0.00    -0.259 NA
ATOM     25  C   UNL     1     -12.150  -9.135  16.184  0.00  0.00    +0.143 A 
ATOM     27  C   UNL     1     -12.403 -10.186  15.329  0.00  0.00    +0.143 A 
ATOM     29  C   UNL     1     -14.333  -8.472  16.013  0.00  0.00    +0.131 A 
ATOM     31  C   UNL     1     -14.585  -9.522  15.158  0.00  0.00    +0.130 A 
ENDBRANCH  24  25
ENDBRANCH  16   4
BRANCH  12   1
ATOM      1  O   UNL     1      -4.866  -9.899  15.120  0.00  0.00    -0.391 OA
ATOM     36  H   UNL     1      -5.179 -10.290  14.286  0.00  0.00    +0.210 HD
ENDBRANCH  12   1
BRANCH  15  20
ATOM     20  C   UNL     1      -2.505 -11.422  15.978  0.00  0.00    +0.077 C 
ATOM     22  C   UNL     1      -1.511 -10.297  15.713  0.00  0.00    +0.017 C 
BRANCH  20  23
ATOM      2  O   UNL     1      -3.822 -12.951  14.639  0.00  0.00    -0.276 OA
ATOM      5  N   UNL     1      -2.693 -11.231  13.569  0.00  0.00    -0.309 N 
ATOM     23  C   UNL     1      -3.087 -11.967  14.677  0.00  0.00    +0.217 C 
ATOM     37  H   UNL     1      -2.128 -10.397  13.690  0.00  0.00    +0.149 HD
BRANCH   5  26
ATOM     26  C   UNL     1      -3.115 -11.554  12.226  0.00  0.00    +0.159 C 
BRANCH  26  28
ATOM      8  N   UNL     1      -4.981  -9.998  12.182  0.00  0.00    -0.258 NA
ATOM     28  C   UNL     1      -3.846 -10.413  11.577  0.00  0.00    +0.058 A 
ATOM     30  C   UNL     1      -3.333  -9.852  10.418  0.00  0.00    +0.025 A 
ATOM     32  C   UNL     1      -4.033  -8.797   9.843  0.00  0.00    +0.003 A 
ATOM     33  C   UNL     1      -5.633  -8.970  11.594  0.00  0.00    +0.111 A 
ATOM     34  C   UNL     1      -5.205  -8.341  10.436  0.00  0.00    +0.020 A 
ENDBRANCH  26  28
ENDBRANCH   5  26
ENDBRANCH  20  23
ENDBRANCH  15  20
TORSDOF 7
ENDMDL
MODEL 7
REMARK VINA RESULT:      -6.4      5.002     11.539
REMARK  Name = 45361547
REMARK  10 active torsions:
REMARK  status: ('A' for Active; 'I' for Inactive)
REMARK    1  A    between atoms: O_1  and  C_12
REMARK    2  A    between atoms: N_4  and  C_16
REMARK    3  A    between atoms: N_5  and  C_26
REMARK    4  A    between atoms: C_9  and  C_19
REMARK    5  A    between atoms: C_11  and  C_21
REMARK    6  A    between atoms: C_15  and  C_20
REMARK    7  A    between atoms: C_20  and  C_22
REMARK    8  A    between atoms: C_20  and  C_23
REMARK    9  A    between atoms: C_24  and  C_25
REMARK   10  A    between atoms: C_26  and  C_28
REMARK                            x       y       z     vdW  Elec       q    Type
REMARK                         _______ _______ _______ _____ _____    ______ ____
ROOT
ATOM      9  C   UNL     1      -7.719  -8.491   7.413  0.00  0.00    -0.027 C 
ATOM     10  C   UNL     1      -6.641  -9.312   6.629  0.00  0.00    +0.028 C 
ATOM     11  C   UNL     1      -7.248  -9.916   5.312  0.00  0.00    +0.012 C 
ATOM     12  C   UNL     1      -5.921 -10.329   7.562  0.00  0.00    +0.122 C 
ATOM     13  C   UNL     1      -7.061  -7.818   8.642  0.00  0.00    +0.007 C 
ATOM     14  C   UNL     1      -8.262  -7.370   6.498  0.00  0.00    +0.009 C 
ATOM     15  C   UNL     1      -5.356  -9.668   8.840  0.00  0.00    +0.029 C 
ATOM     16  C   UNL     1      -7.859  -8.788   4.435  0.00  0.00    +0.076 C 
ATOM     17  C   UNL     1      -6.388  -8.815   9.577  0.00  0.00    +0.007 C 
ATOM     18  C   UNL     1      -8.840  -7.893   5.191  0.00  0.00    +0.023 C 
ATOM     19  C   UNL     1      -8.899  -9.370   7.899  0.00  0.00    +0.011 C 
ATOM     21  C   UNL     1      -6.233 -10.714   4.477  0.00  0.00    +0.010 C 
ENDROOT
BRANCH  16   4
ATOM      3  O   UNL     1      -7.472  -7.966   1.711  0.00  0.00    -0.268 OA
ATOM      4  N   UNL     1      -8.530  -9.320   3.267  0.00  0.00    -0.307 N 
ATOM     24  C   UNL     1      -8.274  -8.855   1.989  0.00  0.00    +0.264 C 
ATOM     35  H   UNL     1      -9.254 -10.020   3.405  0.00  0.00    +0.149 HD
BRANCH  24  25
ATOM      6  N   UNL     1      -8.412 -10.368   0.116  0.00  0.00    -0.247 NA
ATOM      7  N   UNL     1     -11.118  -9.745  -0.278  0.00  0.00    -0.259 NA
ATOM     25  C   UNL     1      -9.063  -9.486   0.901  0.00  0.00    +0.143 A 
ATOM     27  C   UNL     1     -10.393  -9.180   0.707  0.00  0.00    +0.143 A 
ATOM     29  C   UNL     1      -9.138 -10.933  -0.869  0.00  0.00    +0.131 A 
ATOM     31  C   UNL     1     -10.467 -10.626  -1.062  0.00  0.00    +0.130 A 
ENDBRANCH  24  25
ENDBRANCH  16   4
BRANCH  12   1
ATOM      1  O   UNL     1      -4.808 -10.902   6.872  0.00  0.00    -0.391 OA
ATOM     36  H   UNL     1      -5.127 -11.251   6.021  0.00  0.00    +0.210 HD
ENDBRANCH  12   1
BRANCH  15  20
ATOM     20  C   UNL     1      -4.765 -10.705   9.803  0.00  0.00    +0.077 C 
ATOM     22  C   UNL     1      -5.832 -11.173  10.786  0.00  0.00    +0.017 C 
BRANCH  20  23
ATOM      2  O   UNL     1      -3.001  -9.084  10.159  0.00  0.00    -0.276 OA
ATOM      5  N   UNL     1      -3.185 -10.864  11.634  0.00  0.00    -0.309 N 
ATOM     23  C   UNL     1      -3.561 -10.113  10.529  0.00  0.00    +0.217 C 
ATOM     37  H   UNL     1      -3.733 -11.673  11.907  0.00  0.00    +0.149 HD
BRANCH   5  26
ATOM     26  C   UNL     1      -2.072 -10.504  12.481  0.00  0.00    +0.159 C 
BRANCH  26  28
ATOM      8  N   UNL     1      -3.733 -10.726  14.240  0.00  0.00    -0.258 NA
ATOM     28  C   UNL     1      -2.421 -10.597  13.939  0.00  0.00    +0.058 A 
ATOM     30  C   UNL     1      -1.408 -10.549  14.883  0.00  0.00    +0.025 A 
ATOM     32  C   UNL     1      -1.765 -10.639  16.224  0.00  0.00    +0.003 A 
ATOM     33  C   UNL     1      -4.040 -10.811  15.554  0.00  0.00    +0.111 A 
ATOM     34  C   UNL     1      -3.104 -10.773  16.575  0.00  0.00    +0.020 A 
ENDBRANCH  26  28
ENDBRANCH   5  26
ENDBRANCH  20  23
ENDBRANCH  15  20
TORSDOF 7
ENDMDL
MODEL 8
REMARK VINA RESULT:      -6.4     18.931     21.327
REMARK  Name = 45361547
REMARK  10 active torsions:
REMARK  status: ('A' for Active; 'I' for Inactive)
REMARK    1  A    between atoms: O_1  and  C_12
REMARK    2  A    between atoms: N_4  and  C_16
REMARK    3  A    between atoms: N_5  and  C_26
REMARK    4  A    between atoms: C_9  and  C_19
REMARK    5  A    between atoms: C_11  and  C_21
REMARK    6  A    between atoms: C_15  and  C_20
REMARK    7  A    between atoms: C_20  and  C_22
REMARK    8  A    between atoms: C_20  and  C_23
REMARK    9  A    between atoms: C_24  and  C_25
REMARK   10  A    between atoms: C_26  and  C_28
REMARK                            x       y       z     vdW  Elec       q    Type
REMARK                         _______ _______ _______ _____ _____    ______ ____
ROOT
ATOM      9  C   UNL     1     -12.751   7.658  20.691  0.00  0.00    -0.027 C 
ATOM     10  C   UNL     1     -13.498   7.819  19.324  0.00  0.00    +0.028 C 
ATOM     11  C   UNL     1     -13.046   9.133  18.592  0.00  0.00    +0.012 C 
ATOM     12  C   UNL     1     -15.034   7.645  19.499  0.00  0.00    +0.122 C 
ATOM     13  C   UNL     1     -13.133   6.302  21.331  0.00  0.00    +0.007 C 
ATOM     14  C   UNL     1     -11.227   7.643  20.433  0.00  0.00    +0.009 C 
ATOM     15  C   UNL     1     -15.405   6.336  20.233  0.00  0.00    +0.029 C 
ATOM     16  C   UNL     1     -11.502   9.141  18.406  0.00  0.00    +0.076 C 
ATOM     17  C   UNL     1     -14.634   6.145  21.539  0.00  0.00    +0.007 C 
ATOM     18  C   UNL     1     -10.732   8.883  19.700  0.00  0.00    +0.023 C 
ATOM     19  C   UNL     1     -13.088   8.793  21.689  0.00  0.00    +0.011 C 
ATOM     21  C   UNL     1     -13.721   9.339  17.226  0.00  0.00    +0.010 C 
ENDROOT
BRANCH  16   4
ATOM      3  O   UNL     1     -10.299   9.508  15.825  0.00  0.00    -0.268 OA
ATOM      4  N   UNL     1     -11.037  10.390  17.838  0.00  0.00    -0.307 N 
ATOM     24  C   UNL     1     -10.468  10.464  16.578  0.00  0.00    +0.264 C 
ATOM     35  H   UNL     1     -11.082  11.227  18.413  0.00  0.00    +0.149 HD
BRANCH  24  25
ATOM      6  N   UNL     1     -10.604  12.324  15.050  0.00  0.00    -0.247 NA
ATOM      7  N   UNL     1      -8.631  13.725  16.467  0.00  0.00    -0.259 NA
ATOM     25  C   UNL     1     -10.018  11.813  16.151  0.00  0.00    +0.143 A 
ATOM     27  C   UNL     1      -9.048  12.502  16.847  0.00  0.00    +0.143 A 
ATOM     29  C   UNL     1     -10.187  13.548  14.670  0.00  0.00    +0.131 A 
ATOM     31  C   UNL     1      -9.218  14.236  15.367  0.00  0.00    +0.130 A 
ENDBRANCH  24  25
ENDBRANCH  16   4
BRANCH  12   1
ATOM      1  O   UNL     1     -15.655   7.583  18.214  0.00  0.00    -0.391 OA
ATOM     36  H   UNL     1     -15.390   8.373  17.712  0.00  0.00    +0.210 HD
ENDBRANCH  12   1
BRANCH  15  20
ATOM     20  C   UNL     1     -16.911   6.247  20.509  0.00  0.00    +0.077 C 
ATOM     22  C   UNL     1     -17.155   5.843  21.959  0.00  0.00    +0.017 C 
BRANCH  20  23
ATOM      2  O   UNL     1     -17.654   4.060  19.781  0.00  0.00    -0.276 OA
ATOM      5  N   UNL     1     -18.017   5.876  18.384  0.00  0.00    -0.309 N 
ATOM     23  C   UNL     1     -17.559   5.261  19.541  0.00  0.00    +0.217 C 
ATOM     37  H   UNL     1     -17.950   6.883  18.285  0.00  0.00    +0.149 HD
BRANCH   5  26
ATOM     26  C   UNL     1     -18.666   5.149  17.318  0.00  0.00    +0.159 C 
BRANCH  26  28
ATOM      8  N   UNL     1     -16.943   6.204  15.968  0.00  0.00    -0.258 NA
ATOM     28  C   UNL     1     -17.921   5.272  16.020  0.00  0.00    +0.058 A 
ATOM     30  C   UNL     1     -18.262   4.444  14.962  0.00  0.00    +0.025 A 
ATOM     32  C   UNL     1     -17.552   4.581  13.774  0.00  0.00    +0.003 A 
ATOM     33  C   UNL     1     -16.276   6.308  14.797  0.00  0.00    +0.111 A 
ATOM     34  C   UNL     1     -16.538   5.529  13.682  0.00  0.00    +0.020 A 
ENDBRANCH  26  28
ENDBRANCH   5  26
ENDBRANCH  20  23
ENDBRANCH  15  20
TORSDOF 7
ENDMDL
MODEL 9
REMARK VINA RESULT:      -6.4     28.908     31.835
REMARK  Name = 45361547
REMARK  10 active torsions:
REMARK  status: ('A' for Active; 'I' for Inactive)
REMARK    1  A    between atoms: O_1  and  C_12
REMARK    2  A    between atoms: N_4  and  C_16
REMARK    3  A    between atoms: N_5  and  C_26
REMARK    4  A    between atoms: C_9  and  C_19
REMARK    5  A    between atoms: C_11  and  C_21
REMARK    6  A    between atoms: C_15  and  C_20
REMARK    7  A    between atoms: C_20  and  C_22
REMARK    8  A    between atoms: C_20  and  C_23
REMARK    9  A    between atoms: C_24  and  C_25
REMARK   10  A    between atoms: C_26  and  C_28
REMARK                            x       y       z     vdW  Elec       q    Type
REMARK                         _______ _______ _______ _____ _____    ______ ____
ROOT
ATOM      9  C   UNL     1      15.928   7.100  19.892  0.00  0.00    -0.027 C 
ATOM     10  C   UNL     1      16.803   8.230  20.533  0.00  0.00    +0.028 C 
ATOM     11  C   UNL     1      18.007   7.618  21.334  0.00  0.00    +0.012 C 
ATOM     12  C   UNL     1      15.923   9.245  21.319  0.00  0.00    +0.122 C 
ATOM     13  C   UNL     1      14.821   7.738  19.019  0.00  0.00    +0.007 C 
ATOM     14  C   UNL     1      16.817   6.238  18.967  0.00  0.00    +0.009 C 
ATOM     15  C   UNL     1      14.755   9.800  20.473  0.00  0.00    +0.029 C 
ATOM     16  C   UNL     1      18.851   6.692  20.413  0.00  0.00    +0.076 C 
ATOM     17  C   UNL     1      13.934   8.703  19.796  0.00  0.00    +0.007 C 
ATOM     18  C   UNL     1      18.019   5.638  19.684  0.00  0.00    +0.023 C 
ATOM     19  C   UNL     1      15.263   6.190  20.954  0.00  0.00    +0.011 C 
ATOM     21  C   UNL     1      18.926   8.675  21.967  0.00  0.00    +0.010 C 
ENDROOT
BRANCH  16   4
ATOM      3  O   UNL     1      21.679   7.064  20.086  0.00  0.00    -0.268 OA
ATOM      4  N   UNL     1      19.903   6.019  21.147  0.00  0.00    -0.307 N 
ATOM     24  C   UNL     1      21.244   6.268  20.915  0.00  0.00    +0.264 C 
ATOM     35  H   UNL     1      19.640   5.298  21.814  0.00  0.00    +0.149 HD
BRANCH  24  25
ATOM      6  N   UNL     1      21.668   4.706  22.703  0.00  0.00    -0.247 NA
ATOM      7  N   UNL     1      24.433   4.823  22.244  0.00  0.00    -0.259 NA
ATOM     25  C   UNL     1      22.199   5.477  21.732  0.00  0.00    +0.143 A 
ATOM     27  C   UNL     1      23.557   5.534  21.507  0.00  0.00    +0.143 A 
ATOM     29  C   UNL     1      22.544   3.994  23.439  0.00  0.00    +0.131 A 
ATOM     31  C   UNL     1      23.902   4.052  23.213  0.00  0.00    +0.130 A 
ENDBRANCH  24  25
ENDBRANCH  16   4
BRANCH  12   1
ATOM      1  O   UNL     1      16.720  10.367  21.703  0.00  0.00    -0.391 OA
ATOM     36  H   UNL     1      17.655  10.101  21.665  0.00  0.00    +0.210 HD
ENDBRANCH  12   1
BRANCH  15  20
ATOM     20  C   UNL     1      13.828  10.696  21.303  0.00  0.00    +0.077 C 
ATOM     22  C   UNL     1      12.689   9.871  21.890  0.00  0.00    +0.017 C 
BRANCH  20  23
ATOM      2  O   UNL     1      13.665  12.020  19.281  0.00  0.00    -0.276 OA
ATOM      5  N   UNL     1      12.374  12.626  21.110  0.00  0.00    -0.309 N 
ATOM     23  C   UNL     1      13.298  11.838  20.439  0.00  0.00    +0.217 C 
ATOM     37  H   UNL     1      12.082  12.377  22.049  0.00  0.00    +0.149 HD
BRANCH   5  26
ATOM     26  C   UNL     1      11.733  13.768  20.500  0.00  0.00    +0.159 C 
BRANCH  26  28
ATOM      8  N   UNL     1       9.586  14.900  20.620  0.00  0.00    -0.258 NA
ATOM     28  C   UNL     1      10.554  14.245  21.299  0.00  0.00    +0.058 A 
ATOM     30  C   UNL     1      10.515  13.996  22.662  0.00  0.00    +0.025 A 
ATOM     32  C   UNL     1       9.409  14.449  23.373  0.00  0.00    +0.003 A 
ATOM     33  C   UNL     1       8.528  15.325  21.345  0.00  0.00    +0.111 A 
ATOM     34  C   UNL     1       8.392  15.127  22.710  0.00  0.00    +0.020 A 
ENDBRANCH  26  28
ENDBRANCH   5  26
ENDBRANCH  20  23
ENDBRANCH  15  20
TORSDOF 7
ENDMDL
MODEL 10
REMARK VINA RESULT:      -6.4      2.770      4.614
REMARK  Name = 45361547
REMARK  10 active torsions:
REMARK  status: ('A' for Active; 'I' for Inactive)
REMARK    1  A    between atoms: O_1  and  C_12
REMARK    2  A    between atoms: N_4  and  C_16
REMARK    3  A    between atoms: N_5  and  C_26
REMARK    4  A    between atoms: C_9  and  C_19
REMARK    5  A    between atoms: C_11  and  C_21
REMARK    6  A    between atoms: C_15  and  C_20
REMARK    7  A    between atoms: C_20  and  C_22
REMARK    8  A    between atoms: C_20  and  C_23
REMARK    9  A    between atoms: C_24  and  C_25
REMARK   10  A    between atoms: C_26  and  C_28
REMARK                            x       y       z     vdW  Elec       q    Type
REMARK                         _______ _______ _______ _____ _____    ______ ____
ROOT
ATOM      9  C   UNL     1      -3.076 -11.065  14.823  0.00  0.00    -0.027 C 
ATOM     10  C   UNL     1      -4.400 -10.461  14.247  0.00  0.00    +0.028 C 
ATOM     11  C   UNL     1      -5.649 -11.010  15.025  0.00  0.00    +0.012 C 
ATOM     12  C   UNL     1      -4.459 -10.608  12.698  0.00  0.00    +0.122 C 
ATOM     13  C   UNL     1      -1.862 -10.419  14.112  0.00  0.00    +0.007 C 
ATOM     14  C   UNL     1      -2.977 -10.721  16.327  0.00  0.00    +0.009 C 
ATOM     15  C   UNL     1      -3.195 -10.054  12.001  0.00  0.00    +0.029 C 
ATOM     16  C   UNL     1      -5.503 -10.726  16.546  0.00  0.00    +0.076 C 
ATOM     17  C   UNL     1      -1.897 -10.595  12.599  0.00  0.00    +0.007 C 
ATOM     18  C   UNL     1      -4.176 -11.206  17.130  0.00  0.00    +0.023 C 
ATOM     19  C   UNL     1      -2.997 -12.602  14.645  0.00  0.00    +0.011 C 
ATOM     21  C   UNL     1      -6.985 -10.435  14.528  0.00  0.00    +0.010 C 
ENDROOT
BRANCH  16   4
ATOM      3  O   UNL     1      -6.358  -9.972  19.182  0.00  0.00    -0.268 OA
ATOM      4  N   UNL     1      -6.582 -11.320  17.309  0.00  0.00    -0.307 N 
ATOM     24  C   UNL     1      -6.919 -10.885  18.578  0.00  0.00    +0.264 C 
ATOM     35  H   UNL     1      -7.066 -12.122  16.914  0.00  0.00    +0.149 HD
BRANCH  24  25
ATOM      6  N   UNL     1      -7.798 -12.902  19.565  0.00  0.00    -0.247 NA
ATOM      7  N   UNL     1     -10.255 -11.658  20.093  0.00  0.00    -0.259 NA
ATOM     25  C   UNL     1      -8.031 -11.615  19.238  0.00  0.00    +0.143 A 
ATOM     27  C   UNL     1      -9.239 -11.004  19.497  0.00  0.00    +0.143 A 
ATOM     29  C   UNL     1      -8.814 -13.555  20.162  0.00  0.00    +0.131 A 
ATOM     31  C   UNL     1     -10.022 -12.944  20.421  0.00  0.00    +0.130 A 
ENDBRANCH  24  25
ENDBRANCH  16   4
BRANCH  12   1
ATOM      1  O   UNL     1      -5.566  -9.861  12.191  0.00  0.00    -0.391 OA
ATOM     36  H   UNL     1      -5.302  -8.927  12.139  0.00  0.00    +0.210 HD
ENDBRANCH  12   1
BRANCH  15  20
ATOM     20  C   UNL     1      -3.215 -10.324  10.491  0.00  0.00    +0.077 C 
ATOM     22  C   UNL     1      -3.732  -9.099   9.746  0.00  0.00    +0.017 C 
BRANCH  20  23
ATOM      2  O   UNL     1      -5.179 -11.485   9.678  0.00  0.00    -0.276 OA
ATOM      5  N   UNL     1      -3.445 -12.736  10.575  0.00  0.00    -0.309 N 
ATOM     23  C   UNL     1      -4.067 -11.555  10.195  0.00  0.00    +0.217 C 
ATOM     37  H   UNL     1      -2.501 -12.715  10.946  0.00  0.00    +0.149 HD
BRANCH   5  26
ATOM     26  C   UNL     1      -4.055 -14.033  10.396  0.00  0.00    +0.159 C 
BRANCH  26  28
ATOM      8  N   UNL     1      -3.800 -15.681  12.163  0.00  0.00    -0.258 NA
ATOM     28  C   UNL     1      -4.506 -14.626  11.701  0.00  0.00    +0.058 A 
ATOM     30  C   UNL     1      -5.598 -14.076  12.353  0.00  0.00    +0.025 A 
ATOM     32  C   UNL     1      -5.989 -14.647  13.559  0.00  0.00    +0.003 A 
ATOM     33  C   UNL     1      -4.210 -16.210  13.337  0.00  0.00    +0.111 A 
ATOM     34  C   UNL     1      -5.287 -15.735  14.068  0.00  0.00    +0.020 A 
ENDBRANCH  26  28
ENDBRANCH   5  26
ENDBRANCH  20  23
ENDBRANCH  15  20
TORSDOF 7
ENDMDL
