REMARK  Name = 25389803
REMARK  9 active torsions:
REMARK  status: ('A' for Active; 'I' for Inactive)
REMARK    1  A    between atoms: O_1  and  C_19
REMARK    2  A    between atoms: O_1  and  C_31
REMARK    3  A    between atoms: O_3  and  C_25
REMARK    4  A    between atoms: O_3  and  C_32
REMARK    5  A    between atoms: N_5  and  C_10
REMARK    6  A    between atoms: N_5  and  C_20
REMARK    7  A    between atoms: C_8  and  C_16
REMARK    8  A    between atoms: C_12  and  C_19
REMARK    9  A    between atoms: C_20  and  C_25
REMARK                            x       y       z     vdW  Elec       q    Type
REMARK                         _______ _______ _______ _____ _____    ______ ____
ROOT
ATOM      4  N   UNL     1      -0.011  -0.596  -0.174  0.00  0.00    -0.274 NA
ATOM      6  N   UNL     1       2.341   2.313   0.166  0.00  0.00    -0.356 N 
ATOM      7  C   UNL     1       0.332   0.743   0.398  0.00  0.00    +0.106 C 
ATOM      8  C   UNL     1      -1.401  -1.001   0.156  0.00  0.00    +0.090 C 
ATOM      9  C   UNL     1      -0.641   1.817  -0.112  0.00  0.00    +0.044 C 
ATOM     10  C   UNL     1      -2.079   1.454   0.255  0.00  0.00    +0.057 C 
ATOM     11  C   UNL     1      -2.417   0.072  -0.303  0.00  0.00    +0.042 C 
ATOM     12  C   UNL     1       1.024  -1.628   0.107  0.00  0.00    +0.172 C 
ATOM     13  C   UNL     1       1.755   1.082   0.067  0.00  0.00    +0.038 A 
ATOM     14  C   UNL     1       2.404  -1.266  -0.497  0.00  0.00    +0.068 C 
ATOM     15  C   UNL     1       2.718   0.178  -0.325  0.00  0.00    -0.016 A 
ATOM     17  C   UNL     1       3.934   0.891  -0.507  0.00  0.00    +0.003 A 
ATOM     18  C   UNL     1       3.670   2.228  -0.194  0.00  0.00    +0.047 A 
ATOM     23  C   UNL     1       5.239   0.534  -0.903  0.00  0.00    +0.010 A 
ATOM     24  C   UNL     1       4.649   3.226  -0.259  0.00  0.00    +0.026 A 
ATOM     26  C   UNL     1       6.226   1.523  -0.975  0.00  0.00    +0.001 A 
ATOM     29  C   UNL     1       5.934   2.848  -0.658  0.00  0.00    +0.002 A 
ATOM     34  H   UNL     1       1.877   3.163   0.456  0.00  0.00    +0.166 HD
ENDROOT
BRANCH   8  16
ATOM     16  C   UNL     1      -1.825  -2.332  -0.459  0.00  0.00    -0.030 A 
ATOM     21  C   UNL     1      -2.701  -3.171   0.230  0.00  0.00    +0.005 A 
ATOM     22  C   UNL     1      -1.337  -2.710  -1.710  0.00  0.00    +0.005 A 
ATOM     27  C   UNL     1      -3.089  -4.387  -0.331  0.00  0.00    +0.000 A 
ATOM     28  C   UNL     1      -1.725  -3.926  -2.271  0.00  0.00    +0.000 A 
ATOM     30  C   UNL     1      -2.601  -4.765  -1.582  0.00  0.00    +0.000 A 
ENDBRANCH   8  16
BRANCH  12  19
ATOM      2  O   UNL     1       0.463  -1.294   2.428  0.00  0.00    -0.249 OA
ATOM     19  C   UNL     1       1.133  -1.875   1.585  0.00  0.00    +0.325 C 
BRANCH  19   1
ATOM      1  O   UNL     1       2.078  -2.830   1.819  0.00  0.00    -0.467 OA
ATOM     31  C   UNL     1       2.285  -3.165   3.195  0.00  0.00    +0.280 C 
ENDBRANCH  19   1
ENDBRANCH  12  19
BRANCH  10   5
ATOM      5  N   UNL     1      -3.000   2.465  -0.262  0.00  0.00    -0.311 NA
ATOM     33  H   UNL     1      -2.589   3.393  -0.161  0.00  0.00    +0.122 HD
BRANCH   5  20
ATOM     20  C   UNL     1      -4.262   2.430   0.461  0.00  0.00    +0.109 C 
BRANCH  20  25
ATOM     25  C   UNL     1      -5.234   3.452  -0.107  0.00  0.00    +0.174 C 
BRANCH  25   3
ATOM      3  O   UNL     1      -6.456   3.371   0.616  0.00  0.00    -0.382 OA
ATOM     32  C   UNL     1      -7.404   4.320   0.146  0.00  0.00    +0.194 C 
ENDBRANCH  25   3
ENDBRANCH  20  25
ENDBRANCH   5  20
ENDBRANCH  10   5
TORSDOF 7
