MODEL 1
REMARK VINA RESULT:      -6.3      0.000      0.000
REMARK  Name = 71693207
REMARK  16 active torsions:
REMARK  status: ('A' for Active; 'I' for Inactive)
REMARK    1  A    between atoms: O_2  and  C_29
REMARK    2  A    between atoms: O_4  and  C_37
REMARK    3  A    between atoms: O_4  and  C_38
REMARK    4  A    between atoms: N_6  and  C_21
REMARK    5  A    between atoms: C_9  and  C_18
REMARK    6  A    between atoms: C_9  and  C_20
REMARK    7  A    between atoms: C_10  and  C_19
REMARK    8  A    between atoms: C_13  and  C_21
REMARK    9  A    between atoms: C_17  and  C_24
REMARK   10  A    between atoms: C_18  and  C_25
REMARK   11  A    between atoms: C_19  and  C_26
REMARK   12  A    between atoms: C_19  and  C_27
REMARK   13  A    between atoms: C_20  and  C_29
REMARK   14  A    between atoms: C_22  and  C_28
REMARK   15  A    between atoms: C_24  and  C_30
REMARK   16  A    between atoms: C_35  and  C_37
REMARK                            x       y       z     vdW  Elec       q    Type
REMARK                         _______ _______ _______ _____ _____    ______ ____
ROOT
ATOM     10  C   UNL     1     -11.752  -9.860  19.097  0.00  0.00    +0.000 C 
ATOM     13  C   UNL     1     -10.545 -10.787  18.807  0.00  0.00    +0.032 C 
ATOM     14  C   UNL     1     -12.602  -9.676  17.831  0.00  0.00    +0.012 C 
ATOM     17  C   UNL     1     -11.793  -9.073  16.667  0.00  0.00    +0.022 C 
ATOM     22  C   UNL     1     -10.458  -9.769  16.491  0.00  0.00    -0.073 C 
ATOM     23  C   UNL     1      -9.923 -10.541  17.454  0.00  0.00    -0.022 C 
ATOM     28  C   UNL     1      -9.773  -9.592  15.165  0.00  0.00    +0.039 C 
ENDROOT
BRANCH  10  19
ATOM     19  C   UNL     1     -12.625 -10.402  20.233  0.00  0.00    -0.013 C 
ATOM     26  C   UNL     1     -13.026 -11.846  19.955  0.00  0.00    +0.007 C 
ATOM     27  C   UNL     1     -13.859  -9.525  20.420  0.00  0.00    +0.007 C 
ENDBRANCH  10  19
BRANCH  13  21
ATOM     21  C   UNL     1      -9.472 -10.654  19.895  0.00  0.00    +0.112 C 
BRANCH  21   6
ATOM      1  O   UNL     1      -6.953 -12.009  20.325  0.00  0.00    -0.276 OA
ATOM      6  N   UNL     1      -8.205 -10.326  19.320  0.00  0.00    -0.315 N 
ATOM     25  C   UNL     1      -7.031 -11.036  19.581  0.00  0.00    +0.214 C 
ATOM     39  H   UNL     1      -8.169  -9.570  18.642  0.00  0.00    +0.149 HD
BRANCH  25  18
ATOM     18  C   UNL     1      -5.841 -10.464  18.832  0.00  0.00    +0.103 C 
BRANCH  18   9
ATOM      9  C   UNL     1      -5.493 -11.272  17.574  0.00  0.00    -0.011 C 
ATOM     11  C   UNL     1      -4.740 -10.392  16.551  0.00  0.00    +0.008 C 
ATOM     12  C   UNL     1      -6.784 -11.723  16.850  0.00  0.00    +0.008 C 
ATOM     15  C   UNL     1      -5.775 -10.039  15.492  0.00  0.00    +0.001 C 
ATOM     16  C   UNL     1      -6.608 -11.303  15.396  0.00  0.00    +0.001 C 
BRANCH   9  20
ATOM     20  C   UNL     1      -4.638 -12.480  17.976  0.00  0.00    +0.127 C 
BRANCH  20  29
ATOM      3  O   UNL     1      -3.479 -12.223  20.105  0.00  0.00    -0.251 OA
ATOM     29  C   UNL     1      -3.521 -12.078  18.893  0.00  0.00    +0.305 C 
BRANCH  29   2
ATOM      2  O   UNL     1      -2.525 -11.508  18.167  0.00  0.00    -0.481 OA
ATOM     41  H   UNL     1      -2.871 -11.017  17.392  0.00  0.00    +0.295 HD
ENDBRANCH  29   2
ENDBRANCH  20  29
ENDBRANCH   9  20
ENDBRANCH  18   9
ENDBRANCH  25  18
ENDBRANCH  21   6
ENDBRANCH  13  21
BRANCH  17  24
ATOM     24  C   UNL     1     -11.605  -7.563  16.849  0.00  0.00    +0.082 C 
BRANCH  24  30
ATOM      7  N   UNL     1     -11.593  -6.063  14.847  0.00  0.00    -0.342 N 
ATOM      8  N   UNL     1     -13.596  -6.707  15.566  0.00  0.00    -0.232 NA
ATOM     30  C   UNL     1     -12.300  -6.789  15.766  0.00  0.00    +0.109 A 
ATOM     31  C   UNL     1     -12.493  -5.474  13.998  0.00  0.00    +0.067 A 
ATOM     32  C   UNL     1     -13.737  -5.892  14.466  0.00  0.00    +0.089 A 
ATOM     33  C   UNL     1     -12.332  -4.638  12.892  0.00  0.00    +0.042 A 
ATOM     34  C   UNL     1     -14.898  -5.459  13.805  0.00  0.00    +0.030 A 
ATOM     35  C   UNL     1     -13.500  -4.216  12.246  0.00  0.00    +0.061 A 
ATOM     36  C   UNL     1     -14.761  -4.619  12.693  0.00  0.00    +0.017 A 
ATOM     40  H   UNL     1     -10.586  -5.975  14.801  0.00  0.00    +0.167 HD
BRANCH  35  37
ATOM      5  O   UNL     1     -14.331  -2.674  10.630  0.00  0.00    -0.245 OA
ATOM     37  C   UNL     1     -13.396  -3.344  11.087  0.00  0.00    +0.339 C 
BRANCH  37   4
ATOM      4  O   UNL     1     -12.132  -3.352  10.563  0.00  0.00    -0.464 OA
ATOM     38  C   UNL     1     -12.014  -3.637   9.165  0.00  0.00    +0.280 C 
ENDBRANCH  37   4
ENDBRANCH  35  37
ENDBRANCH  24  30
ENDBRANCH  17  24
TORSDOF 12
ENDMDL
MODEL 2
REMARK VINA RESULT:      -6.3     27.128     29.846
REMARK  Name = 71693207
REMARK  16 active torsions:
REMARK  status: ('A' for Active; 'I' for Inactive)
REMARK    1  A    between atoms: O_2  and  C_29
REMARK    2  A    between atoms: O_4  and  C_37
REMARK    3  A    between atoms: O_4  and  C_38
REMARK    4  A    between atoms: N_6  and  C_21
REMARK    5  A    between atoms: C_9  and  C_18
REMARK    6  A    between atoms: C_9  and  C_20
REMARK    7  A    between atoms: C_10  and  C_19
REMARK    8  A    between atoms: C_13  and  C_21
REMARK    9  A    between atoms: C_17  and  C_24
REMARK   10  A    between atoms: C_18  and  C_25
REMARK   11  A    between atoms: C_19  and  C_26
REMARK   12  A    between atoms: C_19  and  C_27
REMARK   13  A    between atoms: C_20  and  C_29
REMARK   14  A    between atoms: C_22  and  C_28
REMARK   15  A    between atoms: C_24  and  C_30
REMARK   16  A    between atoms: C_35  and  C_37
REMARK                            x       y       z     vdW  Elec       q    Type
REMARK                         _______ _______ _______ _____ _____    ______ ____
ROOT
ATOM     10  C   UNL     1       8.473   8.811   4.914  0.00  0.00    +0.000 C 
ATOM     13  C   UNL     1       8.291   8.090   6.274  0.00  0.00    +0.032 C 
ATOM     14  C   UNL     1       8.236   7.833   3.753  0.00  0.00    +0.012 C 
ATOM     17  C   UNL     1       9.196   6.629   3.799  0.00  0.00    +0.022 C 
ATOM     22  C   UNL     1       9.274   6.026   5.188  0.00  0.00    -0.073 C 
ATOM     23  C   UNL     1       8.853   6.689   6.279  0.00  0.00    -0.022 C 
ATOM     28  C   UNL     1       9.808   4.624   5.287  0.00  0.00    +0.039 C 
ENDROOT
BRANCH  10  19
ATOM     19  C   UNL     1       7.535  10.014   4.778  0.00  0.00    -0.013 C 
ATOM     26  C   UNL     1       6.526   9.780   3.659  0.00  0.00    +0.007 C 
ATOM     27  C   UNL     1       8.336  11.287   4.526  0.00  0.00    +0.007 C 
ENDBRANCH  10  19
BRANCH  13  21
ATOM     21  C   UNL     1       8.919   8.897   7.416  0.00  0.00    +0.112 C 
BRANCH  21   6
ATOM      1  O   UNL     1      10.987  10.847   6.876  0.00  0.00    -0.276 OA
ATOM      6  N   UNL     1      10.333   8.693   7.463  0.00  0.00    -0.315 N 
ATOM     25  C   UNL     1      11.268   9.693   7.187  0.00  0.00    +0.214 C 
ATOM     39  H   UNL     1      10.674   7.787   7.769  0.00  0.00    +0.149 HD
BRANCH  25  18
ATOM     18  C   UNL     1      12.694   9.191   7.318  0.00  0.00    +0.103 C 
BRANCH  18   9
ATOM      9  C   UNL     1      13.255   8.658   5.992  0.00  0.00    -0.011 C 
ATOM     11  C   UNL     1      14.791   8.816   5.946  0.00  0.00    +0.008 C 
ATOM     12  C   UNL     1      12.725   9.500   4.806  0.00  0.00    +0.008 C 
ATOM     15  C   UNL     1      15.042  10.021   5.051  0.00  0.00    +0.001 C 
ATOM     16  C   UNL     1      13.955   9.894   3.999  0.00  0.00    +0.001 C 
BRANCH   9  20
ATOM     20  C   UNL     1      12.861   7.184   5.838  0.00  0.00    +0.127 C 
BRANCH  20  29
ATOM      3  O   UNL     1      11.910   6.251   7.880  0.00  0.00    -0.251 OA
ATOM     29  C   UNL     1      12.871   6.476   7.160  0.00  0.00    +0.305 C 
BRANCH  29   2
ATOM      2  O   UNL     1      14.142   6.104   7.463  0.00  0.00    -0.481 OA
ATOM     41  H   UNL     1      14.460   6.522   8.292  0.00  0.00    +0.295 HD
ENDBRANCH  29   2
ENDBRANCH  20  29
ENDBRANCH   9  20
ENDBRANCH  18   9
ENDBRANCH  25  18
ENDBRANCH  21   6
ENDBRANCH  13  21
BRANCH  17  24
ATOM     24  C   UNL     1      10.588   7.013   3.288  0.00  0.00    +0.082 C 
BRANCH  24  30
ATOM      7  N   UNL     1      10.291   5.708   1.175  0.00  0.00    -0.342 N 
ATOM      8  N   UNL     1      12.240   5.446   2.211  0.00  0.00    -0.232 NA
ATOM     30  C   UNL     1      11.074   6.051   2.242  0.00  0.00    +0.109 A 
ATOM     31  C   UNL     1      11.000   4.824   0.403  0.00  0.00    +0.067 A 
ATOM     32  C   UNL     1      12.213   4.677   1.071  0.00  0.00    +0.089 A 
ATOM     33  C   UNL     1      10.693   4.160  -0.786  0.00  0.00    +0.042 A 
ATOM     34  C   UNL     1      13.189   3.820   0.536  0.00  0.00    +0.030 A 
ATOM     35  C   UNL     1      11.677   3.311  -1.304  0.00  0.00    +0.061 A 
ATOM     36  C   UNL     1      12.904   3.143  -0.657  0.00  0.00    +0.017 A 
ATOM     40  H   UNL     1       9.356   6.046   0.985  0.00  0.00    +0.167 HD
BRANCH  35  37
ATOM      5  O   UNL     1      10.302   2.177  -2.887  0.00  0.00    -0.245 OA
ATOM     37  C   UNL     1      11.416   2.592  -2.542  0.00  0.00    +0.339 C 
BRANCH  37   4
ATOM      4  O   UNL     1      12.556   2.432  -3.280  0.00  0.00    -0.464 OA
ATOM     38  C   UNL     1      12.556   2.993  -4.597  0.00  0.00    +0.280 C 
ENDBRANCH  37   4
ENDBRANCH  35  37
ENDBRANCH  24  30
ENDBRANCH  17  24
TORSDOF 12
ENDMDL
MODEL 3
REMARK VINA RESULT:      -6.3      3.440      5.559
REMARK  Name = 71693207
REMARK  16 active torsions:
REMARK  status: ('A' for Active; 'I' for Inactive)
REMARK    1  A    between atoms: O_2  and  C_29
REMARK    2  A    between atoms: O_4  and  C_37
REMARK    3  A    between atoms: O_4  and  C_38
REMARK    4  A    between atoms: N_6  and  C_21
REMARK    5  A    between atoms: C_9  and  C_18
REMARK    6  A    between atoms: C_9  and  C_20
REMARK    7  A    between atoms: C_10  and  C_19
REMARK    8  A    between atoms: C_13  and  C_21
REMARK    9  A    between atoms: C_17  and  C_24
REMARK   10  A    between atoms: C_18  and  C_25
REMARK   11  A    between atoms: C_19  and  C_26
REMARK   12  A    between atoms: C_19  and  C_27
REMARK   13  A    between atoms: C_20  and  C_29
REMARK   14  A    between atoms: C_22  and  C_28
REMARK   15  A    between atoms: C_24  and  C_30
REMARK   16  A    between atoms: C_35  and  C_37
REMARK                            x       y       z     vdW  Elec       q    Type
REMARK                         _______ _______ _______ _____ _____    ______ ____
ROOT
ATOM     10  C   UNL     1      -5.747 -10.694  17.806  0.00  0.00    +0.000 C 
ATOM     13  C   UNL     1      -5.100 -11.092  16.456  0.00  0.00    +0.032 C 
ATOM     14  C   UNL     1      -7.261 -10.956  17.773  0.00  0.00    +0.012 C 
ATOM     17  C   UNL     1      -7.963 -10.175  16.647  0.00  0.00    +0.022 C 
ATOM     22  C   UNL     1      -7.225 -10.303  15.329  0.00  0.00    -0.073 C 
ATOM     23  C   UNL     1      -5.951 -10.726  15.263  0.00  0.00    -0.022 C 
ATOM     28  C   UNL     1      -8.002  -9.974  14.084  0.00  0.00    +0.039 C 
ENDROOT
BRANCH  10  19
ATOM     19  C   UNL     1      -5.116 -11.445  18.982  0.00  0.00    -0.013 C 
ATOM     26  C   UNL     1      -4.799 -12.884  18.587  0.00  0.00    +0.007 C 
ATOM     27  C   UNL     1      -6.042 -11.410  20.194  0.00  0.00    +0.007 C 
ENDBRANCH  10  19
BRANCH  13  21
ATOM     21  C   UNL     1      -3.709 -10.466  16.303  0.00  0.00    +0.112 C 
BRANCH  21   6
ATOM      1  O   UNL     1      -1.826 -11.866  14.611  0.00  0.00    -0.276 OA
ATOM      6  N   UNL     1      -3.420 -10.201  14.928  0.00  0.00    -0.315 N 
ATOM     25  C   UNL     1      -2.492 -10.929  14.180  0.00  0.00    +0.214 C 
ATOM     39  H   UNL     1      -3.959  -9.481  14.457  0.00  0.00    +0.149 HD
BRANCH  25  18
ATOM     18  C   UNL     1      -2.394 -10.428  12.751  0.00  0.00    +0.103 C 
BRANCH  18   9
ATOM      9  C   UNL     1      -3.593 -10.854  11.893  0.00  0.00    -0.011 C 
ATOM     11  C   UNL     1      -3.223 -10.847  10.393  0.00  0.00    +0.008 C 
ATOM     12  C   UNL     1      -4.745  -9.829  12.031  0.00  0.00    +0.008 C 
ATOM     15  C   UNL     1      -3.846  -9.575   9.834  0.00  0.00    +0.001 C 
ATOM     16  C   UNL     1      -5.148  -9.468  10.607  0.00  0.00    +0.001 C 
BRANCH   9  20
ATOM     20  C   UNL     1      -4.048 -12.252  12.328  0.00  0.00    +0.127 C 
BRANCH  20  29
ATOM      3  O   UNL     1      -3.786 -13.794  10.457  0.00  0.00    -0.251 OA
ATOM     29  C   UNL     1      -3.385 -13.321  11.509  0.00  0.00    +0.305 C 
BRANCH  29   2
ATOM      2  O   UNL     1      -2.234 -13.706  12.119  0.00  0.00    -0.481 OA
ATOM     41  H   UNL     1      -2.406 -14.186  12.958  0.00  0.00    +0.295 HD
ENDBRANCH  29   2
ENDBRANCH  20  29
ENDBRANCH   9  20
ENDBRANCH  18   9
ENDBRANCH  25  18
ENDBRANCH  21   6
ENDBRANCH  13  21
BRANCH  17  24
ATOM     24  C   UNL     1      -8.152  -8.703  17.029  0.00  0.00    +0.082 C 
BRANCH  24  30
ATOM      7  N   UNL     1      -9.585  -7.112  15.736  0.00  0.00    -0.342 N 
ATOM      8  N   UNL     1     -10.668  -8.661  16.907  0.00  0.00    -0.232 NA
ATOM     30  C   UNL     1      -9.488  -8.186  16.578  0.00  0.00    +0.109 A 
ATOM     31  C   UNL     1     -10.917  -6.879  15.508  0.00  0.00    +0.067 A 
ATOM     32  C   UNL     1     -11.572  -7.860  16.249  0.00  0.00    +0.089 A 
ATOM     33  C   UNL     1     -11.585  -5.926  14.738  0.00  0.00    +0.042 A 
ATOM     34  C   UNL     1     -12.976  -7.905  16.234  0.00  0.00    +0.030 A 
ATOM     35  C   UNL     1     -12.982  -5.986  14.736  0.00  0.00    +0.061 A 
ATOM     36  C   UNL     1     -13.668  -6.957  15.469  0.00  0.00    +0.017 A 
ATOM     40  H   UNL     1      -8.814  -6.583  15.350  0.00  0.00    +0.167 HD
BRANCH  35  37
ATOM      5  O   UNL     1     -13.254  -3.983  13.471  0.00  0.00    -0.245 OA
ATOM     37  C   UNL     1     -13.735  -5.017  13.952  0.00  0.00    +0.339 C 
BRANCH  37   4
ATOM      4  O   UNL     1     -15.042  -5.392  13.811  0.00  0.00    -0.464 OA
ATOM     38  C   UNL     1     -15.522  -5.571  12.474  0.00  0.00    +0.280 C 
ENDBRANCH  37   4
ENDBRANCH  35  37
ENDBRANCH  24  30
ENDBRANCH  17  24
TORSDOF 12
ENDMDL
MODEL 4
REMARK VINA RESULT:      -6.3      5.166      8.264
REMARK  Name = 71693207
REMARK  16 active torsions:
REMARK  status: ('A' for Active; 'I' for Inactive)
REMARK    1  A    between atoms: O_2  and  C_29
REMARK    2  A    between atoms: O_4  and  C_37
REMARK    3  A    between atoms: O_4  and  C_38
REMARK    4  A    between atoms: N_6  and  C_21
REMARK    5  A    between atoms: C_9  and  C_18
REMARK    6  A    between atoms: C_9  and  C_20
REMARK    7  A    between atoms: C_10  and  C_19
REMARK    8  A    between atoms: C_13  and  C_21
REMARK    9  A    between atoms: C_17  and  C_24
REMARK   10  A    between atoms: C_18  and  C_25
REMARK   11  A    between atoms: C_19  and  C_26
REMARK   12  A    between atoms: C_19  and  C_27
REMARK   13  A    between atoms: C_20  and  C_29
REMARK   14  A    between atoms: C_22  and  C_28
REMARK   15  A    between atoms: C_24  and  C_30
REMARK   16  A    between atoms: C_35  and  C_37
REMARK                            x       y       z     vdW  Elec       q    Type
REMARK                         _______ _______ _______ _____ _____    ______ ____
ROOT
ATOM     10  C   UNL     1      -3.177 -12.357  13.510  0.00  0.00    +0.000 C 
ATOM     13  C   UNL     1      -1.855 -11.594  13.779  0.00  0.00    +0.032 C 
ATOM     14  C   UNL     1      -3.387 -12.549  12.000  0.00  0.00    +0.012 C 
ATOM     17  C   UNL     1      -3.435 -11.208  11.243  0.00  0.00    +0.022 C 
ATOM     22  C   UNL     1      -2.305 -10.287  11.658  0.00  0.00    -0.073 C 
ATOM     23  C   UNL     1      -1.603 -10.483  12.787  0.00  0.00    -0.022 C 
ATOM     28  C   UNL     1      -1.972  -9.160  10.720  0.00  0.00    +0.039 C 
ENDROOT
BRANCH  10  19
ATOM     19  C   UNL     1      -3.201 -13.718  14.213  0.00  0.00    -0.013 C 
ATOM     26  C   UNL     1      -1.929 -14.500  13.905  0.00  0.00    +0.007 C 
ATOM     27  C   UNL     1      -4.437 -14.510  13.796  0.00  0.00    +0.007 C 
ENDBRANCH  10  19
BRANCH  13  21
ATOM     21  C   UNL     1      -1.826 -11.026  15.202  0.00  0.00    +0.112 C 
BRANCH  21   6
ATOM      1  O   UNL     1      -3.463 -11.416  17.555  0.00  0.00    -0.276 OA
ATOM      6  N   UNL     1      -3.060 -10.375  15.515  0.00  0.00    -0.315 N 
ATOM     25  C   UNL     1      -3.791 -10.622  16.678  0.00  0.00    +0.214 C 
ATOM     39  H   UNL     1      -3.393  -9.655  14.881  0.00  0.00    +0.149 HD
BRANCH  25  18
ATOM     18  C   UNL     1      -5.057  -9.788  16.744  0.00  0.00    +0.103 C 
BRANCH  18   9
ATOM      9  C   UNL     1      -6.331 -10.643  16.697  0.00  0.00    -0.011 C 
ATOM     11  C   UNL     1      -6.148 -11.845  15.744  0.00  0.00    +0.008 C 
ATOM     12  C   UNL     1      -7.505  -9.828  16.103  0.00  0.00    +0.008 C 
ATOM     15  C   UNL     1      -6.896 -11.463  14.474  0.00  0.00    +0.001 C 
ATOM     16  C   UNL     1      -8.097 -10.701  15.004  0.00  0.00    +0.001 C 
BRANCH   9  20
ATOM     20  C   UNL     1      -6.660 -11.127  18.115  0.00  0.00    +0.127 C 
BRANCH  20  29
ATOM      3  O   UNL     1      -7.825 -13.261  17.936  0.00  0.00    -0.251 OA
ATOM     29  C   UNL     1      -6.811 -12.619  18.161  0.00  0.00    +0.305 C 
BRANCH  29   2
ATOM      2  O   UNL     1      -5.622 -13.181  18.500  0.00  0.00    -0.481 OA
ATOM     41  H   UNL     1      -5.360 -13.891  17.875  0.00  0.00    +0.295 HD
ENDBRANCH  29   2
ENDBRANCH  20  29
ENDBRANCH   9  20
ENDBRANCH  18   9
ENDBRANCH  25  18
ENDBRANCH  21   6
ENDBRANCH  13  21
BRANCH  17  24
ATOM     24  C   UNL     1      -4.795 -10.523  11.419  0.00  0.00    +0.082 C 
BRANCH  24  30
ATOM      7  N   UNL     1      -6.366  -9.166  10.024  0.00  0.00    -0.342 N 
ATOM      8  N   UNL     1      -5.031 -10.552   8.912  0.00  0.00    -0.232 NA
ATOM     30  C   UNL     1      -5.374 -10.104  10.099  0.00  0.00    +0.109 A 
ATOM     31  C   UNL     1      -6.684  -8.997   8.702  0.00  0.00    +0.067 A 
ATOM     32  C   UNL     1      -5.836  -9.872   8.027  0.00  0.00    +0.089 A 
ATOM     33  C   UNL     1      -7.611  -8.177   8.056  0.00  0.00    +0.042 A 
ATOM     34  C   UNL     1      -5.905  -9.949   6.626  0.00  0.00    +0.030 A 
ATOM     35  C   UNL     1      -7.665  -8.267   6.661  0.00  0.00    +0.061 A 
ATOM     36  C   UNL     1      -6.828  -9.136   5.957  0.00  0.00    +0.017 A 
ATOM     40  H   UNL     1      -6.791  -8.680  10.804  0.00  0.00    +0.167 HD
BRANCH  35  37
ATOM      5  O   UNL     1      -8.692  -7.387   4.697  0.00  0.00    -0.245 OA
ATOM     37  C   UNL     1      -8.612  -7.437   5.931  0.00  0.00    +0.339 C 
BRANCH  37   4
ATOM      4  O   UNL     1      -9.408  -6.717   6.780  0.00  0.00    -0.464 OA
ATOM     38  C   UNL     1     -10.819  -6.928   6.677  0.00  0.00    +0.280 C 
ENDBRANCH  37   4
ENDBRANCH  35  37
ENDBRANCH  24  30
ENDBRANCH  17  24
TORSDOF 12
ENDMDL
MODEL 5
REMARK VINA RESULT:      -6.2      5.527      8.268
REMARK  Name = 71693207
REMARK  16 active torsions:
REMARK  status: ('A' for Active; 'I' for Inactive)
REMARK    1  A    between atoms: O_2  and  C_29
REMARK    2  A    between atoms: O_4  and  C_37
REMARK    3  A    between atoms: O_4  and  C_38
REMARK    4  A    between atoms: N_6  and  C_21
REMARK    5  A    between atoms: C_9  and  C_18
REMARK    6  A    between atoms: C_9  and  C_20
REMARK    7  A    between atoms: C_10  and  C_19
REMARK    8  A    between atoms: C_13  and  C_21
REMARK    9  A    between atoms: C_17  and  C_24
REMARK   10  A    between atoms: C_18  and  C_25
REMARK   11  A    between atoms: C_19  and  C_26
REMARK   12  A    between atoms: C_19  and  C_27
REMARK   13  A    between atoms: C_20  and  C_29
REMARK   14  A    between atoms: C_22  and  C_28
REMARK   15  A    between atoms: C_24  and  C_30
REMARK   16  A    between atoms: C_35  and  C_37
REMARK                            x       y       z     vdW  Elec       q    Type
REMARK                         _______ _______ _______ _____ _____    ______ ____
ROOT
ATOM     10  C   UNL     1      -3.452 -12.251  12.922  0.00  0.00    +0.000 C 
ATOM     13  C   UNL     1      -2.157 -11.399  12.925  0.00  0.00    +0.032 C 
ATOM     14  C   UNL     1      -3.943 -12.473  11.483  0.00  0.00    +0.012 C 
ATOM     17  C   UNL     1      -4.230 -11.147  10.754  0.00  0.00    +0.022 C 
ATOM     22  C   UNL     1      -3.105 -10.149  10.938  0.00  0.00    -0.073 C 
ATOM     23  C   UNL     1      -2.181 -10.285  11.906  0.00  0.00    -0.022 C 
ATOM     28  C   UNL     1      -3.040  -9.013   9.956  0.00  0.00    +0.039 C 
ENDROOT
BRANCH  10  19
ATOM     19  C   UNL     1      -3.245 -13.602  13.613  0.00  0.00    -0.013 C 
ATOM     26  C   UNL     1      -1.981 -14.279  13.094  0.00  0.00    +0.007 C 
ATOM     27  C   UNL     1      -4.462 -14.498  13.405  0.00  0.00    +0.007 C 
ENDBRANCH  10  19
BRANCH  13  21
ATOM     21  C   UNL     1      -1.884 -10.814  14.316  0.00  0.00    +0.112 C 
BRANCH  21   6
ATOM      1  O   UNL     1      -2.546 -11.071  17.120  0.00  0.00    -0.276 OA
ATOM      6  N   UNL     1      -3.106 -10.434  14.955  0.00  0.00    -0.315 N 
ATOM     25  C   UNL     1      -3.345 -10.593  16.321  0.00  0.00    +0.214 C 
ATOM     39  H   UNL     1      -3.815  -9.972  14.392  0.00  0.00    +0.149 HD
BRANCH  25  18
ATOM     18  C   UNL     1      -4.725 -10.100  16.719  0.00  0.00    +0.103 C 
BRANCH  18   9
ATOM      9  C   UNL     1      -5.594 -11.209  17.328  0.00  0.00    -0.011 C 
ATOM     11  C   UNL     1      -5.415 -12.532  16.553  0.00  0.00    +0.008 C 
ATOM     12  C   UNL     1      -7.094 -10.855  17.186  0.00  0.00    +0.008 C 
ATOM     15  C   UNL     1      -6.657 -12.656  15.682  0.00  0.00    +0.001 C 
ATOM     16  C   UNL     1      -7.749 -12.082  16.565  0.00  0.00    +0.001 C 
BRANCH   9  20
ATOM     20  C   UNL     1      -5.210 -11.392  18.802  0.00  0.00    +0.127 C 
BRANCH  20  29
ATOM      3  O   UNL     1      -7.170 -12.068  20.084  0.00  0.00    -0.251 OA
ATOM     29  C   UNL     1      -6.395 -11.205  19.702  0.00  0.00    +0.305 C 
BRANCH  29   2
ATOM      2  O   UNL     1      -6.496  -9.895  20.048  0.00  0.00    -0.481 OA
ATOM     41  H   UNL     1      -6.664  -9.322  19.270  0.00  0.00    +0.295 HD
ENDBRANCH  29   2
ENDBRANCH  20  29
ENDBRANCH   9  20
ENDBRANCH  18   9
ENDBRANCH  25  18
ENDBRANCH  21   6
ENDBRANCH  13  21
BRANCH  17  24
ATOM     24  C   UNL     1      -5.571 -10.551  11.198  0.00  0.00    +0.082 C 
BRANCH  24  30
ATOM      7  N   UNL     1      -6.179 -10.226   8.793  0.00  0.00    -0.342 N 
ATOM      8  N   UNL     1      -6.887  -8.653  10.195  0.00  0.00    -0.232 NA
ATOM     30  C   UNL     1      -6.225  -9.782  10.086  0.00  0.00    +0.109 A 
ATOM     31  C   UNL     1      -6.858  -9.323   8.017  0.00  0.00    +0.067 A 
ATOM     32  C   UNL     1      -7.291  -8.350   8.915  0.00  0.00    +0.089 A 
ATOM     33  C   UNL     1      -7.123  -9.274   6.648  0.00  0.00    +0.042 A 
ATOM     34  C   UNL     1      -8.032  -7.257   8.436  0.00  0.00    +0.030 A 
ATOM     35  C   UNL     1      -7.862  -8.178   6.189  0.00  0.00    +0.061 A 
ATOM     36  C   UNL     1      -8.310  -7.187   7.065  0.00  0.00    +0.017 A 
ATOM     40  H   UNL     1      -5.728 -11.070   8.466  0.00  0.00    +0.167 HD
BRANCH  35  37
ATOM      5  O   UNL     1      -8.977  -7.267   4.289  0.00  0.00    -0.245 OA
ATOM     37  C   UNL     1      -8.170  -8.073   4.770  0.00  0.00    +0.339 C 
BRANCH  37   4
ATOM      4  O   UNL     1      -7.455  -8.975   4.032  0.00  0.00    -0.464 OA
ATOM     38  C   UNL     1      -8.185  -9.750   3.075  0.00  0.00    +0.280 C 
ENDBRANCH  37   4
ENDBRANCH  35  37
ENDBRANCH  24  30
ENDBRANCH  17  24
TORSDOF 12
ENDMDL
MODEL 6
REMARK VINA RESULT:      -6.2      4.118      8.150
REMARK  Name = 71693207
REMARK  16 active torsions:
REMARK  status: ('A' for Active; 'I' for Inactive)
REMARK    1  A    between atoms: O_2  and  C_29
REMARK    2  A    between atoms: O_4  and  C_37
REMARK    3  A    between atoms: O_4  and  C_38
REMARK    4  A    between atoms: N_6  and  C_21
REMARK    5  A    between atoms: C_9  and  C_18
REMARK    6  A    between atoms: C_9  and  C_20
REMARK    7  A    between atoms: C_10  and  C_19
REMARK    8  A    between atoms: C_13  and  C_21
REMARK    9  A    between atoms: C_17  and  C_24
REMARK   10  A    between atoms: C_18  and  C_25
REMARK   11  A    between atoms: C_19  and  C_26
REMARK   12  A    between atoms: C_19  and  C_27
REMARK   13  A    between atoms: C_20  and  C_29
REMARK   14  A    between atoms: C_22  and  C_28
REMARK   15  A    between atoms: C_24  and  C_30
REMARK   16  A    between atoms: C_35  and  C_37
REMARK                            x       y       z     vdW  Elec       q    Type
REMARK                         _______ _______ _______ _____ _____    ______ ____
ROOT
ATOM     10  C   UNL     1      -7.732 -12.190  17.091  0.00  0.00    +0.000 C 
ATOM     13  C   UNL     1      -7.797 -12.517  18.604  0.00  0.00    +0.032 C 
ATOM     14  C   UNL     1      -6.396 -12.662  16.497  0.00  0.00    +0.012 C 
ATOM     17  C   UNL     1      -5.186 -12.007  17.189  0.00  0.00    +0.022 C 
ATOM     22  C   UNL     1      -5.310 -12.053  18.699  0.00  0.00    -0.073 C 
ATOM     23  C   UNL     1      -6.482 -12.295  19.313  0.00  0.00    -0.022 C 
ATOM     28  C   UNL     1      -4.045 -11.857  19.488  0.00  0.00    +0.039 C 
ENDROOT
BRANCH  10  19
ATOM     19  C   UNL     1      -8.894 -12.825  16.322  0.00  0.00    -0.013 C 
ATOM     26  C   UNL     1      -9.121 -14.259  16.788  0.00  0.00    +0.007 C 
ATOM     27  C   UNL     1      -8.626 -12.781  14.821  0.00  0.00    +0.007 C 
ENDBRANCH  10  19
BRANCH  13  21
ATOM     21  C   UNL     1      -8.896 -11.705  19.299  0.00  0.00    +0.112 C 
BRANCH  21   6
ATOM      1  O   UNL     1     -11.324 -10.230  18.753  0.00  0.00    -0.276 OA
ATOM      6  N   UNL     1      -9.004 -10.401  18.722  0.00  0.00    -0.315 N 
ATOM     25  C   UNL     1     -10.221  -9.757  18.491  0.00  0.00    +0.214 C 
ATOM     39  H   UNL     1      -8.147  -9.895  18.521  0.00  0.00    +0.149 HD
BRANCH  25  18
ATOM     18  C   UNL     1     -10.031  -8.384  17.872  0.00  0.00    +0.103 C 
BRANCH  18   9
ATOM      9  C   UNL     1     -10.672  -8.271  16.481  0.00  0.00    -0.011 C 
ATOM     11  C   UNL     1     -10.164  -7.010  15.747  0.00  0.00    +0.008 C 
ATOM     12  C   UNL     1     -12.202  -8.078  16.609  0.00  0.00    +0.008 C 
ATOM     15  C   UNL     1     -11.297  -6.000  15.859  0.00  0.00    +0.001 C 
ATOM     16  C   UNL     1     -12.537  -6.867  15.746  0.00  0.00    +0.001 C 
BRANCH   9  20
ATOM     20  C   UNL     1     -10.343  -9.533  15.674  0.00  0.00    +0.127 C 
BRANCH  20  29
ATOM      3  O   UNL     1      -9.315  -9.156  13.496  0.00  0.00    -0.251 OA
ATOM     29  C   UNL     1      -9.223  -9.285  14.707  0.00  0.00    +0.305 C 
BRANCH  29   2
ATOM      2  O   UNL     1      -8.048  -9.223  15.385  0.00  0.00    -0.481 OA
ATOM     41  H   UNL     1      -7.870 -10.046  15.888  0.00  0.00    +0.295 HD
ENDBRANCH  29   2
ENDBRANCH  20  29
ENDBRANCH   9  20
ENDBRANCH  18   9
ENDBRANCH  25  18
ENDBRANCH  21   6
ENDBRANCH  13  21
BRANCH  17  24
ATOM     24  C   UNL     1      -4.980 -10.570  16.699  0.00  0.00    +0.082 C 
BRANCH  24  30
ATOM      7  N   UNL     1      -5.342 -10.228  14.247  0.00  0.00    -0.342 N 
ATOM      8  N   UNL     1      -3.279 -10.789  14.855  0.00  0.00    -0.232 NA
ATOM     30  C   UNL     1      -4.497 -10.539  15.277  0.00  0.00    +0.109 A 
ATOM     31  C   UNL     1      -4.619 -10.281  13.083  0.00  0.00    +0.067 A 
ATOM     32  C   UNL     1      -3.334 -10.633  13.489  0.00  0.00    +0.089 A 
ATOM     33  C   UNL     1      -4.968 -10.058  11.751  0.00  0.00    +0.042 A 
ATOM     34  C   UNL     1      -2.326 -10.775  12.522  0.00  0.00    +0.030 A 
ATOM     35  C   UNL     1      -3.952 -10.205  10.801  0.00  0.00    +0.061 A 
ATOM     36  C   UNL     1      -2.653 -10.556  11.177  0.00  0.00    +0.017 A 
ATOM     40  H   UNL     1      -6.324  -9.999  14.327  0.00  0.00    +0.167 HD
BRANCH  35  37
ATOM      5  O   UNL     1      -4.145  -8.895   8.818  0.00  0.00    -0.245 OA
ATOM     37  C   UNL     1      -4.255  -9.985   9.395  0.00  0.00    +0.339 C 
BRANCH  37   4
ATOM      4  O   UNL     1      -4.675 -11.135   8.785  0.00  0.00    -0.464 OA
ATOM     38  C   UNL     1      -4.874 -11.080   7.369  0.00  0.00    +0.280 C 
ENDBRANCH  37   4
ENDBRANCH  35  37
ENDBRANCH  24  30
ENDBRANCH  17  24
TORSDOF 12
ENDMDL
MODEL 7
REMARK VINA RESULT:      -6.2     29.364     34.343
REMARK  Name = 71693207
REMARK  16 active torsions:
REMARK  status: ('A' for Active; 'I' for Inactive)
REMARK    1  A    between atoms: O_2  and  C_29
REMARK    2  A    between atoms: O_4  and  C_37
REMARK    3  A    between atoms: O_4  and  C_38
REMARK    4  A    between atoms: N_6  and  C_21
REMARK    5  A    between atoms: C_9  and  C_18
REMARK    6  A    between atoms: C_9  and  C_20
REMARK    7  A    between atoms: C_10  and  C_19
REMARK    8  A    between atoms: C_13  and  C_21
REMARK    9  A    between atoms: C_17  and  C_24
REMARK   10  A    between atoms: C_18  and  C_25
REMARK   11  A    between atoms: C_19  and  C_26
REMARK   12  A    between atoms: C_19  and  C_27
REMARK   13  A    between atoms: C_20  and  C_29
REMARK   14  A    between atoms: C_22  and  C_28
REMARK   15  A    between atoms: C_24  and  C_30
REMARK   16  A    between atoms: C_35  and  C_37
REMARK                            x       y       z     vdW  Elec       q    Type
REMARK                         _______ _______ _______ _____ _____    ______ ____
ROOT
ATOM     10  C   UNL     1      19.084   8.737  21.778  0.00  0.00    +0.000 C 
ATOM     13  C   UNL     1      17.868   8.423  20.870  0.00  0.00    +0.032 C 
ATOM     14  C   UNL     1      20.372   8.168  21.165  0.00  0.00    +0.012 C 
ATOM     17  C   UNL     1      20.297   6.643  20.961  0.00  0.00    +0.022 C 
ATOM     22  C   UNL     1      18.994   6.227  20.308  0.00  0.00    -0.073 C 
ATOM     23  C   UNL     1      17.924   7.040  20.266  0.00  0.00    -0.022 C 
ATOM     28  C   UNL     1      18.964   4.868  19.664  0.00  0.00    +0.039 C 
ENDROOT
BRANCH  10  19
ATOM     19  C   UNL     1      19.243  10.242  22.014  0.00  0.00    -0.013 C 
ATOM     26  C   UNL     1      19.971  10.891  20.842  0.00  0.00    +0.007 C 
ATOM     27  C   UNL     1      19.986  10.500  23.321  0.00  0.00    +0.007 C 
ENDBRANCH  10  19
BRANCH  13  21
ATOM     21  C   UNL     1      16.549   8.594  21.634  0.00  0.00    +0.112 C 
BRANCH  21   6
ATOM      1  O   UNL     1      13.838   9.352  22.298  0.00  0.00    -0.276 OA
ATOM      6  N   UNL     1      15.461   8.794  20.728  0.00  0.00    -0.315 N 
ATOM     25  C   UNL     1      14.177   9.161  21.133  0.00  0.00    +0.214 C 
ATOM     39  H   UNL     1      15.648   8.718  19.733  0.00  0.00    +0.149 HD
BRANCH  25  18
ATOM     18  C   UNL     1      13.227   9.303  19.958  0.00  0.00    +0.103 C 
BRANCH  18   9
ATOM      9  C   UNL     1      12.334   8.069  19.768  0.00  0.00    -0.011 C 
ATOM     11  C   UNL     1      10.896   8.356  20.252  0.00  0.00    +0.008 C 
ATOM     12  C   UNL     1      12.835   6.902  20.652  0.00  0.00    +0.008 C 
ATOM     15  C   UNL     1      10.787   7.671  21.607  0.00  0.00    +0.001 C 
ATOM     16  C   UNL     1      11.613   6.412  21.418  0.00  0.00    +0.001 C 
BRANCH   9  20
ATOM     20  C   UNL     1      12.334   7.674  18.286  0.00  0.00    +0.127 C 
BRANCH  20  29
ATOM      3  O   UNL     1      14.727   7.211  18.289  0.00  0.00    -0.251 OA
ATOM     29  C   UNL     1      13.727   7.637  17.731  0.00  0.00    +0.305 C 
BRANCH  29   2
ATOM      2  O   UNL     1      13.727   8.159  16.478  0.00  0.00    -0.481 OA
ATOM     41  H   UNL     1      14.007   7.501  15.806  0.00  0.00    +0.295 HD
ENDBRANCH  29   2
ENDBRANCH  20  29
ENDBRANCH   9  20
ENDBRANCH  18   9
ENDBRANCH  25  18
ENDBRANCH  21   6
ENDBRANCH  13  21
BRANCH  17  24
ATOM     24  C   UNL     1      20.511   5.899  22.283  0.00  0.00    +0.082 C 
BRANCH  24  30
ATOM      7  N   UNL     1      22.035   4.152  23.223  0.00  0.00    -0.342 N 
ATOM      8  N   UNL     1      21.976   4.298  21.005  0.00  0.00    -0.232 NA
ATOM     30  C   UNL     1      21.506   4.785  22.132  0.00  0.00    +0.109 A 
ATOM     31  C   UNL     1      22.903   3.192  22.769  0.00  0.00    +0.067 A 
ATOM     32  C   UNL     1      22.848   3.303  21.382  0.00  0.00    +0.089 A 
ATOM     33  C   UNL     1      23.707   2.264  23.433  0.00  0.00    +0.042 A 
ATOM     34  C   UNL     1      23.636   2.446  20.595  0.00  0.00    +0.030 A 
ATOM     35  C   UNL     1      24.484   1.420  22.634  0.00  0.00    +0.061 A 
ATOM     36  C   UNL     1      24.451   1.506  21.240  0.00  0.00    +0.017 A 
ATOM     40  H   UNL     1      21.824   4.353  24.192  0.00  0.00    +0.167 HD
BRANCH  35  37
ATOM      5  O   UNL     1      26.409   0.021  22.792  0.00  0.00    -0.245 OA
ATOM     37  C   UNL     1      25.343   0.431  23.269  0.00  0.00    +0.339 C 
BRANCH  37   4
ATOM      4  O   UNL     1      24.827   0.010  24.464  0.00  0.00    -0.464 OA
ATOM     38  C   UNL     1      25.325  -1.227  24.983  0.00  0.00    +0.280 C 
ENDBRANCH  37   4
ENDBRANCH  35  37
ENDBRANCH  24  30
ENDBRANCH  17  24
TORSDOF 12
ENDMDL
MODEL 8
REMARK VINA RESULT:      -6.1     26.746     29.852
REMARK  Name = 71693207
REMARK  16 active torsions:
REMARK  status: ('A' for Active; 'I' for Inactive)
REMARK    1  A    between atoms: O_2  and  C_29
REMARK    2  A    between atoms: O_4  and  C_37
REMARK    3  A    between atoms: O_4  and  C_38
REMARK    4  A    between atoms: N_6  and  C_21
REMARK    5  A    between atoms: C_9  and  C_18
REMARK    6  A    between atoms: C_9  and  C_20
REMARK    7  A    between atoms: C_10  and  C_19
REMARK    8  A    between atoms: C_13  and  C_21
REMARK    9  A    between atoms: C_17  and  C_24
REMARK   10  A    between atoms: C_18  and  C_25
REMARK   11  A    between atoms: C_19  and  C_26
REMARK   12  A    between atoms: C_19  and  C_27
REMARK   13  A    between atoms: C_20  and  C_29
REMARK   14  A    between atoms: C_22  and  C_28
REMARK   15  A    between atoms: C_24  and  C_30
REMARK   16  A    between atoms: C_35  and  C_37
REMARK                            x       y       z     vdW  Elec       q    Type
REMARK                         _______ _______ _______ _____ _____    ______ ____
ROOT
ATOM     10  C   UNL     1       9.015   8.307   5.793  0.00  0.00    +0.000 C 
ATOM     13  C   UNL     1       8.607   8.277   7.288  0.00  0.00    +0.032 C 
ATOM     14  C   UNL     1       8.821   6.922   5.157  0.00  0.00    +0.012 C 
ATOM     17  C   UNL     1       9.647   5.833   5.866  0.00  0.00    +0.022 C 
ATOM     22  C   UNL     1       9.505   5.911   7.373  0.00  0.00    -0.073 C 
ATOM     23  C   UNL     1       9.026   7.007   7.989  0.00  0.00    -0.022 C 
ATOM     28  C   UNL     1       9.885   4.683   8.153  0.00  0.00    +0.039 C 
ENDROOT
BRANCH  10  19
ATOM     19  C   UNL     1       8.221   9.354   5.008  0.00  0.00    -0.013 C 
ATOM     26  C   UNL     1       7.500   8.705   3.831  0.00  0.00    +0.007 C 
ATOM     27  C   UNL     1       9.142  10.471   4.528  0.00  0.00    +0.007 C 
ENDBRANCH  10  19
BRANCH  13  21
ATOM     21  C   UNL     1       9.173   9.487   8.040  0.00  0.00    +0.112 C 
BRANCH  21   6
ATOM      1  O   UNL     1      10.887  11.671   7.227  0.00  0.00    -0.276 OA
ATOM      6  N   UNL     1      10.602   9.492   7.990  0.00  0.00    -0.315 N 
ATOM     25  C   UNL     1      11.356  10.594   7.584  0.00  0.00    +0.214 C 
ATOM     39  H   UNL     1      11.094   8.667   8.320  0.00  0.00    +0.149 HD
BRANCH  25  18
ATOM     18  C   UNL     1      12.847  10.313   7.632  0.00  0.00    +0.103 C 
BRANCH  18   9
ATOM      9  C   UNL     1      13.344   9.549   6.397  0.00  0.00    -0.011 C 
ATOM     11  C   UNL     1      14.596  10.229   5.801  0.00  0.00    +0.008 C 
ATOM     12  C   UNL     1      12.282   9.596   5.272  0.00  0.00    +0.008 C 
ATOM     15  C   UNL     1      14.096  10.984   4.578  0.00  0.00    +0.001 C 
ATOM     16  C   UNL     1      13.023  10.062   4.026  0.00  0.00    +0.001 C 
BRANCH   9  20
ATOM     20  C   UNL     1      13.657   8.102   6.797  0.00  0.00    +0.127 C 
BRANCH  20  29
ATOM      3  O   UNL     1      16.047   7.784   6.435  0.00  0.00    -0.251 OA
ATOM     29  C   UNL     1      14.887   7.597   6.101  0.00  0.00    +0.305 C 
BRANCH  29   2
ATOM      2  O   UNL     1      14.523   6.878   5.009  0.00  0.00    -0.481 OA
ATOM     41  H   UNL     1      13.557   6.710   4.985  0.00  0.00    +0.295 HD
ENDBRANCH  29   2
ENDBRANCH  20  29
ENDBRANCH   9  20
ENDBRANCH  18   9
ENDBRANCH  25  18
ENDBRANCH  21   6
ENDBRANCH  13  21
BRANCH  17  24
ATOM     24  C   UNL     1      11.121   5.899   5.450  0.00  0.00    +0.082 C 
BRANCH  24  30
ATOM      7  N   UNL     1      10.701   4.800   3.242  0.00  0.00    -0.342 N 
ATOM      8  N   UNL     1      11.938   6.646   3.188  0.00  0.00    -0.232 NA
ATOM     30  C   UNL     1      11.275   5.814   3.958  0.00  0.00    +0.109 A 
ATOM     31  C   UNL     1      11.014   4.991   1.921  0.00  0.00    +0.067 A 
ATOM     32  C   UNL     1      11.786   6.150   1.913  0.00  0.00    +0.089 A 
ATOM     33  C   UNL     1      10.697   4.273   0.768  0.00  0.00    +0.042 A 
ATOM     34  C   UNL     1      12.281   6.634   0.691  0.00  0.00    +0.030 A 
ATOM     35  C   UNL     1      11.199   4.769  -0.440  0.00  0.00    +0.061 A 
ATOM     36  C   UNL     1      11.976   5.929  -0.480  0.00  0.00    +0.017 A 
ATOM     40  H   UNL     1      10.143   4.043   3.617  0.00  0.00    +0.167 HD
BRANCH  35  37
ATOM      5  O   UNL     1       9.780   4.005  -2.197  0.00  0.00    -0.245 OA
ATOM     37  C   UNL     1      10.902   4.063  -1.677  0.00  0.00    +0.339 C 
BRANCH  37   4
ATOM      4  O   UNL     1      12.019   3.472  -2.199  0.00  0.00    -0.464 OA
ATOM     38  C   UNL     1      11.895   2.107  -2.613  0.00  0.00    +0.280 C 
ENDBRANCH  37   4
ENDBRANCH  35  37
ENDBRANCH  24  30
ENDBRANCH  17  24
TORSDOF 12
ENDMDL
MODEL 9
REMARK VINA RESULT:      -5.9      6.333     12.548
REMARK  Name = 71693207
REMARK  16 active torsions:
REMARK  status: ('A' for Active; 'I' for Inactive)
REMARK    1  A    between atoms: O_2  and  C_29
REMARK    2  A    between atoms: O_4  and  C_37
REMARK    3  A    between atoms: O_4  and  C_38
REMARK    4  A    between atoms: N_6  and  C_21
REMARK    5  A    between atoms: C_9  and  C_18
REMARK    6  A    between atoms: C_9  and  C_20
REMARK    7  A    between atoms: C_10  and  C_19
REMARK    8  A    between atoms: C_13  and  C_21
REMARK    9  A    between atoms: C_17  and  C_24
REMARK   10  A    between atoms: C_18  and  C_25
REMARK   11  A    between atoms: C_19  and  C_26
REMARK   12  A    between atoms: C_19  and  C_27
REMARK   13  A    between atoms: C_20  and  C_29
REMARK   14  A    between atoms: C_22  and  C_28
REMARK   15  A    between atoms: C_24  and  C_30
REMARK   16  A    between atoms: C_35  and  C_37
REMARK                            x       y       z     vdW  Elec       q    Type
REMARK                         _______ _______ _______ _____ _____    ______ ____
ROOT
ATOM     10  C   UNL     1      -6.339  -9.706   9.914  0.00  0.00    +0.000 C 
ATOM     13  C   UNL     1      -5.282  -9.269   8.869  0.00  0.00    +0.032 C 
ATOM     14  C   UNL     1      -5.965  -9.177  11.308  0.00  0.00    +0.012 C 
ATOM     17  C   UNL     1      -4.585  -9.679  11.771  0.00  0.00    +0.022 C 
ATOM     22  C   UNL     1      -3.538  -9.527  10.685  0.00  0.00    -0.073 C 
ATOM     23  C   UNL     1      -3.869  -9.332   9.397  0.00  0.00    -0.022 C 
ATOM     28  C   UNL     1      -2.100  -9.561  11.123  0.00  0.00    +0.039 C 
ENDROOT
BRANCH  10  19
ATOM     19  C   UNL     1      -7.744  -9.225   9.538  0.00  0.00    -0.013 C 
ATOM     26  C   UNL     1      -7.703  -7.774   9.070  0.00  0.00    +0.007 C 
ATOM     27  C   UNL     1      -8.696  -9.386  10.719  0.00  0.00    +0.007 C 
ENDBRANCH  10  19
BRANCH  13  21
ATOM     21  C   UNL     1      -5.389 -10.110   7.591  0.00  0.00    +0.112 C 
BRANCH  21   6
ATOM      1  O   UNL     1      -6.798 -11.156   5.292  0.00  0.00    -0.276 OA
ATOM      6  N   UNL     1      -6.006  -9.361   6.541  0.00  0.00    -0.315 N 
ATOM     25  C   UNL     1      -6.670  -9.947   5.462  0.00  0.00    +0.214 C 
ATOM     39  H   UNL     1      -6.009  -8.348   6.615  0.00  0.00    +0.149 HD
BRANCH  25  18
ATOM     18  C   UNL     1      -7.228  -8.909   4.505  0.00  0.00    +0.103 C 
BRANCH  18   9
ATOM      9  C   UNL     1      -8.761  -8.852   4.524  0.00  0.00    -0.011 C 
ATOM     11  C   UNL     1      -9.254  -7.389   4.511  0.00  0.00    +0.008 C 
ATOM     12  C   UNL     1      -9.305  -9.452   5.844  0.00  0.00    +0.008 C 
ATOM     15  C   UNL     1      -9.672  -7.095   5.944  0.00  0.00    +0.001 C 
ATOM     16  C   UNL     1     -10.271  -8.413   6.400  0.00  0.00    +0.001 C 
BRANCH   9  20
ATOM     20  C   UNL     1      -9.306  -9.615   3.310  0.00  0.00    +0.127 C 
BRANCH  20  29
ATOM      3  O   UNL     1      -8.100  -8.570   1.467  0.00  0.00    -0.251 OA
ATOM     29  C   UNL     1      -8.354  -9.549   2.153  0.00  0.00    +0.305 C 
BRANCH  29   2
ATOM      2  O   UNL     1      -7.791 -10.769   1.962  0.00  0.00    -0.481 OA
ATOM     41  H   UNL     1      -7.118 -10.756   1.248  0.00  0.00    +0.295 HD
ENDBRANCH  29   2
ENDBRANCH  20  29
ENDBRANCH   9  20
ENDBRANCH  18   9
ENDBRANCH  25  18
ENDBRANCH  21   6
ENDBRANCH  13  21
BRANCH  17  24
ATOM     24  C   UNL     1      -4.661 -11.129  12.261  0.00  0.00    +0.082 C 
BRANCH  24  30
ATOM      7  N   UNL     1      -5.830 -11.487  14.444  0.00  0.00    -0.342 N 
ATOM      8  N   UNL     1      -3.662 -11.013  14.570  0.00  0.00    -0.232 NA
ATOM     30  C   UNL     1      -4.680 -11.202  13.761  0.00  0.00    +0.109 A 
ATOM     31  C   UNL     1      -5.534 -11.483  15.782  0.00  0.00    +0.067 A 
ATOM     32  C   UNL     1      -4.175 -11.185  15.836  0.00  0.00    +0.089 A 
ATOM     33  C   UNL     1      -6.315 -11.708  16.917  0.00  0.00    +0.042 A 
ATOM     34  C   UNL     1      -3.541 -11.101  17.086  0.00  0.00    +0.030 A 
ATOM     35  C   UNL     1      -5.667 -11.620  18.154  0.00  0.00    +0.061 A 
ATOM     36  C   UNL     1      -4.304 -11.323  18.239  0.00  0.00    +0.017 A 
ATOM     40  H   UNL     1      -6.738 -11.671  14.036  0.00  0.00    +0.167 HD
BRANCH  35  37
ATOM      5  O   UNL     1      -6.256 -11.223  20.429  0.00  0.00    -0.245 OA
ATOM     37  C   UNL     1      -6.428 -11.845  19.373  0.00  0.00    +0.339 C 
BRANCH  37   4
ATOM      4  O   UNL     1      -7.362 -12.830  19.208  0.00  0.00    -0.464 OA
ATOM     38  C   UNL     1      -8.649 -12.605  19.793  0.00  0.00    +0.280 C 
ENDBRANCH  37   4
ENDBRANCH  35  37
ENDBRANCH  24  30
ENDBRANCH  17  24
TORSDOF 12
ENDMDL
MODEL 10
REMARK VINA RESULT:      -5.9      6.777      9.723
REMARK  Name = 71693207
REMARK  16 active torsions:
REMARK  status: ('A' for Active; 'I' for Inactive)
REMARK    1  A    between atoms: O_2  and  C_29
REMARK    2  A    between atoms: O_4  and  C_37
REMARK    3  A    between atoms: O_4  and  C_38
REMARK    4  A    between atoms: N_6  and  C_21
REMARK    5  A    between atoms: C_9  and  C_18
REMARK    6  A    between atoms: C_9  and  C_20
REMARK    7  A    between atoms: C_10  and  C_19
REMARK    8  A    between atoms: C_13  and  C_21
REMARK    9  A    between atoms: C_17  and  C_24
REMARK   10  A    between atoms: C_18  and  C_25
REMARK   11  A    between atoms: C_19  and  C_26
REMARK   12  A    between atoms: C_19  and  C_27
REMARK   13  A    between atoms: C_20  and  C_29
REMARK   14  A    between atoms: C_22  and  C_28
REMARK   15  A    between atoms: C_24  and  C_30
REMARK   16  A    between atoms: C_35  and  C_37
REMARK                            x       y       z     vdW  Elec       q    Type
REMARK                         _______ _______ _______ _____ _____    ______ ____
ROOT
ATOM     10  C   UNL     1      -3.214 -12.449  13.643  0.00  0.00    +0.000 C 
ATOM     13  C   UNL     1      -2.101 -11.511  14.173  0.00  0.00    +0.032 C 
ATOM     14  C   UNL     1      -3.007 -12.734  12.147  0.00  0.00    +0.012 C 
ATOM     17  C   UNL     1      -3.010 -11.447  11.302  0.00  0.00    +0.022 C 
ATOM     22  C   UNL     1      -2.136 -10.370  11.914  0.00  0.00    -0.073 C 
ATOM     23  C   UNL     1      -1.729 -10.423  13.194  0.00  0.00    -0.022 C 
ATOM     28  C   UNL     1      -1.703  -9.253  11.005  0.00  0.00    +0.039 C 
ENDROOT
BRANCH  10  19
ATOM     19  C   UNL     1      -3.265 -13.768  14.420  0.00  0.00    -0.013 C 
ATOM     26  C   UNL     1      -2.075 -14.649  14.053  0.00  0.00    +0.007 C 
ATOM     27  C   UNL     1      -4.579 -14.494  14.150  0.00  0.00    +0.007 C 
ENDBRANCH  10  19
BRANCH  13  21
ATOM     21  C   UNL     1      -2.502 -10.879  15.511  0.00  0.00    +0.112 C 
BRANCH  21   6
ATOM      1  O   UNL     1      -4.357 -10.541  17.706  0.00  0.00    -0.276 OA
ATOM      6  N   UNL     1      -3.832 -10.356  15.447  0.00  0.00    -0.315 N 
ATOM     25  C   UNL     1      -4.665 -10.225  16.560  0.00  0.00    +0.214 C 
ATOM     39  H   UNL     1      -4.165 -10.010  14.553  0.00  0.00    +0.149 HD
BRANCH  25  18
ATOM     18  C   UNL     1      -6.016  -9.640  16.193  0.00  0.00    +0.103 C 
BRANCH  18   9
ATOM      9  C   UNL     1      -7.187 -10.477  16.727  0.00  0.00    -0.011 C 
ATOM     11  C   UNL     1      -6.762 -11.950  16.920  0.00  0.00    +0.008 C 
ATOM     12  C   UNL     1      -8.336 -10.518  15.690  0.00  0.00    +0.008 C 
ATOM     15  C   UNL     1      -7.356 -12.694  15.733  0.00  0.00    +0.001 C 
ATOM     16  C   UNL     1      -8.684 -11.991  15.521  0.00  0.00    +0.001 C 
BRANCH   9  20
ATOM     20  C   UNL     1      -7.666  -9.877  18.054  0.00  0.00    +0.127 C 
BRANCH  20  29
ATOM      3  O   UNL     1      -8.435 -11.766  19.390  0.00  0.00    -0.251 OA
ATOM     29  C   UNL     1      -7.616 -10.889  19.160  0.00  0.00    +0.305 C 
BRANCH  29   2
ATOM      2  O   UNL     1      -6.495 -10.692  19.901  0.00  0.00    -0.481 OA
ATOM     41  H   UNL     1      -6.705 -10.500  20.840  0.00  0.00    +0.295 HD
ENDBRANCH  29   2
ENDBRANCH  20  29
ENDBRANCH   9  20
ENDBRANCH  18   9
ENDBRANCH  25  18
ENDBRANCH  21   6
ENDBRANCH  13  21
BRANCH  17  24
ATOM     24  C   UNL     1      -4.437 -10.935  11.081  0.00  0.00    +0.082 C 
BRANCH  24  30
ATOM      7  N   UNL     1      -4.225 -11.776   8.735  0.00  0.00    -0.342 N 
ATOM      8  N   UNL     1      -5.630 -10.080   9.034  0.00  0.00    -0.232 NA
ATOM     30  C   UNL     1      -4.789 -10.901   9.621  0.00  0.00    +0.109 A 
ATOM     31  C   UNL     1      -4.737 -11.502   7.493  0.00  0.00    +0.067 A 
ATOM     32  C   UNL     1      -5.613 -10.439   7.706  0.00  0.00    +0.089 A 
ATOM     33  C   UNL     1      -4.518 -12.075   6.239  0.00  0.00    +0.042 A 
ATOM     34  C   UNL     1      -6.317  -9.903   6.616  0.00  0.00    +0.030 A 
ATOM     35  C   UNL     1      -5.228 -11.528   5.165  0.00  0.00    +0.061 A 
ATOM     36  C   UNL     1      -6.113 -10.463   5.348  0.00  0.00    +0.017 A 
ATOM     40  H   UNL     1      -3.552 -12.499   8.953  0.00  0.00    +0.167 HD
BRANCH  35  37
ATOM      5  O   UNL     1      -5.966 -12.399   3.072  0.00  0.00    -0.245 OA
ATOM     37  C   UNL     1      -5.042 -12.084   3.833  0.00  0.00    +0.339 C 
BRANCH  37   4
ATOM      4  O   UNL     1      -3.716 -12.212   3.523  0.00  0.00    -0.464 OA
ATOM     38  C   UNL     1      -3.358 -13.291   2.653  0.00  0.00    +0.280 C 
ENDBRANCH  37   4
ENDBRANCH  35  37
ENDBRANCH  24  30
ENDBRANCH  17  24
TORSDOF 12
ENDMDL
