MODEL 1
REMARK VINA RESULT:      -7.1      0.000      0.000
REMARK  Name = 75368486
REMARK  4 active torsions:
REMARK  status: ('A' for Active; 'I' for Inactive)
REMARK    1  A    between atoms: O_3  and  C_24
REMARK    2  A    between atoms: O_3  and  C_27
REMARK    3  A    between atoms: N_4  and  C_9
REMARK    4  A    between atoms: N_7  and  C_21
REMARK                            x       y       z     vdW  Elec       q    Type
REMARK                         _______ _______ _______ _____ _____    ______ ____
ROOT
ATOM      1  O   UNL     1      23.319   7.182  22.300  0.00  0.00    -0.252 OA
ATOM      2  O   UNL     1      16.930   9.364  20.819  0.00  0.00    -0.252 OA
ATOM      4  N   UNL     1      22.332   5.262  21.352  0.00  0.00    -0.281 N 
ATOM      5  N   UNL     1      21.137   7.163  21.426  0.00  0.00    -0.278 N 
ATOM      6  N   UNL     1      18.404   7.654  21.309  0.00  0.00    -0.282 N 
ATOM      7  N   UNL     1      16.561   7.271  19.889  0.00  0.00    -0.269 N 
ATOM      8  C   UNL     1      20.299   6.232  20.688  0.00  0.00    +0.112 C 
ATOM     10  C   UNL     1      21.023   4.896  20.840  0.00  0.00    +0.133 C 
ATOM     13  C   UNL     1      18.879   6.256  21.240  0.00  0.00    +0.133 C 
ATOM     14  C   UNL     1      22.382   6.610  21.758  0.00  0.00    +0.305 C 
ATOM     15  C   UNL     1      20.684   8.527  21.649  0.00  0.00    +0.128 C 
ATOM     19  C   UNL     1      19.240   8.526  22.150  0.00  0.00    +0.128 C 
ATOM     20  C   UNL     1      17.257   8.183  20.682  0.00  0.00    +0.307 C 
ATOM     28  H   UNL     1      17.084   6.515  19.461  0.00  0.00    +0.156 HD
ENDROOT
BRANCH   4   9
ATOM      9  C   UNL     1      23.379   4.286  21.537  0.00  0.00    +0.078 C 
ATOM     11  C   UNL     1      24.069   3.981  20.205  0.00  0.00    +0.022 C 
ATOM     12  C   UNL     1      22.826   3.013  22.184  0.00  0.00    +0.022 C 
ATOM     16  C   UNL     1      25.146   2.912  20.362  0.00  0.00    +0.002 C 
ATOM     17  C   UNL     1      23.907   1.947  22.338  0.00  0.00    +0.002 C 
ATOM     18  C   UNL     1      24.594   1.645  21.010  0.00  0.00    +0.000 C 
ENDBRANCH   4   9
BRANCH   7  21
ATOM     21  C   UNL     1      15.170   7.252  19.621  0.00  0.00    +0.038 A 
ATOM     22  C   UNL     1      14.274   6.856  20.613  0.00  0.00    +0.069 A 
ATOM     23  C   UNL     1      14.697   7.630  18.365  0.00  0.00    +0.023 A 
ATOM     24  C   UNL     1      12.904   6.837  20.350  0.00  0.00    +0.122 A 
ATOM     25  C   UNL     1      13.328   7.612  18.100  0.00  0.00    +0.005 A 
ATOM     26  C   UNL     1      12.431   7.215  19.092  0.00  0.00    +0.046 A 
BRANCH  24   3
ATOM      3  O   UNL     1      12.030   6.448  21.318  0.00  0.00    -0.495 OA
ATOM     27  C   UNL     1      10.863   7.249  21.497  0.00  0.00    +0.277 C 
ENDBRANCH  24   3
ENDBRANCH   7  21
TORSDOF 3
ENDMDL
MODEL 2
REMARK VINA RESULT:      -7.0     33.389     36.002
REMARK  Name = 75368486
REMARK  4 active torsions:
REMARK  status: ('A' for Active; 'I' for Inactive)
REMARK    1  A    between atoms: O_3  and  C_24
REMARK    2  A    between atoms: O_3  and  C_27
REMARK    3  A    between atoms: N_4  and  C_9
REMARK    4  A    between atoms: N_7  and  C_21
REMARK                            x       y       z     vdW  Elec       q    Type
REMARK                         _______ _______ _______ _____ _____    ______ ____
ROOT
ATOM      1  O   UNL     1     -17.532   3.305  21.920  0.00  0.00    -0.252 OA
ATOM      2  O   UNL     1     -17.539   0.535  28.252  0.00  0.00    -0.252 OA
ATOM      4  N   UNL     1     -15.683   4.356  22.937  0.00  0.00    -0.281 N 
ATOM      5  N   UNL     1     -16.805   2.790  24.094  0.00  0.00    -0.278 N 
ATOM      6  N   UNL     1     -16.991   2.260  26.815  0.00  0.00    -0.282 N 
ATOM      7  N   UNL     1     -15.606   1.753  28.654  0.00  0.00    -0.269 N 
ATOM      8  C   UNL     1     -15.678   3.138  24.944  0.00  0.00    +0.112 C 
ATOM     10  C   UNL     1     -15.060   4.348  24.249  0.00  0.00    +0.133 C 
ATOM     13  C   UNL     1     -16.157   3.394  26.369  0.00  0.00    +0.133 C 
ATOM     14  C   UNL     1     -16.768   3.461  22.863  0.00  0.00    +0.305 C 
ATOM     15  C   UNL     1     -17.748   1.770  24.521  0.00  0.00    +0.128 C 
ATOM     19  C   UNL     1     -18.171   2.019  25.970  0.00  0.00    +0.128 C 
ATOM     20  C   UNL     1     -16.768   1.448  27.948  0.00  0.00    +0.307 C 
ATOM     28  H   UNL     1     -14.827   2.155  28.143  0.00  0.00    +0.156 HD
ENDROOT
BRANCH   4   9
ATOM      9  C   UNL     1     -15.291   5.292  21.911  0.00  0.00    +0.078 C 
ATOM     11  C   UNL     1     -13.790   5.580  21.993  0.00  0.00    +0.022 C 
ATOM     12  C   UNL     1     -16.113   6.580  22.009  0.00  0.00    +0.022 C 
ATOM     16  C   UNL     1     -13.357   6.609  20.952  0.00  0.00    +0.002 C 
ATOM     17  C   UNL     1     -15.676   7.606  20.967  0.00  0.00    +0.002 C 
ATOM     18  C   UNL     1     -14.180   7.891  21.049  0.00  0.00    +0.000 C 
ENDBRANCH   4   9
BRANCH   7  21
ATOM     21  C   UNL     1     -15.378   1.590  30.044  0.00  0.00    +0.038 A 
ATOM     22  C   UNL     1     -15.543   2.672  30.908  0.00  0.00    +0.069 A 
ATOM     23  C   UNL     1     -14.989   0.349  30.546  0.00  0.00    +0.023 A 
ATOM     24  C   UNL     1     -15.319   2.513  32.276  0.00  0.00    +0.122 A 
ATOM     25  C   UNL     1     -14.765   0.189  31.914  0.00  0.00    +0.005 A 
ATOM     26  C   UNL     1     -14.930   1.271  32.779  0.00  0.00    +0.046 A 
BRANCH  24   3
ATOM      3  O   UNL     1     -15.478   3.570  33.119  0.00  0.00    -0.495 OA
ATOM     27  C   UNL     1     -14.311   4.048  33.786  0.00  0.00    +0.277 C 
ENDBRANCH  24   3
ENDBRANCH   7  21
TORSDOF 3
ENDMDL
MODEL 3
REMARK VINA RESULT:      -6.9      3.627     10.355
REMARK  Name = 75368486
REMARK  4 active torsions:
REMARK  status: ('A' for Active; 'I' for Inactive)
REMARK    1  A    between atoms: O_3  and  C_24
REMARK    2  A    between atoms: O_3  and  C_27
REMARK    3  A    between atoms: N_4  and  C_9
REMARK    4  A    between atoms: N_7  and  C_21
REMARK                            x       y       z     vdW  Elec       q    Type
REMARK                         _______ _______ _______ _____ _____    ______ ____
ROOT
ATOM      1  O   UNL     1      10.539   9.462  20.716  0.00  0.00    -0.252 OA
ATOM      2  O   UNL     1      16.301   5.871  19.423  0.00  0.00    -0.252 OA
ATOM      4  N   UNL     1      12.058  10.357  22.281  0.00  0.00    -0.281 N 
ATOM      5  N   UNL     1      12.795   8.813  20.824  0.00  0.00    -0.278 N 
ATOM      6  N   UNL     1      14.985   7.103  20.868  0.00  0.00    -0.282 N 
ATOM      7  N   UNL     1      17.335   7.185  21.031  0.00  0.00    -0.269 N 
ATOM      8  C   UNL     1      13.984   9.233  21.547  0.00  0.00    +0.112 C 
ATOM     10  C   UNL     1      13.435  10.108  22.671  0.00  0.00    +0.133 C 
ATOM     13  C   UNL     1      14.771   8.013  22.012  0.00  0.00    +0.133 C 
ATOM     14  C   UNL     1      11.656   9.537  21.208  0.00  0.00    +0.305 C 
ATOM     15  C   UNL     1      12.901   7.823  19.765  0.00  0.00    +0.128 C 
ATOM     19  C   UNL     1      13.740   6.635  20.239  0.00  0.00    +0.128 C 
ATOM     20  C   UNL     1      16.227   6.652  20.375  0.00  0.00    +0.307 C 
ATOM     28  H   UNL     1      17.246   8.105  21.449  0.00  0.00    +0.156 HD
ENDROOT
BRANCH   4   9
ATOM      9  C   UNL     1      11.202  11.246  23.029  0.00  0.00    +0.078 C 
ATOM     11  C   UNL     1      11.111  12.610  22.340  0.00  0.00    +0.022 C 
ATOM     12  C   UNL     1      11.690  11.381  24.474  0.00  0.00    +0.022 C 
ATOM     16  C   UNL     1      10.253  13.587  23.138  0.00  0.00    +0.002 C 
ATOM     17  C   UNL     1      10.830  12.361  25.268  0.00  0.00    +0.002 C 
ATOM     18  C   UNL     1      10.740  13.719  24.579  0.00  0.00    +0.000 C 
ENDBRANCH   4   9
BRANCH   7  21
ATOM     21  C   UNL     1      18.600   6.572  21.217  0.00  0.00    +0.038 A 
ATOM     22  C   UNL     1      19.273   6.718  22.430  0.00  0.00    +0.069 A 
ATOM     23  C   UNL     1      19.170   5.824  20.188  0.00  0.00    +0.023 A 
ATOM     24  C   UNL     1      20.518   6.116  22.613  0.00  0.00    +0.122 A 
ATOM     25  C   UNL     1      20.415   5.221  20.371  0.00  0.00    +0.005 A 
ATOM     26  C   UNL     1      21.089   5.367  21.583  0.00  0.00    +0.046 A 
BRANCH  24   3
ATOM      3  O   UNL     1      21.176   6.260  23.796  0.00  0.00    -0.495 OA
ATOM     27  C   UNL     1      20.679   7.248  24.698  0.00  0.00    +0.277 C 
ENDBRANCH  24   3
ENDBRANCH   7  21
TORSDOF 3
ENDMDL
MODEL 4
REMARK VINA RESULT:      -6.7     29.100     31.854
REMARK  Name = 75368486
REMARK  4 active torsions:
REMARK  status: ('A' for Active; 'I' for Inactive)
REMARK    1  A    between atoms: O_3  and  C_24
REMARK    2  A    between atoms: O_3  and  C_27
REMARK    3  A    between atoms: N_4  and  C_9
REMARK    4  A    between atoms: N_7  and  C_21
REMARK                            x       y       z     vdW  Elec       q    Type
REMARK                         _______ _______ _______ _____ _____    ______ ____
ROOT
ATOM      1  O   UNL     1      -6.638 -11.539  20.376  0.00  0.00    -0.252 OA
ATOM      2  O   UNL     1      -3.074 -10.626  14.525  0.00  0.00    -0.252 OA
ATOM      4  N   UNL     1      -8.340 -11.083  18.809  0.00  0.00    -0.281 N 
ATOM      5  N   UNL     1      -6.217 -11.220  18.086  0.00  0.00    -0.278 N 
ATOM      6  N   UNL     1      -4.956 -10.245  15.810  0.00  0.00    -0.282 N 
ATOM      7  N   UNL     1      -5.120 -10.373  13.461  0.00  0.00    -0.269 N 
ATOM      8  C   UNL     1      -7.007 -11.054  16.877  0.00  0.00    +0.112 C 
ATOM     10  C   UNL     1      -8.407 -10.743  17.399  0.00  0.00    +0.133 C 
ATOM     13  C   UNL     1      -6.396  -9.969  15.998  0.00  0.00    +0.133 C 
ATOM     14  C   UNL     1      -7.016 -11.313  19.235  0.00  0.00    +0.305 C 
ATOM     15  C   UNL     1      -4.774 -11.369  17.995  0.00  0.00    +0.128 C 
ATOM     19  C   UNL     1      -4.192 -10.304  17.066  0.00  0.00    +0.128 C 
ATOM     20  C   UNL     1      -4.289 -10.421  14.579  0.00  0.00    +0.307 C 
ATOM     28  H   UNL     1      -6.087 -10.658  13.572  0.00  0.00    +0.156 HD
ENDROOT
BRANCH   4   9
ATOM      9  C   UNL     1      -9.503 -11.036  19.663  0.00  0.00    +0.078 C 
ATOM     11  C   UNL     1     -10.103 -12.435  19.828  0.00  0.00    +0.022 C 
ATOM     12  C   UNL     1     -10.536 -10.046  19.117  0.00  0.00    +0.022 C 
ATOM     16  C   UNL     1     -11.367 -12.406  20.684  0.00  0.00    +0.002 C 
ATOM     17  C   UNL     1     -11.798 -10.022  19.975  0.00  0.00    +0.002 C 
ATOM     18  C   UNL     1     -12.394 -11.417  20.140  0.00  0.00    +0.000 C 
ENDBRANCH   4   9
BRANCH   7  21
ATOM     21  C   UNL     1      -4.780  -9.937  12.157  0.00  0.00    +0.038 A 
ATOM     22  C   UNL     1      -5.693  -9.191  11.411  0.00  0.00    +0.069 A 
ATOM     23  C   UNL     1      -3.533 -10.253  11.619  0.00  0.00    +0.023 A 
ATOM     24  C   UNL     1      -5.359  -8.761  10.126  0.00  0.00    +0.122 A 
ATOM     25  C   UNL     1      -3.198  -9.823  10.334  0.00  0.00    +0.005 A 
ATOM     26  C   UNL     1      -4.111  -9.078   9.588  0.00  0.00    +0.046 A 
BRANCH  24   3
ATOM      3  O   UNL     1      -6.250  -8.035   9.398  0.00  0.00    -0.495 OA
ATOM     27  C   UNL     1      -7.611  -8.465   9.424  0.00  0.00    +0.277 C 
ENDBRANCH  24   3
ENDBRANCH   7  21
TORSDOF 3
ENDMDL
MODEL 5
REMARK VINA RESULT:      -6.6     29.164     30.884
REMARK  Name = 75368486
REMARK  4 active torsions:
REMARK  status: ('A' for Active; 'I' for Inactive)
REMARK    1  A    between atoms: O_3  and  C_24
REMARK    2  A    between atoms: O_3  and  C_27
REMARK    3  A    between atoms: N_4  and  C_9
REMARK    4  A    between atoms: N_7  and  C_21
REMARK                            x       y       z     vdW  Elec       q    Type
REMARK                         _______ _______ _______ _____ _____    ______ ____
ROOT
ATOM      1  O   UNL     1      -1.991 -11.624  14.432  0.00  0.00    -0.252 OA
ATOM      2  O   UNL     1      -4.353  -9.361   8.343  0.00  0.00    -0.252 OA
ATOM      4  N   UNL     1      -4.244 -11.123  14.914  0.00  0.00    -0.281 N 
ATOM      5  N   UNL     1      -3.516 -10.890  12.801  0.00  0.00    -0.278 N 
ATOM      6  N   UNL     1      -4.477  -9.418  10.649  0.00  0.00    -0.282 N 
ATOM      7  N   UNL     1      -6.433  -9.182   9.354  0.00  0.00    -0.269 N 
ATOM      8  C   UNL     1      -4.944 -10.625  12.728  0.00  0.00    +0.112 C 
ATOM     10  C   UNL     1      -5.376 -10.569  14.191  0.00  0.00    +0.133 C 
ATOM     13  C   UNL     1      -5.199  -9.347  11.937  0.00  0.00    +0.133 C 
ATOM     14  C   UNL     1      -3.109 -11.262  14.090  0.00  0.00    +0.305 C 
ATOM     15  C   UNL     1      -2.709 -10.852  11.592  0.00  0.00    +0.128 C 
ATOM     19  C   UNL     1      -3.023  -9.589  10.790  0.00  0.00    +0.128 C 
ATOM     20  C   UNL     1      -5.045  -9.313   9.362  0.00  0.00    +0.307 C 
ATOM     28  H   UNL     1      -6.956  -9.593  10.119  0.00  0.00    +0.156 HD
ENDROOT
BRANCH   4   9
ATOM      9  C   UNL     1      -4.285 -11.352  16.338  0.00  0.00    +0.078 C 
ATOM     11  C   UNL     1      -4.763 -12.775  16.638  0.00  0.00    +0.022 C 
ATOM     12  C   UNL     1      -5.167 -10.310  17.030  0.00  0.00    +0.022 C 
ATOM     16  C   UNL     1      -4.867 -13.028  18.140  0.00  0.00    +0.002 C 
ATOM     17  C   UNL     1      -5.269 -10.567  18.531  0.00  0.00    +0.002 C 
ATOM     18  C   UNL     1      -5.744 -11.986  18.828  0.00  0.00    +0.000 C 
ENDBRANCH   4   9
BRANCH   7  21
ATOM     21  C   UNL     1      -7.226  -8.503   8.395  0.00  0.00    +0.038 A 
ATOM     22  C   UNL     1      -7.818  -7.283   8.719  0.00  0.00    +0.069 A 
ATOM     23  C   UNL     1      -7.413  -9.055   7.128  0.00  0.00    +0.023 A 
ATOM     24  C   UNL     1      -8.599  -6.614   7.775  0.00  0.00    +0.122 A 
ATOM     25  C   UNL     1      -8.194  -8.387   6.185  0.00  0.00    +0.005 A 
ATOM     26  C   UNL     1      -8.787  -7.166   6.508  0.00  0.00    +0.046 A 
BRANCH  24   3
ATOM      3  O   UNL     1      -9.179  -5.424   8.093  0.00  0.00    -0.495 OA
ATOM     27  C   UNL     1     -10.451  -5.474   8.737  0.00  0.00    +0.277 C 
ENDBRANCH  24   3
ENDBRANCH   7  21
TORSDOF 3
ENDMDL
MODEL 6
REMARK VINA RESULT:      -6.5     29.279     31.541
REMARK  Name = 75368486
REMARK  4 active torsions:
REMARK  status: ('A' for Active; 'I' for Inactive)
REMARK    1  A    between atoms: O_3  and  C_24
REMARK    2  A    between atoms: O_3  and  C_27
REMARK    3  A    between atoms: N_4  and  C_9
REMARK    4  A    between atoms: N_7  and  C_21
REMARK                            x       y       z     vdW  Elec       q    Type
REMARK                         _______ _______ _______ _____ _____    ______ ____
ROOT
ATOM      1  O   UNL     1      -4.658  -9.207   8.412  0.00  0.00    -0.252 OA
ATOM      2  O   UNL     1      -2.747 -10.841  14.850  0.00  0.00    -0.252 OA
ATOM      4  N   UNL     1      -6.646  -8.869   9.635  0.00  0.00    -0.281 N 
ATOM      5  N   UNL     1      -4.783  -9.455  10.746  0.00  0.00    -0.278 N 
ATOM      6  N   UNL     1      -4.387 -10.619  13.238  0.00  0.00    -0.282 N 
ATOM      7  N   UNL     1      -4.886 -10.234  15.509  0.00  0.00    -0.269 N 
ATOM      8  C   UNL     1      -5.770  -9.213  11.786  0.00  0.00    +0.112 C 
ATOM     10  C   UNL     1      -7.074  -9.036  11.012  0.00  0.00    +0.133 C 
ATOM     13  C   UNL     1      -5.770 -10.365  12.784  0.00  0.00    +0.133 C 
ATOM     14  C   UNL     1      -5.281  -9.177   9.465  0.00  0.00    +0.305 C 
ATOM     15  C   UNL     1      -3.427  -9.836  11.106  0.00  0.00    +0.128 C 
ATOM     19  C   UNL     1      -3.456 -10.954  12.149  0.00  0.00    +0.128 C 
ATOM     20  C   UNL     1      -3.921 -10.591  14.569  0.00  0.00    +0.307 C 
ATOM     28  H   UNL     1      -5.642  -9.626  15.211  0.00  0.00    +0.156 HD
ENDROOT
BRANCH   4   9
ATOM      9  C   UNL     1      -7.579  -8.563   8.577  0.00  0.00    +0.078 C 
ATOM     11  C   UNL     1      -7.630  -7.053   8.328  0.00  0.00    +0.022 C 
ATOM     12  C   UNL     1      -8.966  -9.124   8.898  0.00  0.00    +0.022 C 
ATOM     16  C   UNL     1      -8.649  -6.695   7.250  0.00  0.00    +0.002 C 
ATOM     17  C   UNL     1      -9.982  -8.763   7.817  0.00  0.00    +0.002 C 
ATOM     18  C   UNL     1     -10.032  -7.258   7.570  0.00  0.00    +0.000 C 
ENDBRANCH   4   9
BRANCH   7  21
ATOM     21  C   UNL     1      -4.961 -10.647  16.863  0.00  0.00    +0.038 A 
ATOM     22  C   UNL     1      -6.098 -10.359  17.617  0.00  0.00    +0.069 A 
ATOM     23  C   UNL     1      -3.899 -11.343  17.439  0.00  0.00    +0.023 A 
ATOM     24  C   UNL     1      -6.173 -10.766  18.950  0.00  0.00    +0.122 A 
ATOM     25  C   UNL     1      -3.973 -11.750  18.772  0.00  0.00    +0.005 A 
ATOM     26  C   UNL     1      -5.110 -11.462  19.527  0.00  0.00    +0.046 A 
BRANCH  24   3
ATOM      3  O   UNL     1      -7.282 -10.483  19.687  0.00  0.00    -0.495 OA
ATOM     27  C   UNL     1      -8.454 -11.250  19.416  0.00  0.00    +0.277 C 
ENDBRANCH  24   3
ENDBRANCH   7  21
TORSDOF 3
ENDMDL
MODEL 7
REMARK VINA RESULT:      -6.5      3.176     10.193
REMARK  Name = 75368486
REMARK  4 active torsions:
REMARK  status: ('A' for Active; 'I' for Inactive)
REMARK    1  A    between atoms: O_3  and  C_24
REMARK    2  A    between atoms: O_3  and  C_27
REMARK    3  A    between atoms: N_4  and  C_9
REMARK    4  A    between atoms: N_7  and  C_21
REMARK                            x       y       z     vdW  Elec       q    Type
REMARK                         _______ _______ _______ _____ _____    ______ ____
ROOT
ATOM      1  O   UNL     1      11.878   9.297  19.284  0.00  0.00    -0.252 OA
ATOM      2  O   UNL     1      17.965   6.023  19.366  0.00  0.00    -0.252 OA
ATOM      4  N   UNL     1      12.857  10.091  21.277  0.00  0.00    -0.281 N 
ATOM      5  N   UNL     1      14.051   8.712  19.965  0.00  0.00    -0.278 N 
ATOM      6  N   UNL     1      16.236   7.075  20.480  0.00  0.00    -0.282 N 
ATOM      7  N   UNL     1      18.443   7.215  21.298  0.00  0.00    -0.269 N 
ATOM      8  C   UNL     1      14.971   9.101  21.022  0.00  0.00    +0.112 C 
ATOM     10  C   UNL     1      14.086   9.851  22.014  0.00  0.00    +0.133 C 
ATOM     13  C   UNL     1      15.666   7.869  21.589  0.00  0.00    +0.133 C 
ATOM     14  C   UNL     1      12.812   9.361  20.073  0.00  0.00    +0.305 C 
ATOM     15  C   UNL     1      14.499   7.827  18.902  0.00  0.00    +0.128 C 
ATOM     19  C   UNL     1      15.240   6.628  19.494  0.00  0.00    +0.128 C 
ATOM     20  C   UNL     1      17.589   6.711  20.318  0.00  0.00    +0.307 C 
ATOM     28  H   UNL     1      18.192   8.089  21.746  0.00  0.00    +0.156 HD
ENDROOT
BRANCH   4   9
ATOM      9  C   UNL     1      11.780  10.880  21.826  0.00  0.00    +0.078 C 
ATOM     11  C   UNL     1      11.839  12.313  21.291  0.00  0.00    +0.022 C 
ATOM     12  C   UNL     1      11.812  10.852  23.356  0.00  0.00    +0.022 C 
ATOM     16  C   UNL     1      10.742  13.184  21.897  0.00  0.00    +0.002 C 
ATOM     17  C   UNL     1      10.714  11.725  23.957  0.00  0.00    +0.002 C 
ATOM     18  C   UNL     1      10.774  13.153  23.422  0.00  0.00    +0.000 C 
ENDBRANCH   4   9
BRANCH   7  21
ATOM     21  C   UNL     1      19.640   6.628  21.779  0.00  0.00    +0.038 A 
ATOM     22  C   UNL     1      20.318   5.690  21.001  0.00  0.00    +0.069 A 
ATOM     23  C   UNL     1      20.140   6.989  23.029  0.00  0.00    +0.023 A 
ATOM     24  C   UNL     1      21.497   5.113  21.474  0.00  0.00    +0.122 A 
ATOM     25  C   UNL     1      21.318   6.412  23.503  0.00  0.00    +0.005 A 
ATOM     26  C   UNL     1      21.997   5.474  22.726  0.00  0.00    +0.046 A 
BRANCH  24   3
ATOM      3  O   UNL     1      22.157   4.196  20.715  0.00  0.00    -0.495 OA
ATOM     27  C   UNL     1      23.035   3.301  21.398  0.00  0.00    +0.277 C 
ENDBRANCH  24   3
ENDBRANCH   7  21
TORSDOF 3
ENDMDL
MODEL 8
REMARK VINA RESULT:      -6.4     30.404     34.039
REMARK  Name = 75368486
REMARK  4 active torsions:
REMARK  status: ('A' for Active; 'I' for Inactive)
REMARK    1  A    between atoms: O_3  and  C_24
REMARK    2  A    between atoms: O_3  and  C_27
REMARK    3  A    between atoms: N_4  and  C_9
REMARK    4  A    between atoms: N_7  and  C_21
REMARK                            x       y       z     vdW  Elec       q    Type
REMARK                         _______ _______ _______ _____ _____    ______ ____
ROOT
ATOM      1  O   UNL     1     -14.367   8.770  19.594  0.00  0.00    -0.252 OA
ATOM      2  O   UNL     1     -17.928   4.985  24.151  0.00  0.00    -0.252 OA
ATOM      4  N   UNL     1     -12.744   7.244  20.367  0.00  0.00    -0.281 N 
ATOM      5  N   UNL     1     -14.853   7.048  21.118  0.00  0.00    -0.278 N 
ATOM      6  N   UNL     1     -15.923   5.831  23.375  0.00  0.00    -0.282 N 
ATOM      7  N   UNL     1     -16.003   3.718  24.420  0.00  0.00    -0.269 N 
ATOM      8  C   UNL     1     -14.154   5.905  21.683  0.00  0.00    +0.112 C 
ATOM     10  C   UNL     1     -12.689   6.174  21.348  0.00  0.00    +0.133 C 
ATOM     13  C   UNL     1     -14.460   5.788  23.171  0.00  0.00    +0.133 C 
ATOM     14  C   UNL     1     -14.032   7.807  20.271  0.00  0.00    +0.305 C 
ATOM     15  C   UNL     1     -16.271   7.232  21.378  0.00  0.00    +0.128 C 
ATOM     19  C   UNL     1     -16.559   7.057  22.869  0.00  0.00    +0.128 C 
ATOM     20  C   UNL     1     -16.711   4.847  24.008  0.00  0.00    +0.307 C 
ATOM     28  H   UNL     1     -15.170   3.461  23.900  0.00  0.00    +0.156 HD
ENDROOT
BRANCH   4   9
ATOM      9  C   UNL     1     -11.559   7.731  19.702  0.00  0.00    +0.078 C 
ATOM     11  C   UNL     1     -11.300   9.194  20.071  0.00  0.00    +0.022 C 
ATOM     12  C   UNL     1     -11.676   7.550  18.186  0.00  0.00    +0.022 C 
ATOM     16  C   UNL     1     -10.082   9.751  19.338  0.00  0.00    +0.002 C 
ATOM     17  C   UNL     1     -10.457   8.109  17.458  0.00  0.00    +0.002 C 
ATOM     18  C   UNL     1     -10.199   9.566  17.828  0.00  0.00    +0.000 C 
ENDBRANCH   4   9
BRANCH   7  21
ATOM     21  C   UNL     1     -16.294   2.877  25.522  0.00  0.00    +0.038 A 
ATOM     22  C   UNL     1     -16.083   3.334  26.823  0.00  0.00    +0.069 A 
ATOM     23  C   UNL     1     -16.791   1.592  25.306  0.00  0.00    +0.023 A 
ATOM     24  C   UNL     1     -16.369   2.506  27.909  0.00  0.00    +0.122 A 
ATOM     25  C   UNL     1     -17.078   0.763  26.391  0.00  0.00    +0.005 A 
ATOM     26  C   UNL     1     -16.867   1.220  27.693  0.00  0.00    +0.046 A 
BRANCH  24   3
ATOM      3  O   UNL     1     -16.162   2.951  29.178  0.00  0.00    -0.495 OA
ATOM     27  C   UNL     1     -14.811   3.203  29.563  0.00  0.00    +0.277 C 
ENDBRANCH  24   3
ENDBRANCH   7  21
TORSDOF 3
ENDMDL
MODEL 9
REMARK VINA RESULT:      -6.4     31.169     34.862
REMARK  Name = 75368486
REMARK  4 active torsions:
REMARK  status: ('A' for Active; 'I' for Inactive)
REMARK    1  A    between atoms: O_3  and  C_24
REMARK    2  A    between atoms: O_3  and  C_27
REMARK    3  A    between atoms: N_4  and  C_9
REMARK    4  A    between atoms: N_7  and  C_21
REMARK                            x       y       z     vdW  Elec       q    Type
REMARK                         _______ _______ _______ _____ _____    ______ ____
ROOT
ATOM      1  O   UNL     1     -15.887   6.539  19.417  0.00  0.00    -0.252 OA
ATOM      2  O   UNL     1     -18.046   3.078  24.996  0.00  0.00    -0.252 OA
ATOM      4  N   UNL     1     -14.129   6.895  20.948  0.00  0.00    -0.281 N 
ATOM      5  N   UNL     1     -15.836   5.564  21.554  0.00  0.00    -0.278 N 
ATOM      6  N   UNL     1     -16.777   4.756  24.041  0.00  0.00    -0.282 N 
ATOM      7  N   UNL     1     -16.026   3.650  25.983  0.00  0.00    -0.269 N 
ATOM      8  C   UNL     1     -14.889   5.473  22.655  0.00  0.00    +0.112 C 
ATOM     10  C   UNL     1     -13.852   6.544  22.330  0.00  0.00    +0.133 C 
ATOM     13  C   UNL     1     -15.612   5.663  23.983  0.00  0.00    +0.133 C 
ATOM     14  C   UNL     1     -15.351   6.353  20.501  0.00  0.00    +0.305 C 
ATOM     15  C   UNL     1     -17.071   4.799  21.594  0.00  0.00    +0.128 C 
ATOM     19  C   UNL     1     -17.748   4.964  22.955  0.00  0.00    +0.128 C 
ATOM     20  C   UNL     1     -17.029   3.774  25.022  0.00  0.00    +0.307 C 
ATOM     28  H   UNL     1     -15.076   3.884  25.715  0.00  0.00    +0.156 HD
ENDROOT
BRANCH   4   9
ATOM      9  C   UNL     1     -13.293   7.811  20.210  0.00  0.00    +0.078 C 
ATOM     11  C   UNL     1     -12.149   7.060  19.525  0.00  0.00    +0.022 C 
ATOM     12  C   UNL     1     -12.766   8.920  21.124  0.00  0.00    +0.022 C 
ATOM     16  C   UNL     1     -11.218   8.013  18.781  0.00  0.00    +0.002 C 
ATOM     17  C   UNL     1     -11.834   9.869  20.376  0.00  0.00    +0.002 C 
ATOM     18  C   UNL     1     -10.695   9.119  19.693  0.00  0.00    +0.000 C 
ENDBRANCH   4   9
BRANCH   7  21
ATOM     21  C   UNL     1     -16.177   3.251  27.334  0.00  0.00    +0.038 A 
ATOM     22  C   UNL     1     -16.045   1.907  27.683  0.00  0.00    +0.069 A 
ATOM     23  C   UNL     1     -16.455   4.202  28.315  0.00  0.00    +0.023 A 
ATOM     24  C   UNL     1     -16.192   1.514  29.014  0.00  0.00    +0.122 A 
ATOM     25  C   UNL     1     -16.603   3.810  29.645  0.00  0.00    +0.005 A 
ATOM     26  C   UNL     1     -16.472   2.466  29.995  0.00  0.00    +0.046 A 
BRANCH  24   3
ATOM      3  O   UNL     1     -16.066   0.203  29.354  0.00  0.00    -0.495 OA
ATOM     27  C   UNL     1     -15.323  -0.092  30.536  0.00  0.00    +0.277 C 
ENDBRANCH  24   3
ENDBRANCH   7  21
TORSDOF 3
ENDMDL
MODEL 10
REMARK VINA RESULT:      -6.3     28.829     31.491
REMARK  Name = 75368486
REMARK  4 active torsions:
REMARK  status: ('A' for Active; 'I' for Inactive)
REMARK    1  A    between atoms: O_3  and  C_24
REMARK    2  A    between atoms: O_3  and  C_27
REMARK    3  A    between atoms: N_4  and  C_9
REMARK    4  A    between atoms: N_7  and  C_21
REMARK                            x       y       z     vdW  Elec       q    Type
REMARK                         _______ _______ _______ _____ _____    ______ ____
ROOT
ATOM      1  O   UNL     1      -2.057 -10.777  14.743  0.00  0.00    -0.252 OA
ATOM      2  O   UNL     1      -6.674 -10.826  19.886  0.00  0.00    -0.252 OA
ATOM      4  N   UNL     1      -4.109 -10.665  13.586  0.00  0.00    -0.281 N 
ATOM      5  N   UNL     1      -4.134 -10.639  15.833  0.00  0.00    -0.278 N 
ATOM      6  N   UNL     1      -6.119 -11.242  17.682  0.00  0.00    -0.282 N 
ATOM      7  N   UNL     1      -8.309 -10.585  18.258  0.00  0.00    -0.269 N 
ATOM      8  C   UNL     1      -5.522 -10.437  15.447  0.00  0.00    +0.112 C 
ATOM     10  C   UNL     1      -5.517 -10.678  13.940  0.00  0.00    +0.133 C 
ATOM     13  C   UNL     1      -6.426 -11.371  16.242  0.00  0.00    +0.133 C 
ATOM     14  C   UNL     1      -3.278 -10.700  14.724  0.00  0.00    +0.305 C 
ATOM     15  C   UNL     1      -3.767 -10.653  17.239  0.00  0.00    +0.128 C 
ATOM     19  C   UNL     1      -4.722 -11.553  18.023  0.00  0.00    +0.128 C 
ATOM     20  C   UNL     1      -7.023 -10.885  18.704  0.00  0.00    +0.307 C 
ATOM     28  H   UNL     1      -8.414 -10.213  17.320  0.00  0.00    +0.156 HD
ENDROOT
BRANCH   4   9
ATOM      9  C   UNL     1      -3.665 -10.753  12.215  0.00  0.00    +0.078 C 
ATOM     11  C   UNL     1      -4.161  -9.547  11.414  0.00  0.00    +0.022 C 
ATOM     12  C   UNL     1      -4.119 -12.070  11.581  0.00  0.00    +0.022 C 
ATOM     16  C   UNL     1      -3.750  -9.640   9.946  0.00  0.00    +0.002 C 
ATOM     17  C   UNL     1      -3.707 -12.159  10.114  0.00  0.00    +0.002 C 
ATOM     18  C   UNL     1      -4.201 -10.956   9.317  0.00  0.00    +0.000 C 
ENDBRANCH   4   9
BRANCH   7  21
ATOM     21  C   UNL     1      -9.526 -10.764  18.961  0.00  0.00    +0.038 A 
ATOM     22  C   UNL     1      -9.735 -11.924  19.707  0.00  0.00    +0.069 A 
ATOM     23  C   UNL     1     -10.514  -9.782  18.907  0.00  0.00    +0.023 A 
ATOM     24  C   UNL     1     -10.934 -12.100  20.400  0.00  0.00    +0.122 A 
ATOM     25  C   UNL     1     -11.712  -9.958  19.599  0.00  0.00    +0.005 A 
ATOM     26  C   UNL     1     -11.922 -11.117  20.346  0.00  0.00    +0.046 A 
BRANCH  24   3
ATOM      3  O   UNL     1     -11.138 -13.233  21.127  0.00  0.00    -0.495 OA
ATOM     27  C   UNL     1     -12.333 -13.297  21.905  0.00  0.00    +0.277 C 
ENDBRANCH  24   3
ENDBRANCH   7  21
TORSDOF 3
ENDMDL
