REMARK  Name = 45784180
REMARK  4 active torsions:
REMARK  status: ('A' for Active; 'I' for Inactive)
REMARK    1  A    between atoms: N_3  and  C_9
REMARK    2  A    between atoms: C_5  and  C_10
REMARK    3  A    between atoms: C_9  and  C_11
REMARK    4  A    between atoms: C_12  and  C_17
REMARK                            x       y       z     vdW  Elec       q    Type
REMARK                         _______ _______ _______ _____ _____    ______ ____
ROOT
ATOM      3  N   UNL     1      -1.838  -0.147  -0.018  0.00  0.00    -0.297 NA
ATOM      5  C   UNL     1       0.341  -0.725   0.628  0.00  0.00    +0.090 C 
ATOM      6  C   UNL     1      -0.544  -0.501  -0.605  0.00  0.00    +0.097 C 
ATOM      7  C   UNL     1      -0.321   0.108   1.739  0.00  0.00    +0.029 C 
ATOM      8  C   UNL     1      -1.517   0.775   1.072  0.00  0.00    +0.085 C 
ENDROOT
BRANCH   5  10
ATOM      1 CL   UNL     1       7.420   1.613  -0.816  0.00  0.00    -0.083 Cl
ATOM      2  O   UNL     1       2.671  -1.434   0.546  0.00  0.00    -0.439 OA
ATOM      4  N   UNL     1       2.329   0.741   0.009  0.00  0.00    -0.213 NA
ATOM     10  C   UNL     1       1.796  -0.404   0.375  0.00  0.00    +0.201 A 
ATOM     13  C   UNL     1       3.671   0.454  -0.071  0.00  0.00    +0.111 A 
ATOM     14  C   UNL     1       3.884  -0.876   0.257  0.00  0.00    +0.155 A 
ATOM     18  C   UNL     1       4.772   1.253  -0.411  0.00  0.00    +0.051 A 
ATOM     19  C   UNL     1       5.126  -1.498   0.277  0.00  0.00    +0.050 A 
ATOM     22  C   UNL     1       6.043   0.661  -0.402  0.00  0.00    +0.043 A 
ATOM     23  C   UNL     1       6.214  -0.687  -0.065  0.00  0.00    +0.024 A 
ENDBRANCH   5  10
BRANCH   3   9
ATOM      9  C   UNL     1      -2.748   0.440  -0.990  0.00  0.00    +0.119 C 
BRANCH   9  11
ATOM     11  C   UNL     1      -4.177   0.397  -0.518  0.00  0.00    -0.030 A 
ATOM     12  C   UNL     1      -4.910  -0.789  -0.557  0.00  0.00    -0.046 A 
ATOM     15  C   UNL     1      -4.767   1.566  -0.038  0.00  0.00    +0.005 A 
ATOM     16  C   UNL     1      -6.232  -0.806  -0.115  0.00  0.00    +0.003 A 
ATOM     17  C   UNL     1      -4.300  -2.053  -1.067  0.00  0.00    +0.044 C 
ATOM     20  C   UNL     1      -6.090   1.549   0.404  0.00  0.00    +0.000 A 
ATOM     21  C   UNL     1      -6.822   0.363   0.366  0.00  0.00    +0.000 A 
ENDBRANCH   9  11
ENDBRANCH   3   9
TORSDOF 3
