MODEL 1
REMARK VINA RESULT:      -7.0      0.000      0.000
REMARK  Name = 40777669
REMARK  9 active torsions:
REMARK  status: ('A' for Active; 'I' for Inactive)
REMARK    1  A    between atoms: N_5  and  C_11
REMARK    2  A    between atoms: N_6  and  C_20
REMARK    3  A    between atoms: N_8  and  C_21
REMARK    4  A    between atoms: C_9  and  C_12
REMARK    5  A    between atoms: C_15  and  C_17
REMARK    6  A    between atoms: C_16  and  C_18
REMARK    7  A    between atoms: C_21  and  C_27
REMARK    8  A    between atoms: C_21  and  C_28
REMARK    9  A    between atoms: C_26  and  C_29
REMARK                            x       y       z     vdW  Elec       q    Type
REMARK                         _______ _______ _______ _____ _____    ______ ____
ROOT
ATOM      6  N   UNL     1     -14.540   6.201  22.077  0.00  0.00    -0.236 N 
ATOM      7  N   UNL     1     -15.852   6.425  21.891  0.00  0.00    -0.171 NA
ATOM     12  C   UNL     1     -15.492   4.661  23.298  0.00  0.00    +0.003 A 
ATOM     15  C   UNL     1     -14.271   5.155  22.911  0.00  0.00    +0.046 A 
ATOM     16  C   UNL     1     -16.429   5.481  22.640  0.00  0.00    +0.064 A 
ATOM     17  C   UNL     1     -12.901   4.728  23.258  0.00  0.00    +0.066 C 
ATOM     18  C   UNL     1     -17.900   5.398  22.695  0.00  0.00    +0.068 C 
ENDROOT
BRANCH   6  20
ATOM     20  C   UNL     1     -13.603   7.012  21.436  0.00  0.00    +0.066 A 
ATOM     22  C   UNL     1     -13.709   8.400  21.519  0.00  0.00    +0.028 A 
ATOM     23  C   UNL     1     -12.562   6.435  20.709  0.00  0.00    +0.028 A 
ATOM     24  C   UNL     1     -12.775   9.212  20.876  0.00  0.00    +0.014 A 
ATOM     25  C   UNL     1     -11.627   7.246  20.064  0.00  0.00    +0.014 A 
ATOM     26  C   UNL     1     -11.734   8.635  20.148  0.00  0.00    +0.055 A 
BRANCH  26  29
ATOM      1  F   UNL     1     -10.903  10.833  19.706  0.00  0.00    -0.166 F 
ATOM      2  F   UNL     1     -10.773   9.371  18.102  0.00  0.00    -0.166 F 
ATOM      3  F   UNL     1      -9.442   9.233  19.816  0.00  0.00    -0.166 F 
ATOM     29  C   UNL     1     -10.733   9.501  19.460  0.00  0.00    +0.417 C 
ENDBRANCH  26  29
ENDBRANCH   6  20
BRANCH  12   9
ATOM      9  C   UNL     1     -15.766   3.497  24.223  0.00  0.00    +0.047 C 
ATOM     10  C   UNL     1     -16.182   3.931  25.641  0.00  0.00    +0.039 C 
ATOM     11  C   UNL     1     -17.188   2.877  26.134  0.00  0.00    +0.098 C 
ATOM     13  C   UNL     1     -16.914   2.624  23.808  0.00  0.00    -0.021 C 
ATOM     14  C   UNL     1     -17.679   2.283  24.851  0.00  0.00    -0.009 C 
BRANCH  11   5
ATOM      4  O   UNL     1     -16.402   3.154  28.911  0.00  0.00    -0.253 OA
ATOM      5  N   UNL     1     -16.556   1.872  26.981  0.00  0.00    -0.293 N 
ATOM      8  N   UNL     1     -15.624   0.968  28.888  0.00  0.00    -0.297 N 
ATOM     19  C   UNL     1     -16.211   2.095  28.316  0.00  0.00    +0.300 C 
ATOM     30  H   UNL     1     -16.320   0.973  26.569  0.00  0.00    +0.151 HD
ATOM     31  H   UNL     1     -15.440   0.166  28.293  0.00  0.00    +0.150 HD
BRANCH   8  21
ATOM     21  C   UNL     1     -15.173   0.931  30.259  0.00  0.00    +0.068 C 
ATOM     27  C   UNL     1     -13.735   1.423  30.357  0.00  0.00    +0.027 C 
ATOM     28  C   UNL     1     -15.316  -0.473  30.831  0.00  0.00    +0.027 C 
ENDBRANCH   8  21
ENDBRANCH  11   5
ENDBRANCH  12   9
TORSDOF 5
ENDMDL
MODEL 2
REMARK VINA RESULT:      -7.0     17.534     18.533
REMARK  Name = 40777669
REMARK  9 active torsions:
REMARK  status: ('A' for Active; 'I' for Inactive)
REMARK    1  A    between atoms: N_5  and  C_11
REMARK    2  A    between atoms: N_6  and  C_20
REMARK    3  A    between atoms: N_8  and  C_21
REMARK    4  A    between atoms: C_9  and  C_12
REMARK    5  A    between atoms: C_15  and  C_17
REMARK    6  A    between atoms: C_16  and  C_18
REMARK    7  A    between atoms: C_21  and  C_27
REMARK    8  A    between atoms: C_21  and  C_28
REMARK    9  A    between atoms: C_26  and  C_29
REMARK                            x       y       z     vdW  Elec       q    Type
REMARK                         _______ _______ _______ _____ _____    ______ ____
ROOT
ATOM      6  N   UNL     1      -6.903 -10.304  17.016  0.00  0.00    -0.236 N 
ATOM      7  N   UNL     1      -7.597  -9.176  16.785  0.00  0.00    -0.171 NA
ATOM     12  C   UNL     1      -8.785 -10.647  18.068  0.00  0.00    +0.003 A 
ATOM     15  C   UNL     1      -7.570 -11.217  17.778  0.00  0.00    +0.046 A 
ATOM     16  C   UNL     1      -8.746  -9.393  17.431  0.00  0.00    +0.064 A 
ATOM     17  C   UNL     1      -7.002 -12.527  18.155  0.00  0.00    +0.066 C 
ATOM     18  C   UNL     1      -9.795  -8.356  17.411  0.00  0.00    +0.068 C 
ENDROOT
BRANCH   6  20
ATOM     20  C   UNL     1      -5.620 -10.447  16.484  0.00  0.00    +0.066 A 
ATOM     22  C   UNL     1      -5.444 -10.535  15.103  0.00  0.00    +0.028 A 
ATOM     23  C   UNL     1      -4.515 -10.505  17.333  0.00  0.00    +0.028 A 
ATOM     24  C   UNL     1      -4.163 -10.681  14.571  0.00  0.00    +0.014 A 
ATOM     25  C   UNL     1      -3.234 -10.652  16.802  0.00  0.00    +0.014 A 
ATOM     26  C   UNL     1      -3.057 -10.739  15.421  0.00  0.00    +0.055 A 
BRANCH  26  29
ATOM      1  F   UNL     1      -1.453 -10.105  13.764  0.00  0.00    -0.166 F 
ATOM      2  F   UNL     1      -1.431 -12.171  14.442  0.00  0.00    -0.166 F 
ATOM      3  F   UNL     1      -0.691 -10.589  15.737  0.00  0.00    -0.166 F 
ATOM     29  C   UNL     1      -1.687 -10.895  14.854  0.00  0.00    +0.417 C 
ENDBRANCH  26  29
ENDBRANCH   6  20
BRANCH  12   9
ATOM      9  C   UNL     1      -9.911 -11.238  18.885  0.00  0.00    +0.047 C 
ATOM     10  C   UNL     1     -10.450 -10.278  19.962  0.00  0.00    +0.039 C 
ATOM     11  C   UNL     1     -11.957 -10.564  20.076  0.00  0.00    +0.098 C 
ATOM     13  C   UNL     1     -11.148 -11.568  18.104  0.00  0.00    -0.021 C 
ATOM     14  C   UNL     1     -12.258 -11.207  18.757  0.00  0.00    -0.009 C 
BRANCH  11   5
ATOM      4  O   UNL     1     -14.482 -10.840  21.473  0.00  0.00    -0.253 OA
ATOM      5  N   UNL     1     -12.262 -11.458  21.186  0.00  0.00    -0.293 N 
ATOM      8  N   UNL     1     -13.530 -12.460  22.833  0.00  0.00    -0.297 N 
ATOM     19  C   UNL     1     -13.515 -11.524  21.801  0.00  0.00    +0.300 C 
ATOM     30  H   UNL     1     -11.516 -12.038  21.559  0.00  0.00    +0.151 HD
ATOM     31  H   UNL     1     -12.660 -12.922  23.078  0.00  0.00    +0.150 HD
BRANCH   8  21
ATOM     21  C   UNL     1     -14.703 -12.725  23.632  0.00  0.00    +0.068 C 
ATOM     27  C   UNL     1     -14.548 -12.114  25.019  0.00  0.00    +0.027 C 
ATOM     28  C   UNL     1     -14.967 -14.223  23.715  0.00  0.00    +0.027 C 
ENDBRANCH   8  21
ENDBRANCH  11   5
ENDBRANCH  12   9
TORSDOF 5
ENDMDL
MODEL 3
REMARK VINA RESULT:      -7.0     21.749     23.906
REMARK  Name = 40777669
REMARK  9 active torsions:
REMARK  status: ('A' for Active; 'I' for Inactive)
REMARK    1  A    between atoms: N_5  and  C_11
REMARK    2  A    between atoms: N_6  and  C_20
REMARK    3  A    between atoms: N_8  and  C_21
REMARK    4  A    between atoms: C_9  and  C_12
REMARK    5  A    between atoms: C_15  and  C_17
REMARK    6  A    between atoms: C_16  and  C_18
REMARK    7  A    between atoms: C_21  and  C_27
REMARK    8  A    between atoms: C_21  and  C_28
REMARK    9  A    between atoms: C_26  and  C_29
REMARK                            x       y       z     vdW  Elec       q    Type
REMARK                         _______ _______ _______ _____ _____    ______ ____
ROOT
ATOM      6  N   UNL     1      -4.178 -10.610  14.223  0.00  0.00    -0.236 N 
ATOM      7  N   UNL     1      -2.842 -10.591  14.078  0.00  0.00    -0.171 NA
ATOM     12  C   UNL     1      -3.908 -10.219  12.092  0.00  0.00    +0.003 A 
ATOM     15  C   UNL     1      -4.862 -10.394  13.063  0.00  0.00    +0.046 A 
ATOM     16  C   UNL     1      -2.684 -10.351  12.774  0.00  0.00    +0.064 A 
ATOM     17  C   UNL     1      -6.337 -10.372  12.985  0.00  0.00    +0.066 C 
ATOM     18  C   UNL     1      -1.323 -10.257  12.214  0.00  0.00    +0.068 C 
ENDROOT
BRANCH   6  20
ATOM     20  C   UNL     1      -4.733 -10.840  15.483  0.00  0.00    +0.066 A 
ATOM     22  C   UNL     1      -4.734 -12.126  16.020  0.00  0.00    +0.028 A 
ATOM     23  C   UNL     1      -5.291  -9.783  16.202  0.00  0.00    +0.028 A 
ATOM     24  C   UNL     1      -5.292 -12.357  17.278  0.00  0.00    +0.014 A 
ATOM     25  C   UNL     1      -5.850 -10.013  17.460  0.00  0.00    +0.014 A 
ATOM     26  C   UNL     1      -5.850 -11.300  17.998  0.00  0.00    +0.055 A 
BRANCH  26  29
ATOM      1  F   UNL     1      -5.552 -11.423  20.368  0.00  0.00    -0.166 F 
ATOM      2  F   UNL     1      -6.972 -12.799  19.463  0.00  0.00    -0.166 F 
ATOM      3  F   UNL     1      -7.465 -10.690  19.654  0.00  0.00    -0.166 F 
ATOM     29  C   UNL     1      -6.446 -11.545  19.343  0.00  0.00    +0.417 C 
ENDBRANCH  26  29
ENDBRANCH   6  20
BRANCH  12   9
ATOM      9  C   UNL     1      -4.126  -9.948  10.621  0.00  0.00    +0.047 C 
ATOM     10  C   UNL     1      -5.028 -10.993   9.937  0.00  0.00    +0.039 C 
ATOM     11  C   UNL     1      -5.827 -10.233   8.864  0.00  0.00    +0.098 C 
ATOM     13  C   UNL     1      -4.842  -8.664  10.319  0.00  0.00    -0.021 C 
ATOM     14  C   UNL     1      -5.759  -8.822   9.359  0.00  0.00    -0.009 C 
BRANCH  11   5
ATOM      4  O   UNL     1      -6.154 -12.422   6.991  0.00  0.00    -0.253 OA
ATOM      5  N   UNL     1      -5.228 -10.364   7.541  0.00  0.00    -0.293 N 
ATOM      8  N   UNL     1      -4.752 -11.330   5.500  0.00  0.00    -0.297 N 
ATOM     19  C   UNL     1      -5.444 -11.461   6.703  0.00  0.00    +0.300 C 
ATOM     30  H   UNL     1      -4.591  -9.639   7.225  0.00  0.00    +0.151 HD
ATOM     31  H   UNL     1      -4.132 -10.535   5.385  0.00  0.00    +0.150 HD
BRANCH   8  21
ATOM     21  C   UNL     1      -4.803 -12.325   4.456  0.00  0.00    +0.068 C 
ATOM     27  C   UNL     1      -3.460 -12.412   3.742  0.00  0.00    +0.027 C 
ATOM     28  C   UNL     1      -5.929 -12.017   3.477  0.00  0.00    +0.027 C 
ENDBRANCH   8  21
ENDBRANCH  11   5
ENDBRANCH  12   9
TORSDOF 5
ENDMDL
MODEL 4
REMARK VINA RESULT:      -6.9     21.417     23.643
REMARK  Name = 40777669
REMARK  9 active torsions:
REMARK  status: ('A' for Active; 'I' for Inactive)
REMARK    1  A    between atoms: N_5  and  C_11
REMARK    2  A    between atoms: N_6  and  C_20
REMARK    3  A    between atoms: N_8  and  C_21
REMARK    4  A    between atoms: C_9  and  C_12
REMARK    5  A    between atoms: C_15  and  C_17
REMARK    6  A    between atoms: C_16  and  C_18
REMARK    7  A    between atoms: C_21  and  C_27
REMARK    8  A    between atoms: C_21  and  C_28
REMARK    9  A    between atoms: C_26  and  C_29
REMARK                            x       y       z     vdW  Elec       q    Type
REMARK                         _______ _______ _______ _____ _____    ______ ____
ROOT
ATOM      6  N   UNL     1      -4.606 -11.808  14.086  0.00  0.00    -0.236 N 
ATOM      7  N   UNL     1      -3.952 -12.918  13.705  0.00  0.00    -0.171 NA
ATOM     12  C   UNL     1      -4.300 -11.502  11.946  0.00  0.00    +0.003 A 
ATOM     15  C   UNL     1      -4.840 -10.928  13.070  0.00  0.00    +0.046 A 
ATOM     16  C   UNL     1      -3.767 -12.725  12.396  0.00  0.00    +0.064 A 
ATOM     17  C   UNL     1      -5.543  -9.643  13.257  0.00  0.00    +0.066 C 
ATOM     18  C   UNL     1      -3.068 -13.753  11.604  0.00  0.00    +0.068 C 
ENDROOT
BRANCH   6  20
ATOM     20  C   UNL     1      -4.978 -11.649  15.422  0.00  0.00    +0.066 A 
ATOM     22  C   UNL     1      -6.221 -12.108  15.859  0.00  0.00    +0.028 A 
ATOM     23  C   UNL     1      -4.109 -11.028  16.319  0.00  0.00    +0.028 A 
ATOM     24  C   UNL     1      -6.595 -11.947  17.193  0.00  0.00    +0.014 A 
ATOM     25  C   UNL     1      -4.483 -10.866  17.653  0.00  0.00    +0.014 A 
ATOM     26  C   UNL     1      -5.726 -11.326  18.091  0.00  0.00    +0.055 A 
BRANCH  26  29
ATOM      1  F   UNL     1      -6.286  -9.849  19.886  0.00  0.00    -0.166 F 
ATOM      2  F   UNL     1      -5.203 -11.667  20.385  0.00  0.00    -0.166 F 
ATOM      3  F   UNL     1      -7.304 -11.763  19.834  0.00  0.00    -0.166 F 
ATOM     29  C   UNL     1      -6.124 -11.153  19.517  0.00  0.00    +0.417 C 
ENDBRANCH  26  29
ENDBRANCH   6  20
BRANCH  12   9
ATOM      9  C   UNL     1      -4.283 -10.944  10.541  0.00  0.00    +0.047 C 
ATOM     10  C   UNL     1      -5.623 -10.307  10.124  0.00  0.00    +0.039 C 
ATOM     11  C   UNL     1      -5.268  -9.128   9.202  0.00  0.00    +0.098 C 
ATOM     13  C   UNL     1      -3.315  -9.819  10.324  0.00  0.00    -0.021 C 
ATOM     14  C   UNL     1      -3.851  -8.838   9.590  0.00  0.00    -0.009 C 
BRANCH  11   5
ATOM      4  O   UNL     1      -7.633  -9.021   7.530  0.00  0.00    -0.253 OA
ATOM      5  N   UNL     1      -5.373  -9.485   7.792  0.00  0.00    -0.293 N 
ATOM      8  N   UNL     1      -6.379  -9.801   5.741  0.00  0.00    -0.297 N 
ATOM     19  C   UNL     1      -6.561  -9.401   7.063  0.00  0.00    +0.300 C 
ATOM     30  H   UNL     1      -4.548  -9.849   7.323  0.00  0.00    +0.151 HD
ATOM     31  H   UNL     1      -5.473 -10.170   5.469  0.00  0.00    +0.150 HD
BRANCH   8  21
ATOM     21  C   UNL     1      -7.450  -9.811   4.771  0.00  0.00    +0.068 C 
ATOM     27  C   UNL     1      -7.195 -10.876   3.712  0.00  0.00    +0.027 C 
ATOM     28  C   UNL     1      -7.613  -8.434   4.142  0.00  0.00    +0.027 C 
ENDBRANCH   8  21
ENDBRANCH  11   5
ENDBRANCH  12   9
TORSDOF 5
ENDMDL
MODEL 5
REMARK VINA RESULT:      -6.8     30.810     34.326
REMARK  Name = 40777669
REMARK  9 active torsions:
REMARK  status: ('A' for Active; 'I' for Inactive)
REMARK    1  A    between atoms: N_5  and  C_11
REMARK    2  A    between atoms: N_6  and  C_20
REMARK    3  A    between atoms: N_8  and  C_21
REMARK    4  A    between atoms: C_9  and  C_12
REMARK    5  A    between atoms: C_15  and  C_17
REMARK    6  A    between atoms: C_16  and  C_18
REMARK    7  A    between atoms: C_21  and  C_27
REMARK    8  A    between atoms: C_21  and  C_28
REMARK    9  A    between atoms: C_26  and  C_29
REMARK                            x       y       z     vdW  Elec       q    Type
REMARK                         _______ _______ _______ _____ _____    ______ ____
ROOT
ATOM      6  N   UNL     1      20.758   6.013  21.324  0.00  0.00    -0.236 N 
ATOM      7  N   UNL     1      20.889   7.125  22.067  0.00  0.00    -0.171 NA
ATOM     12  C   UNL     1      18.896   7.089  20.951  0.00  0.00    +0.003 A 
ATOM     15  C   UNL     1      19.583   5.944  20.636  0.00  0.00    +0.046 A 
ATOM     16  C   UNL     1      19.747   7.778  21.835  0.00  0.00    +0.064 A 
ATOM     17  C   UNL     1      19.225   4.813  19.755  0.00  0.00    +0.066 C 
ATOM     18  C   UNL     1      19.511   9.079  22.488  0.00  0.00    +0.068 C 
ENDROOT
BRANCH   6  20
ATOM     20  C   UNL     1      21.783   5.064  21.313  0.00  0.00    +0.066 A 
ATOM     22  C   UNL     1      21.769   4.014  22.230  0.00  0.00    +0.028 A 
ATOM     23  C   UNL     1      22.821   5.170  20.388  0.00  0.00    +0.028 A 
ATOM     24  C   UNL     1      22.794   3.068  22.222  0.00  0.00    +0.014 A 
ATOM     25  C   UNL     1      23.847   4.225  20.380  0.00  0.00    +0.014 A 
ATOM     26  C   UNL     1      23.833   3.173  21.297  0.00  0.00    +0.055 A 
BRANCH  26  29
ATOM      1  F   UNL     1      24.492   0.883  21.092  0.00  0.00    -0.166 F 
ATOM      2  F   UNL     1      25.629   2.135  22.459  0.00  0.00    -0.166 F 
ATOM      3  F   UNL     1      25.860   2.374  20.310  0.00  0.00    -0.166 F 
ATOM     29  C   UNL     1      24.929   2.162  21.287  0.00  0.00    +0.417 C 
ENDBRANCH  26  29
ENDBRANCH   6  20
BRANCH  12   9
ATOM      9  C   UNL     1      17.532   7.514  20.457  0.00  0.00    +0.047 C 
ATOM     10  C   UNL     1      16.870   6.476  19.531  0.00  0.00    +0.039 C 
ATOM     11  C   UNL     1      15.359   6.556  19.808  0.00  0.00    +0.098 C 
ATOM     13  C   UNL     1      16.500   7.684  21.533  0.00  0.00    -0.021 C 
ATOM     14  C   UNL     1      15.319   7.170  21.173  0.00  0.00    -0.009 C 
BRANCH  11   5
ATOM      4  O   UNL     1      12.535   6.521  19.150  0.00  0.00    -0.253 OA
ATOM      5  N   UNL     1      14.667   7.387  18.829  0.00  0.00    -0.293 N 
ATOM      8  N   UNL     1      12.896   8.207  17.598  0.00  0.00    -0.297 N 
ATOM     19  C   UNL     1      13.295   7.300  18.578  0.00  0.00    +0.300 C 
ATOM     30  H   UNL     1      15.215   8.037  18.274  0.00  0.00    +0.151 HD
ATOM     31  H   UNL     1      13.611   8.757  17.130  0.00  0.00    +0.150 HD
BRANCH   8  21
ATOM     21  C   UNL     1      11.529   8.324  17.149  0.00  0.00    +0.068 C 
ATOM     27  C   UNL     1      11.453   9.197  15.904  0.00  0.00    +0.027 C 
ATOM     28  C   UNL     1      10.646   8.871  18.263  0.00  0.00    +0.027 C 
ENDBRANCH   8  21
ENDBRANCH  11   5
ENDBRANCH  12   9
TORSDOF 5
ENDMDL
MODEL 6
REMARK VINA RESULT:      -6.8     27.308     30.857
REMARK  Name = 40777669
REMARK  9 active torsions:
REMARK  status: ('A' for Active; 'I' for Inactive)
REMARK    1  A    between atoms: N_5  and  C_11
REMARK    2  A    between atoms: N_6  and  C_20
REMARK    3  A    between atoms: N_8  and  C_21
REMARK    4  A    between atoms: C_9  and  C_12
REMARK    5  A    between atoms: C_15  and  C_17
REMARK    6  A    between atoms: C_16  and  C_18
REMARK    7  A    between atoms: C_21  and  C_27
REMARK    8  A    between atoms: C_21  and  C_28
REMARK    9  A    between atoms: C_26  and  C_29
REMARK                            x       y       z     vdW  Elec       q    Type
REMARK                         _______ _______ _______ _____ _____    ______ ____
ROOT
ATOM      6  N   UNL     1      13.135  10.011  21.965  0.00  0.00    -0.236 N 
ATOM      7  N   UNL     1      12.488   8.842  21.822  0.00  0.00    -0.171 NA
ATOM     12  C   UNL     1      14.607   8.739  20.974  0.00  0.00    +0.003 A 
ATOM     15  C   UNL     1      14.407  10.002  21.473  0.00  0.00    +0.046 A 
ATOM     16  C   UNL     1      13.393   8.069  21.216  0.00  0.00    +0.064 A 
ATOM     17  C   UNL     1      15.303  11.176  21.521  0.00  0.00    +0.066 C 
ATOM     18  C   UNL     1      13.047   6.676  20.880  0.00  0.00    +0.068 C 
ENDROOT
BRANCH   6  20
ATOM     20  C   UNL     1      12.489  11.089  22.574  0.00  0.00    +0.066 A 
ATOM     22  C   UNL     1      12.799  11.434  23.889  0.00  0.00    +0.028 A 
ATOM     23  C   UNL     1      11.532  11.817  21.868  0.00  0.00    +0.028 A 
ATOM     24  C   UNL     1      12.151  12.509  24.499  0.00  0.00    +0.014 A 
ATOM     25  C   UNL     1      10.884  12.891  22.477  0.00  0.00    +0.014 A 
ATOM     26  C   UNL     1      11.193  13.238  23.793  0.00  0.00    +0.055 A 
BRANCH  26  29
ATOM      1  F   UNL     1      10.114  14.136  25.729  0.00  0.00    -0.166 F 
ATOM      2  F   UNL     1       9.364  14.756  23.784  0.00  0.00    -0.166 F 
ATOM      3  F   UNL     1      11.265  15.517  24.515  0.00  0.00    -0.166 F 
ATOM     29  C   UNL     1      10.501  14.387  24.444  0.00  0.00    +0.417 C 
ENDBRANCH  26  29
ENDBRANCH   6  20
BRANCH  12   9
ATOM      9  C   UNL     1      15.852   8.194  20.312  0.00  0.00    +0.047 C 
ATOM     10  C   UNL     1      16.708   7.323  21.251  0.00  0.00    +0.039 C 
ATOM     11  C   UNL     1      17.334   6.229  20.368  0.00  0.00    +0.098 C 
ATOM     13  C   UNL     1      15.596   7.265  19.162  0.00  0.00    -0.021 C 
ATOM     14  C   UNL     1      16.408   6.203  19.192  0.00  0.00    -0.009 C 
BRANCH  11   5
ATOM      4  O   UNL     1      19.737   6.047  21.979  0.00  0.00    -0.253 OA
ATOM      5  N   UNL     1      18.696   6.561  19.968  0.00  0.00    -0.293 N 
ATOM      8  N   UNL     1      20.978   6.824  20.180  0.00  0.00    -0.297 N 
ATOM     19  C   UNL     1      19.799   6.441  20.816  0.00  0.00    +0.300 C 
ATOM     30  H   UNL     1      18.848   6.934  19.035  0.00  0.00    +0.151 HD
ATOM     31  H   UNL     1      20.917   7.207  19.241  0.00  0.00    +0.150 HD
BRANCH   8  21
ATOM     21  C   UNL     1      22.265   6.796  20.833  0.00  0.00    +0.068 C 
ATOM     27  C   UNL     1      23.128   7.956  20.354  0.00  0.00    +0.027 C 
ATOM     28  C   UNL     1      22.956   5.460  20.596  0.00  0.00    +0.027 C 
ENDBRANCH   8  21
ENDBRANCH  11   5
ENDBRANCH  12   9
TORSDOF 5
ENDMDL
MODEL 7
REMARK VINA RESULT:      -6.7      6.430     12.300
REMARK  Name = 40777669
REMARK  9 active torsions:
REMARK  status: ('A' for Active; 'I' for Inactive)
REMARK    1  A    between atoms: N_5  and  C_11
REMARK    2  A    between atoms: N_6  and  C_20
REMARK    3  A    between atoms: N_8  and  C_21
REMARK    4  A    between atoms: C_9  and  C_12
REMARK    5  A    between atoms: C_15  and  C_17
REMARK    6  A    between atoms: C_16  and  C_18
REMARK    7  A    between atoms: C_21  and  C_27
REMARK    8  A    between atoms: C_21  and  C_28
REMARK    9  A    between atoms: C_26  and  C_29
REMARK                            x       y       z     vdW  Elec       q    Type
REMARK                         _______ _______ _______ _____ _____    ______ ____
ROOT
ATOM      6  N   UNL     1     -12.408   7.576  19.961  0.00  0.00    -0.236 N 
ATOM      7  N   UNL     1     -11.971   7.027  18.814  0.00  0.00    -0.171 NA
ATOM     12  C   UNL     1     -11.160   9.144  19.096  0.00  0.00    +0.003 A 
ATOM     15  C   UNL     1     -11.952   8.843  20.176  0.00  0.00    +0.046 A 
ATOM     16  C   UNL     1     -11.209   7.991  18.291  0.00  0.00    +0.064 A 
ATOM     17  C   UNL     1     -12.303   9.639  21.369  0.00  0.00    +0.066 C 
ATOM     18  C   UNL     1     -10.538   7.761  16.998  0.00  0.00    +0.068 C 
ENDROOT
BRANCH   6  20
ATOM     20  C   UNL     1     -13.252   6.845  20.799  0.00  0.00    +0.066 A 
ATOM     22  C   UNL     1     -14.627   7.079  20.778  0.00  0.00    +0.028 A 
ATOM     23  C   UNL     1     -12.720   5.885  21.660  0.00  0.00    +0.028 A 
ATOM     24  C   UNL     1     -15.471   6.352  21.618  0.00  0.00    +0.014 A 
ATOM     25  C   UNL     1     -13.563   5.158  22.500  0.00  0.00    +0.014 A 
ATOM     26  C   UNL     1     -14.939   5.391  22.479  0.00  0.00    +0.055 A 
BRANCH  26  29
ATOM      1  F   UNL     1     -15.816   3.267  23.143  0.00  0.00    -0.166 F 
ATOM      2  F   UNL     1     -17.149   4.982  23.256  0.00  0.00    -0.166 F 
ATOM      3  F   UNL     1     -15.543   4.749  24.703  0.00  0.00    -0.166 F 
ATOM     29  C   UNL     1     -15.840   4.612  23.377  0.00  0.00    +0.417 C 
ENDBRANCH  26  29
ENDBRANCH   6  20
BRANCH  12   9
ATOM      9  C   UNL     1     -10.407  10.429  18.832  0.00  0.00    +0.047 C 
ATOM     10  C   UNL     1      -9.920  10.560  17.377  0.00  0.00    +0.039 C 
ATOM     11  C   UNL     1      -9.993  12.058  17.034  0.00  0.00    +0.098 C 
ATOM     13  C   UNL     1     -11.218  11.678  19.010  0.00  0.00    -0.021 C 
ATOM     14  C   UNL     1     -10.984  12.564  18.035  0.00  0.00    -0.009 C 
BRANCH  11   5
ATOM      4  O   UNL     1      -8.486  13.459  14.991  0.00  0.00    -0.253 OA
ATOM      5  N   UNL     1      -8.701  12.717  17.182  0.00  0.00    -0.293 N 
ATOM      8  N   UNL     1      -6.831  13.913  16.552  0.00  0.00    -0.297 N 
ATOM     19  C   UNL     1      -8.046  13.372  16.136  0.00  0.00    +0.300 C 
ATOM     30  H   UNL     1      -8.233  12.668  18.083  0.00  0.00    +0.151 HD
ATOM     31  H   UNL     1      -6.518  13.724  17.499  0.00  0.00    +0.150 HD
BRANCH   8  21
ATOM     21  C   UNL     1      -5.954  14.641  15.666  0.00  0.00    +0.068 C 
ATOM     27  C   UNL     1      -5.388  13.713  14.600  0.00  0.00    +0.027 C 
ATOM     28  C   UNL     1      -4.841  15.320  16.454  0.00  0.00    +0.027 C 
ENDBRANCH   8  21
ENDBRANCH  11   5
ENDBRANCH  12   9
TORSDOF 5
ENDMDL
MODEL 8
REMARK VINA RESULT:      -6.5     20.622     22.838
REMARK  Name = 40777669
REMARK  9 active torsions:
REMARK  status: ('A' for Active; 'I' for Inactive)
REMARK    1  A    between atoms: N_5  and  C_11
REMARK    2  A    between atoms: N_6  and  C_20
REMARK    3  A    between atoms: N_8  and  C_21
REMARK    4  A    between atoms: C_9  and  C_12
REMARK    5  A    between atoms: C_15  and  C_17
REMARK    6  A    between atoms: C_16  and  C_18
REMARK    7  A    between atoms: C_21  and  C_27
REMARK    8  A    between atoms: C_21  and  C_28
REMARK    9  A    between atoms: C_26  and  C_29
REMARK                            x       y       z     vdW  Elec       q    Type
REMARK                         _______ _______ _______ _____ _____    ______ ____
ROOT
ATOM      6  N   UNL     1      -4.837 -10.590  13.521  0.00  0.00    -0.236 N 
ATOM      7  N   UNL     1      -3.645 -10.299  12.971  0.00  0.00    -0.171 NA
ATOM     12  C   UNL     1      -5.312 -10.310  11.408  0.00  0.00    +0.003 A 
ATOM     15  C   UNL     1      -5.867 -10.610  12.628  0.00  0.00    +0.046 A 
ATOM     16  C   UNL     1      -3.943 -10.129  11.680  0.00  0.00    +0.064 A 
ATOM     17  C   UNL     1      -7.263 -10.908  13.008  0.00  0.00    +0.066 C 
ATOM     18  C   UNL     1      -2.870  -9.790  10.728  0.00  0.00    +0.068 C 
ENDROOT
BRANCH   6  20
ATOM     20  C   UNL     1      -4.923 -10.837  14.892  0.00  0.00    +0.066 A 
ATOM     22  C   UNL     1      -5.454  -9.868  15.743  0.00  0.00    +0.028 A 
ATOM     23  C   UNL     1      -4.475 -12.052  15.411  0.00  0.00    +0.028 A 
ATOM     24  C   UNL     1      -5.537 -10.113  17.114  0.00  0.00    +0.014 A 
ATOM     25  C   UNL     1      -4.557 -12.297  16.782  0.00  0.00    +0.014 A 
ATOM     26  C   UNL     1      -5.089 -11.328  17.634  0.00  0.00    +0.055 A 
BRANCH  26  29
ATOM      1  F   UNL     1      -5.587 -10.510  19.825  0.00  0.00    -0.166 F 
ATOM      2  F   UNL     1      -3.981 -11.964  19.638  0.00  0.00    -0.166 F 
ATOM      3  F   UNL     1      -6.052 -12.591  19.423  0.00  0.00    -0.166 F 
ATOM     29  C   UNL     1      -5.178 -11.592  19.099  0.00  0.00    +0.417 C 
ENDBRANCH  26  29
ENDBRANCH   6  20
BRANCH  12   9
ATOM      9  C   UNL     1      -6.016 -10.202  10.075  0.00  0.00    +0.047 C 
ATOM     10  C   UNL     1      -6.214  -8.748   9.608  0.00  0.00    +0.039 C 
ATOM     11  C   UNL     1      -6.095  -8.770   8.074  0.00  0.00    +0.098 C 
ATOM     13  C   UNL     1      -5.272 -10.808   8.922  0.00  0.00    -0.021 C 
ATOM     14  C   UNL     1      -5.324 -10.031   7.835  0.00  0.00    -0.009 C 
BRANCH  11   5
ATOM      4  O   UNL     1      -7.852  -6.535   7.506  0.00  0.00    -0.253 OA
ATOM      5  N   UNL     1      -7.400  -8.812   7.425  0.00  0.00    -0.293 N 
ATOM      8  N   UNL     1      -9.378  -8.002   6.556  0.00  0.00    -0.297 N 
ATOM     19  C   UNL     1      -8.181  -7.677   7.191  0.00  0.00    +0.300 C 
ATOM     30  H   UNL     1      -7.780  -9.717   7.161  0.00  0.00    +0.151 HD
ATOM     31  H   UNL     1      -9.593  -8.983   6.404  0.00  0.00    +0.150 HD
BRANCH   8  21
ATOM     21  C   UNL     1     -10.368  -7.013   6.200  0.00  0.00    +0.068 C 
ATOM     27  C   UNL     1     -11.638  -7.217   7.016  0.00  0.00    +0.027 C 
ATOM     28  C   UNL     1     -10.659  -7.063   4.706  0.00  0.00    +0.027 C 
ENDBRANCH   8  21
ENDBRANCH  11   5
ENDBRANCH  12   9
TORSDOF 5
ENDMDL
MODEL 9
REMARK VINA RESULT:      -6.5     23.264     25.593
REMARK  Name = 40777669
REMARK  9 active torsions:
REMARK  status: ('A' for Active; 'I' for Inactive)
REMARK    1  A    between atoms: N_5  and  C_11
REMARK    2  A    between atoms: N_6  and  C_20
REMARK    3  A    between atoms: N_8  and  C_21
REMARK    4  A    between atoms: C_9  and  C_12
REMARK    5  A    between atoms: C_15  and  C_17
REMARK    6  A    between atoms: C_16  and  C_18
REMARK    7  A    between atoms: C_21  and  C_27
REMARK    8  A    between atoms: C_21  and  C_28
REMARK    9  A    between atoms: C_26  and  C_29
REMARK                            x       y       z     vdW  Elec       q    Type
REMARK                         _______ _______ _______ _____ _____    ______ ____
ROOT
ATOM      6  N   UNL     1      -6.342  -8.809   8.529  0.00  0.00    -0.236 N 
ATOM      7  N   UNL     1      -7.153  -7.783   8.841  0.00  0.00    -0.171 NA
ATOM     12  C   UNL     1      -7.621  -8.624   6.769  0.00  0.00    +0.003 A 
ATOM     15  C   UNL     1      -6.581  -9.347   7.299  0.00  0.00    +0.046 A 
ATOM     16  C   UNL     1      -7.932  -7.676   7.762  0.00  0.00    +0.064 A 
ATOM     17  C   UNL     1      -5.812 -10.481   6.748  0.00  0.00    +0.066 C 
ATOM     18  C   UNL     1      -8.975  -6.635   7.722  0.00  0.00    +0.068 C 
ENDROOT
BRANCH   6  20
ATOM     20  C   UNL     1      -5.369  -9.222   9.440  0.00  0.00    +0.066 A 
ATOM     22  C   UNL     1      -4.051  -8.790   9.295  0.00  0.00    +0.028 A 
ATOM     23  C   UNL     1      -5.713 -10.070  10.493  0.00  0.00    +0.028 A 
ATOM     24  C   UNL     1      -3.076  -9.206  10.203  0.00  0.00    +0.014 A 
ATOM     25  C   UNL     1      -4.740 -10.486  11.401  0.00  0.00    +0.014 A 
ATOM     26  C   UNL     1      -3.421 -10.054  11.257  0.00  0.00    +0.055 A 
BRANCH  26  29
ATOM      1  F   UNL     1      -1.183  -9.860  12.077  0.00  0.00    -0.166 F 
ATOM      2  F   UNL     1      -2.102 -11.830  12.126  0.00  0.00    -0.166 F 
ATOM      3  F   UNL     1      -2.730 -10.297  13.533  0.00  0.00    -0.166 F 
ATOM     29  C   UNL     1      -2.381 -10.498  12.228  0.00  0.00    +0.417 C 
ENDBRANCH  26  29
ENDBRANCH   6  20
BRANCH  12   9
ATOM      9  C   UNL     1      -8.280  -8.807   5.421  0.00  0.00    +0.047 C 
ATOM     10  C   UNL     1      -7.279  -8.822   4.251  0.00  0.00    +0.039 C 
ATOM     11  C   UNL     1      -7.850  -9.800   3.210  0.00  0.00    +0.098 C 
ATOM     13  C   UNL     1      -8.995 -10.114   5.245  0.00  0.00    -0.021 C 
ATOM     14  C   UNL     1      -8.765 -10.646   4.039  0.00  0.00    -0.009 C 
BRANCH  11   5
ATOM      4  O   UNL     1      -8.195 -10.657   0.462  0.00  0.00    -0.253 OA
ATOM      5  N   UNL     1      -8.577  -9.109   2.151  0.00  0.00    -0.293 N 
ATOM      8  N   UNL     1      -9.437  -8.743   0.042  0.00  0.00    -0.297 N 
ATOM     19  C   UNL     1      -8.691  -9.601   0.848  0.00  0.00    +0.300 C 
ATOM     30  H   UNL     1      -8.991  -8.205   2.359  0.00  0.00    +0.151 HD
ATOM     31  H   UNL     1      -9.742  -7.857   0.433  0.00  0.00    +0.150 HD
BRANCH   8  21
ATOM     21  C   UNL     1      -9.706  -9.015  -1.351  0.00  0.00    +0.068 C 
ATOM     27  C   UNL     1      -8.467  -8.742  -2.192  0.00  0.00    +0.027 C 
ATOM     28  C   UNL     1     -10.894  -8.195  -1.835  0.00  0.00    +0.027 C 
ENDBRANCH   8  21
ENDBRANCH  11   5
ENDBRANCH  12   9
TORSDOF 5
ENDMDL
MODEL 10
REMARK VINA RESULT:      -6.4     32.798     34.493
REMARK  Name = 40777669
REMARK  9 active torsions:
REMARK  status: ('A' for Active; 'I' for Inactive)
REMARK    1  A    between atoms: N_5  and  C_11
REMARK    2  A    between atoms: N_6  and  C_20
REMARK    3  A    between atoms: N_8  and  C_21
REMARK    4  A    between atoms: C_9  and  C_12
REMARK    5  A    between atoms: C_15  and  C_17
REMARK    6  A    between atoms: C_16  and  C_18
REMARK    7  A    between atoms: C_21  and  C_27
REMARK    8  A    between atoms: C_21  and  C_28
REMARK    9  A    between atoms: C_26  and  C_29
REMARK                            x       y       z     vdW  Elec       q    Type
REMARK                         _______ _______ _______ _____ _____    ______ ____
ROOT
ATOM      6  N   UNL     1      18.473  -4.829  25.831  0.00  0.00    -0.236 N 
ATOM      7  N   UNL     1      18.160  -5.731  26.777  0.00  0.00    -0.171 NA
ATOM     12  C   UNL     1      18.140  -3.602  27.606  0.00  0.00    +0.003 A 
ATOM     15  C   UNL     1      18.476  -3.540  26.276  0.00  0.00    +0.046 A 
ATOM     16  C   UNL     1      17.958  -4.974  27.859  0.00  0.00    +0.064 A 
ATOM     17  C   UNL     1      18.792  -2.385  25.412  0.00  0.00    +0.066 C 
ATOM     18  C   UNL     1      17.587  -5.617  29.133  0.00  0.00    +0.068 C 
ENDROOT
BRANCH   6  20
ATOM     20  C   UNL     1      18.757  -5.259  24.533  0.00  0.00    +0.066 A 
ATOM     22  C   UNL     1      20.081  -5.345  24.102  0.00  0.00    +0.028 A 
ATOM     23  C   UNL     1      17.718  -5.599  23.668  0.00  0.00    +0.028 A 
ATOM     24  C   UNL     1      20.366  -5.771  22.805  0.00  0.00    +0.014 A 
ATOM     25  C   UNL     1      18.002  -6.024  22.370  0.00  0.00    +0.014 A 
ATOM     26  C   UNL     1      19.326  -6.111  21.938  0.00  0.00    +0.055 A 
BRANCH  26  29
ATOM      1  F   UNL     1      20.176  -5.596  19.763  0.00  0.00    -0.166 F 
ATOM      2  F   UNL     1      18.517  -6.996  19.886  0.00  0.00    -0.166 F 
ATOM      3  F   UNL     1      20.511  -7.609  20.499  0.00  0.00    -0.166 F 
ATOM     29  C   UNL     1      19.629  -6.567  20.551  0.00  0.00    +0.417 C 
ENDBRANCH  26  29
ENDBRANCH   6  20
BRANCH  12   9
ATOM      9  C   UNL     1      18.001  -2.452  28.578  0.00  0.00    +0.047 C 
ATOM     10  C   UNL     1      16.928  -2.694  29.655  0.00  0.00    +0.039 C 
ATOM     11  C   UNL     1      17.441  -2.007  30.933  0.00  0.00    +0.098 C 
ATOM     13  C   UNL     1      19.224  -2.177  29.402  0.00  0.00    -0.021 C 
ATOM     14  C   UNL     1      18.914  -1.928  30.680  0.00  0.00    -0.009 C 
BRANCH  11   5
ATOM      4  O   UNL     1      18.164  -0.023  32.919  0.00  0.00    -0.253 OA
ATOM      5  N   UNL     1      16.859  -0.683  31.114  0.00  0.00    -0.293 N 
ATOM      8  N   UNL     1      16.551   1.402  32.053  0.00  0.00    -0.297 N 
ATOM     19  C   UNL     1      17.273   0.212  32.104  0.00  0.00    +0.300 C 
ATOM     30  H   UNL     1      16.086  -0.408  30.515  0.00  0.00    +0.151 HD
ATOM     31  H   UNL     1      15.784   1.473  31.392  0.00  0.00    +0.150 HD
BRANCH   8  21
ATOM     21  C   UNL     1      16.780   2.497  32.967  0.00  0.00    +0.068 C 
ATOM     27  C   UNL     1      15.787   2.440  34.120  0.00  0.00    +0.027 C 
ATOM     28  C   UNL     1      16.700   3.830  32.234  0.00  0.00    +0.027 C 
ENDBRANCH   8  21
ENDBRANCH  11   5
ENDBRANCH  12   9
TORSDOF 5
ENDMDL
