REMARK  Name = 9419221
REMARK  4 active torsions:
REMARK  status: ('A' for Active; 'I' for Inactive)
REMARK    1  A    between atoms: N_3  and  C_13
REMARK    2  A    between atoms: C_13  and  C_19
REMARK    3  A    between atoms: C_14  and  C_18
REMARK    4  A    between atoms: C_24  and  C_28
REMARK                            x       y       z     vdW  Elec       q    Type
REMARK                         _______ _______ _______ _____ _____    ______ ____
ROOT
ATOM      2  O   UNL     1       4.021   1.222  -2.164  0.00  0.00    -0.268 OA
ATOM      3  N   UNL     1       1.506  -1.841   0.862  0.00  0.00    -0.297 NA
ATOM      4  N   UNL     1       2.539   0.900  -0.379  0.00  0.00    -0.311 N 
ATOM      6  C   UNL     1       3.257  -0.303   1.771  0.00  0.00    +0.024 C 
ATOM      7  C   UNL     1       0.959   0.506   1.535  0.00  0.00    +0.051 C 
ATOM      8  C   UNL     1       2.196   0.563   2.429  0.00  0.00    +0.017 C 
ATOM      9  C   UNL     1       2.754  -1.754   1.630  0.00  0.00    +0.090 C 
ATOM     10  C   UNL     1       0.474  -0.959   1.424  0.00  0.00    +0.094 C 
ATOM     11  C   UNL     1       3.627   0.322   0.423  0.00  0.00    +0.130 C 
ATOM     12  C   UNL     1       1.247   1.091   0.149  0.00  0.00    +0.034 A 
ATOM     14  C   UNL     1       0.311   1.756  -0.576  0.00  0.00    +0.002 A 
ATOM     15  C   UNL     1       2.904   1.349  -1.660  0.00  0.00    +0.252 A 
ATOM     16  C   UNL     1       0.649   2.230  -1.905  0.00  0.00    +0.015 A 
ATOM     17  C   UNL     1       1.854   2.041  -2.442  0.00  0.00    +0.071 A 
ENDROOT
BRANCH  14  18
ATOM     18  C   UNL     1      -1.052   1.998  -0.054  0.00  0.00    -0.015 A 
ATOM     20  C   UNL     1      -2.055   1.059  -0.279  0.00  0.00    +0.027 A 
ATOM     22  C   UNL     1      -1.322   3.163   0.657  0.00  0.00    +0.008 A 
ATOM     24  C   UNL     1      -3.340   1.288   0.214  0.00  0.00    +0.052 A 
ATOM     26  C   UNL     1      -2.607   3.391   1.150  0.00  0.00    +0.002 A 
ATOM     27  C   UNL     1      -3.616   2.454   0.928  0.00  0.00    +0.019 A 
BRANCH  24  28
ATOM      5  N   UNL     1      -5.216  -0.451  -0.198  0.00  0.00    -0.191 NA
ATOM     28  C   UNL     1      -4.375   0.329  -0.013  0.00  0.00    +0.099 C 
ENDBRANCH  24  28
ENDBRANCH  14  18
BRANCH   3  13
ATOM     13  C   UNL     1       1.033  -3.221   0.789  0.00  0.00    +0.126 C 
BRANCH  13  19
ATOM      1  S   UNL     1      -0.089  -2.881  -1.709  0.00  0.00    -0.100 S 
ATOM     19  C   UNL     1      -0.187  -3.351  -0.077  0.00  0.00    +0.004 A 
ATOM     21  C   UNL     1      -1.419  -3.814   0.281  0.00  0.00    +0.012 A 
ATOM     23  C   UNL     1      -2.323  -3.785  -0.820  0.00  0.00    +0.008 A 
ATOM     25  C   UNL     1      -1.729  -3.300  -1.965  0.00  0.00    +0.045 A 
ENDBRANCH  13  19
ENDBRANCH   3  13
TORSDOF 4
