MODEL 1
REMARK VINA RESULT:      -7.7      0.000      0.000
REMARK  Name = 51137865
REMARK  4 active torsions:
REMARK  status: ('A' for Active; 'I' for Inactive)
REMARK    1  A    between atoms: N_4  and  C_13
REMARK    2  A    between atoms: C_8  and  C_12
REMARK    3  A    between atoms: C_13  and  C_14
REMARK    4  A    between atoms: C_17  and  C_25
REMARK                            x       y       z     vdW  Elec       q    Type
REMARK                         _______ _______ _______ _____ _____    ______ ____
ROOT
ATOM      5  N   UNL     1      10.228   4.150   5.547  0.00  0.00    -0.342 N 
ATOM      6  N   UNL     1       9.664   6.263   5.152  0.00  0.00    -0.231 NA
ATOM     12  C   UNL     1      10.091   5.141   4.616  0.00  0.00    +0.113 A 
ATOM     15  C   UNL     1       9.865   4.665   6.765  0.00  0.00    +0.067 A 
ATOM     16  C   UNL     1       9.517   5.985   6.492  0.00  0.00    +0.101 A 
ATOM     17  C   UNL     1       9.090   6.813   7.544  0.00  0.00    +0.064 A 
ATOM     18  C   UNL     1       9.813   4.108   8.043  0.00  0.00    +0.028 A 
ATOM     21  C   UNL     1       9.030   6.274   8.835  0.00  0.00    +0.015 A 
ATOM     22  C   UNL     1       9.386   4.945   9.078  0.00  0.00    +0.003 A 
ATOM     27  H   UNL     1      10.539   3.204   5.373  0.00  0.00    +0.167 HD
ENDROOT
BRANCH  17  25
ATOM      3  O   UNL     1       9.140   9.119   8.020  0.00  0.00    -0.270 OA
ATOM      7  N   UNL     1       7.879   8.461   6.223  0.00  0.00    -0.325 N 
ATOM     25  C   UNL     1       8.716   8.194   7.302  0.00  0.00    +0.244 C 
ATOM     28  H   UNL     1       7.600   9.416   6.018  0.00  0.00    +0.145 HD
ATOM     29  H   UNL     1       7.510   7.750   5.602  0.00  0.00    +0.145 HD
ENDBRANCH  17  25
BRANCH  12   8
ATOM      4  N   UNL     1      12.035   4.003   1.727  0.00  0.00    -0.297 NA
ATOM      8  C   UNL     1      10.410   4.901   3.158  0.00  0.00    +0.070 C 
ATOM      9  C   UNL     1      11.173   6.043   2.466  0.00  0.00    +0.028 C 
ATOM     10  C   UNL     1      11.283   3.659   2.934  0.00  0.00    +0.096 C 
ATOM     11  C   UNL     1      12.438   5.397   1.919  0.00  0.00    +0.085 C 
BRANCH   4  13
ATOM     13  C   UNL     1      13.173   3.122   1.512  0.00  0.00    +0.119 C 
BRANCH  13  14
ATOM      1  F   UNL     1      13.778   4.308  -3.184  0.00  0.00    -0.202 F 
ATOM      2  F   UNL     1      16.418   4.874  -2.749  0.00  0.00    -0.202 F 
ATOM     14  C   UNL     1      14.040   3.591   0.374  0.00  0.00    -0.030 A 
ATOM     19  C   UNL     1      13.497   3.735  -0.903  0.00  0.00    +0.046 A 
ATOM     20  C   UNL     1      15.387   3.880   0.595  0.00  0.00    +0.008 A 
ATOM     23  C   UNL     1      14.301   4.168  -1.958  0.00  0.00    +0.159 A 
ATOM     24  C   UNL     1      16.190   4.314  -0.459  0.00  0.00    +0.041 A 
ATOM     26  C   UNL     1      15.647   4.458  -1.736  0.00  0.00    +0.158 A 
ENDBRANCH  13  14
ENDBRANCH   4  13
ENDBRANCH  12   8
TORSDOF 4
ENDMDL
MODEL 2
REMARK VINA RESULT:      -7.4     22.989     25.359
REMARK  Name = 51137865
REMARK  4 active torsions:
REMARK  status: ('A' for Active; 'I' for Inactive)
REMARK    1  A    between atoms: N_4  and  C_13
REMARK    2  A    between atoms: C_8  and  C_12
REMARK    3  A    between atoms: C_13  and  C_14
REMARK    4  A    between atoms: C_17  and  C_25
REMARK                            x       y       z     vdW  Elec       q    Type
REMARK                         _______ _______ _______ _____ _____    ______ ____
ROOT
ATOM      5  N   UNL     1      -3.255 -11.425  16.959  0.00  0.00    -0.342 N 
ATOM      6  N   UNL     1      -4.794 -10.247  15.869  0.00  0.00    -0.231 NA
ATOM     12  C   UNL     1      -3.597 -10.786  15.800  0.00  0.00    +0.113 A 
ATOM     15  C   UNL     1      -4.302 -11.290  17.835  0.00  0.00    +0.067 A 
ATOM     16  C   UNL     1      -5.250 -10.552  17.132  0.00  0.00    +0.101 A 
ATOM     17  C   UNL     1      -6.468 -10.231  17.753  0.00  0.00    +0.064 A 
ATOM     18  C   UNL     1      -4.495 -11.737  19.143  0.00  0.00    +0.028 A 
ATOM     21  C   UNL     1      -6.683 -10.670  19.066  0.00  0.00    +0.015 A 
ATOM     22  C   UNL     1      -5.713 -11.409  19.747  0.00  0.00    +0.003 A 
ATOM     27  H   UNL     1      -2.388 -11.911  17.142  0.00  0.00    +0.167 HD
ENDROOT
BRANCH  17  25
ATOM      3  O   UNL     1      -8.298  -8.751  17.668  0.00  0.00    -0.270 OA
ATOM      7  N   UNL     1      -7.510  -9.539  15.664  0.00  0.00    -0.325 N 
ATOM     25  C   UNL     1      -7.484  -9.466  17.054  0.00  0.00    +0.244 C 
ATOM     28  H   UNL     1      -8.202  -9.012  15.140  0.00  0.00    +0.145 HD
ATOM     29  H   UNL     1      -6.869 -10.098  15.113  0.00  0.00    +0.145 HD
ENDBRANCH  17  25
BRANCH  12   8
ATOM      4  N   UNL     1      -2.414 -11.468  12.400  0.00  0.00    -0.297 NA
ATOM      8  C   UNL     1      -2.656 -10.746  14.617  0.00  0.00    +0.070 C 
ATOM      9  C   UNL     1      -1.640 -11.899  14.560  0.00  0.00    +0.028 C 
ATOM     10  C   UNL     1      -3.387 -10.805  13.269  0.00  0.00    +0.096 C 
ATOM     11  C   UNL     1      -1.869 -12.560  13.208  0.00  0.00    +0.085 C 
BRANCH   4  13
ATOM     13  C   UNL     1      -3.009 -11.940  11.159  0.00  0.00    +0.119 C 
BRANCH  13  14
ATOM      1  F   UNL     1      -7.407 -10.421   9.683  0.00  0.00    -0.202 F 
ATOM      2  F   UNL     1      -6.350  -8.053   8.816  0.00  0.00    -0.202 F 
ATOM     14  C   UNL     1      -3.902 -10.901  10.534  0.00  0.00    -0.030 A 
ATOM     19  C   UNL     1      -5.268 -11.147  10.395  0.00  0.00    +0.046 A 
ATOM     20  C   UNL     1      -3.363  -9.692  10.091  0.00  0.00    +0.008 A 
ATOM     23  C   UNL     1      -6.095 -10.185   9.814  0.00  0.00    +0.159 A 
ATOM     24  C   UNL     1      -4.190  -8.730   9.511  0.00  0.00    +0.041 A 
ATOM     26  C   UNL     1      -5.556  -8.976   9.373  0.00  0.00    +0.158 A 
ENDBRANCH  13  14
ENDBRANCH   4  13
ENDBRANCH  12   8
TORSDOF 4
ENDMDL
MODEL 3
REMARK VINA RESULT:      -7.4      5.573      6.460
REMARK  Name = 51137865
REMARK  4 active torsions:
REMARK  status: ('A' for Active; 'I' for Inactive)
REMARK    1  A    between atoms: N_4  and  C_13
REMARK    2  A    between atoms: C_8  and  C_12
REMARK    3  A    between atoms: C_13  and  C_14
REMARK    4  A    between atoms: C_17  and  C_25
REMARK                            x       y       z     vdW  Elec       q    Type
REMARK                         _______ _______ _______ _____ _____    ______ ____
ROOT
ATOM      5  N   UNL     1      11.961   8.312   5.734  0.00  0.00    -0.342 N 
ATOM      6  N   UNL     1      12.300   6.393   6.803  0.00  0.00    -0.231 NA
ATOM     12  C   UNL     1      12.813   7.268   5.967  0.00  0.00    +0.113 A 
ATOM     15  C   UNL     1      10.823   8.096   6.468  0.00  0.00    +0.067 A 
ATOM     16  C   UNL     1      11.059   6.893   7.127  0.00  0.00    +0.101 A 
ATOM     17  C   UNL     1      10.072   6.373   7.980  0.00  0.00    +0.064 A 
ATOM     18  C   UNL     1       9.644   8.828   6.608  0.00  0.00    +0.028 A 
ATOM     21  C   UNL     1       8.879   7.091   8.136  0.00  0.00    +0.015 A 
ATOM     22  C   UNL     1       8.670   8.296   7.461  0.00  0.00    +0.003 A 
ATOM     27  H   UNL     1      12.136   9.103   5.129  0.00  0.00    +0.167 HD
ENDROOT
BRANCH  17  25
ATOM      3  O   UNL     1      10.340   5.080   9.931  0.00  0.00    -0.270 OA
ATOM      7  N   UNL     1      10.388   3.959   7.932  0.00  0.00    -0.325 N 
ATOM     25  C   UNL     1      10.279   5.123   8.688  0.00  0.00    +0.244 C 
ATOM     28  H   UNL     1      10.527   3.064   8.391  0.00  0.00    +0.145 HD
ATOM     29  H   UNL     1      10.339   3.933   6.919  0.00  0.00    +0.145 HD
ENDBRANCH  17  25
BRANCH  12   8
ATOM      4  N   UNL     1      16.277   8.226   5.255  0.00  0.00    -0.297 NA
ATOM      8  C   UNL     1      14.170   7.198   5.306  0.00  0.00    +0.070 C 
ATOM      9  C   UNL     1      14.306   8.027   4.018  0.00  0.00    +0.028 C 
ATOM     10  C   UNL     1      15.303   7.699   6.212  0.00  0.00    +0.096 C 
ATOM     11  C   UNL     1      15.479   8.963   4.274  0.00  0.00    +0.085 C 
BRANCH   4  13
ATOM     13  C   UNL     1      17.284   9.062   5.891  0.00  0.00    +0.119 C 
BRANCH  13  14
ATOM      1  F   UNL     1      20.703   7.031   3.061  0.00  0.00    -0.202 F 
ATOM      2  F   UNL     1      22.484   7.025   5.136  0.00  0.00    -0.202 F 
ATOM     14  C   UNL     1      18.674   8.518   5.689  0.00  0.00    -0.030 A 
ATOM     19  C   UNL     1      19.052   8.016   4.443  0.00  0.00    +0.046 A 
ATOM     20  C   UNL     1      19.583   8.515   6.747  0.00  0.00    +0.008 A 
ATOM     23  C   UNL     1      20.339   7.512   4.257  0.00  0.00    +0.159 A 
ATOM     24  C   UNL     1      20.870   8.011   6.561  0.00  0.00    +0.041 A 
ATOM     26  C   UNL     1      21.248   7.509   5.315  0.00  0.00    +0.158 A 
ENDBRANCH  13  14
ENDBRANCH   4  13
ENDBRANCH  12   8
TORSDOF 4
ENDMDL
MODEL 4
REMARK VINA RESULT:      -7.3     23.817     26.502
REMARK  Name = 51137865
REMARK  4 active torsions:
REMARK  status: ('A' for Active; 'I' for Inactive)
REMARK    1  A    between atoms: N_4  and  C_13
REMARK    2  A    between atoms: C_8  and  C_12
REMARK    3  A    between atoms: C_13  and  C_14
REMARK    4  A    between atoms: C_17  and  C_25
REMARK                            x       y       z     vdW  Elec       q    Type
REMARK                         _______ _______ _______ _____ _____    ______ ____
ROOT
ATOM      5  N   UNL     1      -7.046 -10.786  18.159  0.00  0.00    -0.342 N 
ATOM      6  N   UNL     1      -8.005  -9.195  16.937  0.00  0.00    -0.231 NA
ATOM     12  C   UNL     1      -6.899  -9.874  17.150  0.00  0.00    +0.113 A 
ATOM     15  C   UNL     1      -8.331 -10.689  18.628  0.00  0.00    +0.067 A 
ATOM     16  C   UNL     1      -8.909  -9.690  17.849  0.00  0.00    +0.101 A 
ATOM     17  C   UNL     1     -10.249  -9.335  18.075  0.00  0.00    +0.064 A 
ATOM     18  C   UNL     1      -9.016 -11.368  19.635  0.00  0.00    +0.028 A 
ATOM     21  C   UNL     1     -10.957 -10.004  19.082  0.00  0.00    +0.015 A 
ATOM     22  C   UNL     1     -10.349 -11.003  19.847  0.00  0.00    +0.003 A 
ATOM     27  H   UNL     1      -6.336 -11.419  18.500  0.00  0.00    +0.167 HD
ENDROOT
BRANCH  17  25
ATOM      3  O   UNL     1     -12.018  -8.469  16.783  0.00  0.00    -0.270 OA
ATOM      7  N   UNL     1     -10.213  -7.097  17.116  0.00  0.00    -0.325 N 
ATOM     25  C   UNL     1     -10.891  -8.301  17.284  0.00  0.00    +0.244 C 
ATOM     28  H   UNL     1     -10.632  -6.347  16.575  0.00  0.00    +0.145 HD
ATOM     29  H   UNL     1      -9.297  -6.902  17.506  0.00  0.00    +0.145 HD
ENDBRANCH  17  25
BRANCH  12   8
ATOM      4  N   UNL     1      -4.266 -10.698  14.740  0.00  0.00    -0.297 NA
ATOM      8  C   UNL     1      -5.589  -9.723  16.411  0.00  0.00    +0.070 C 
ATOM      9  C   UNL     1      -4.395 -10.444  17.057  0.00  0.00    +0.028 C 
ATOM     10  C   UNL     1      -5.645 -10.269  14.978  0.00  0.00    +0.096 C 
ATOM     11  C   UNL     1      -3.862 -11.372  15.974  0.00  0.00    +0.085 C 
BRANCH   4  13
ATOM     13  C   UNL     1      -4.147 -11.560  13.573  0.00  0.00    +0.119 C 
BRANCH  13  14
ATOM      1  F   UNL     1      -1.469  -8.970  10.419  0.00  0.00    -0.202 F 
ATOM      2  F   UNL     1      -3.648  -8.587   8.812  0.00  0.00    -0.202 F 
ATOM     14  C   UNL     1      -4.013 -10.766  12.300  0.00  0.00    -0.030 A 
ATOM     19  C   UNL     1      -2.778 -10.225  11.942  0.00  0.00    +0.046 A 
ATOM     20  C   UNL     1      -5.124 -10.570  11.480  0.00  0.00    +0.008 A 
ATOM     23  C   UNL     1      -2.655  -9.489  10.763  0.00  0.00    +0.159 A 
ATOM     24  C   UNL     1      -5.002  -9.835  10.301  0.00  0.00    +0.041 A 
ATOM     26  C   UNL     1      -3.767  -9.294   9.943  0.00  0.00    +0.158 A 
ENDBRANCH  13  14
ENDBRANCH   4  13
ENDBRANCH  12   8
TORSDOF 4
ENDMDL
MODEL 5
REMARK VINA RESULT:      -7.3      1.274      2.221
REMARK  Name = 51137865
REMARK  4 active torsions:
REMARK  status: ('A' for Active; 'I' for Inactive)
REMARK    1  A    between atoms: N_4  and  C_13
REMARK    2  A    between atoms: C_8  and  C_12
REMARK    3  A    between atoms: C_13  and  C_14
REMARK    4  A    between atoms: C_17  and  C_25
REMARK                            x       y       z     vdW  Elec       q    Type
REMARK                         _______ _______ _______ _____ _____    ______ ____
ROOT
ATOM      5  N   UNL     1       9.463   7.005   4.372  0.00  0.00    -0.342 N 
ATOM      6  N   UNL     1      10.051   5.076   5.308  0.00  0.00    -0.231 NA
ATOM     12  C   UNL     1       9.934   5.736   4.178  0.00  0.00    +0.113 A 
ATOM     15  C   UNL     1       9.262   7.175   5.718  0.00  0.00    +0.067 A 
ATOM     16  C   UNL     1       9.636   5.958   6.281  0.00  0.00    +0.101 A 
ATOM     17  C   UNL     1       9.551   5.791   7.673  0.00  0.00    +0.064 A 
ATOM     18  C   UNL     1       8.799   8.256   6.469  0.00  0.00    +0.028 A 
ATOM     21  C   UNL     1       9.088   6.863   8.447  0.00  0.00    +0.015 A 
ATOM     22  C   UNL     1       8.719   8.073   7.854  0.00  0.00    +0.003 A 
ATOM     27  H   UNL     1       9.292   7.697   3.655  0.00  0.00    +0.167 HD
ENDROOT
BRANCH  17  25
ATOM      3  O   UNL     1      10.198   4.473   9.514  0.00  0.00    -0.270 OA
ATOM      7  N   UNL     1       9.977   3.399   7.501  0.00  0.00    -0.325 N 
ATOM     25  C   UNL     1       9.933   4.539   8.300  0.00  0.00    +0.244 C 
ATOM     28  H   UNL     1      10.234   2.504   7.905  0.00  0.00    +0.145 HD
ATOM     29  H   UNL     1       9.765   3.393   6.510  0.00  0.00    +0.145 HD
ENDBRANCH  17  25
BRANCH  12   8
ATOM      4  N   UNL     1      11.917   4.111   1.560  0.00  0.00    -0.297 NA
ATOM      8  C   UNL     1      10.263   5.224   2.794  0.00  0.00    +0.070 C 
ATOM      9  C   UNL     1      10.993   6.229   1.888  0.00  0.00    +0.028 C 
ATOM     10  C   UNL     1      11.173   3.988   2.815  0.00  0.00    +0.096 C 
ATOM     11  C   UNL     1      12.277   5.526   1.472  0.00  0.00    +0.085 C 
BRANCH   4  13
ATOM     13  C   UNL     1      13.081   3.238   1.518  0.00  0.00    +0.119 C 
BRANCH  13  14
ATOM      1  F   UNL     1      14.045   4.240  -3.161  0.00  0.00    -0.202 F 
ATOM      2  F   UNL     1      16.671   4.717  -2.566  0.00  0.00    -0.202 F 
ATOM     14  C   UNL     1      14.040   3.634   0.427  0.00  0.00    -0.030 A 
ATOM     19  C   UNL     1      13.589   3.756  -0.888  0.00  0.00    +0.046 A 
ATOM     20  C   UNL     1      15.380   3.878   0.730  0.00  0.00    +0.008 A 
ATOM     23  C   UNL     1      14.479   4.122  -1.899  0.00  0.00    +0.159 A 
ATOM     24  C   UNL     1      16.269   4.244  -0.281  0.00  0.00    +0.041 A 
ATOM     26  C   UNL     1      15.818   4.366  -1.595  0.00  0.00    +0.158 A 
ENDBRANCH  13  14
ENDBRANCH   4  13
ENDBRANCH  12   8
TORSDOF 4
ENDMDL
MODEL 6
REMARK VINA RESULT:      -7.2     24.453     27.284
REMARK  Name = 51137865
REMARK  4 active torsions:
REMARK  status: ('A' for Active; 'I' for Inactive)
REMARK    1  A    between atoms: N_4  and  C_13
REMARK    2  A    between atoms: C_8  and  C_12
REMARK    3  A    between atoms: C_13  and  C_14
REMARK    4  A    between atoms: C_17  and  C_25
REMARK                            x       y       z     vdW  Elec       q    Type
REMARK                         _______ _______ _______ _____ _____    ______ ____
ROOT
ATOM      5  N   UNL     1      -7.838  -8.890  16.488  0.00  0.00    -0.342 N 
ATOM      6  N   UNL     1      -8.408 -10.149  18.229  0.00  0.00    -0.231 NA
ATOM     12  C   UNL     1      -7.426  -9.787  17.434  0.00  0.00    +0.113 A 
ATOM     15  C   UNL     1      -9.175  -8.658  16.685  0.00  0.00    +0.067 A 
ATOM     16  C   UNL     1      -9.507  -9.455  17.777  0.00  0.00    +0.101 A 
ATOM     17  C   UNL     1     -10.830  -9.453  18.250  0.00  0.00    +0.064 A 
ATOM     18  C   UNL     1     -10.095  -7.845  16.022  0.00  0.00    +0.028 A 
ATOM     21  C   UNL     1     -11.771  -8.643  17.600  0.00  0.00    +0.015 A 
ATOM     22  C   UNL     1     -11.407  -7.854  16.505  0.00  0.00    +0.003 A 
ATOM     27  H   UNL     1      -7.263  -8.471  15.770  0.00  0.00    +0.167 HD
ENDROOT
BRANCH  17  25
ATOM      3  O   UNL     1     -12.166 -11.071  19.320  0.00  0.00    -0.270 OA
ATOM      7  N   UNL     1     -10.480 -10.137  20.561  0.00  0.00    -0.325 N 
ATOM     25  C   UNL     1     -11.218 -10.267  19.387  0.00  0.00    +0.244 C 
ATOM     28  H   UNL     1     -10.717 -10.694  21.376  0.00  0.00    +0.145 HD
ATOM     29  H   UNL     1      -9.696  -9.504  20.670  0.00  0.00    +0.145 HD
ENDBRANCH  17  25
BRANCH  12   8
ATOM      4  N   UNL     1      -4.472 -11.750  16.516  0.00  0.00    -0.297 NA
ATOM      8  C   UNL     1      -5.991 -10.259  17.497  0.00  0.00    +0.070 C 
ATOM      9  C   UNL     1      -5.741 -11.439  18.451  0.00  0.00    +0.028 C 
ATOM     10  C   UNL     1      -5.458 -10.736  16.140  0.00  0.00    +0.096 C 
ATOM     11  C   UNL     1      -5.111 -12.520  17.583  0.00  0.00    +0.085 C 
BRANCH   4  13
ATOM     13  C   UNL     1      -4.077 -12.584  15.390  0.00  0.00    +0.119 C 
BRANCH  13  14
ATOM      1  F   UNL     1      -0.801  -9.153  14.241  0.00  0.00    -0.202 F 
ATOM      2  F   UNL     1      -1.100  -9.694  11.577  0.00  0.00    -0.202 F 
ATOM     14  C   UNL     1      -3.281 -11.812  14.372  0.00  0.00    -0.030 A 
ATOM     19  C   UNL     1      -2.392 -10.821  14.787  0.00  0.00    +0.046 A 
ATOM     20  C   UNL     1      -3.433 -12.088  13.013  0.00  0.00    +0.008 A 
ATOM     23  C   UNL     1      -1.656 -10.105  13.842  0.00  0.00    +0.159 A 
ATOM     24  C   UNL     1      -2.696 -11.373  12.068  0.00  0.00    +0.041 A 
ATOM     26  C   UNL     1      -1.807 -10.381  12.483  0.00  0.00    +0.158 A 
ENDBRANCH  13  14
ENDBRANCH   4  13
ENDBRANCH  12   8
TORSDOF 4
ENDMDL
MODEL 7
REMARK VINA RESULT:      -7.2     29.489     33.514
REMARK  Name = 51137865
REMARK  4 active torsions:
REMARK  status: ('A' for Active; 'I' for Inactive)
REMARK    1  A    between atoms: N_4  and  C_13
REMARK    2  A    between atoms: C_8  and  C_12
REMARK    3  A    between atoms: C_13  and  C_14
REMARK    4  A    between atoms: C_17  and  C_25
REMARK                            x       y       z     vdW  Elec       q    Type
REMARK                         _______ _______ _______ _____ _____    ______ ____
ROOT
ATOM      5  N   UNL     1     -15.645   4.211  25.360  0.00  0.00    -0.342 N 
ATOM      6  N   UNL     1     -16.546   2.569  24.163  0.00  0.00    -0.231 NA
ATOM     12  C   UNL     1     -15.909   3.717  24.113  0.00  0.00    +0.113 A 
ATOM     15  C   UNL     1     -16.146   3.323  26.277  0.00  0.00    +0.067 A 
ATOM     16  C   UNL     1     -16.702   2.306  25.505  0.00  0.00    +0.101 A 
ATOM     17  C   UNL     1     -17.313   1.215  26.146  0.00  0.00    +0.064 A 
ATOM     18  C   UNL     1     -16.159   3.320  27.672  0.00  0.00    +0.028 A 
ATOM     21  C   UNL     1     -17.338   1.192  27.547  0.00  0.00    +0.015 A 
ATOM     22  C   UNL     1     -16.770   2.227  28.294  0.00  0.00    +0.003 A 
ATOM     27  H   UNL     1     -15.167   5.076  25.573  0.00  0.00    +0.167 HD
ENDROOT
BRANCH  17  25
ATOM      3  O   UNL     1     -18.963  -0.414  25.735  0.00  0.00    -0.270 OA
ATOM      7  N   UNL     1     -17.254  -0.266  24.214  0.00  0.00    -0.325 N 
ATOM     25  C   UNL     1     -17.903   0.133  25.380  0.00  0.00    +0.244 C 
ATOM     28  H   UNL     1     -17.640  -1.015  23.647  0.00  0.00    +0.145 HD
ATOM     29  H   UNL     1     -16.394   0.148  23.874  0.00  0.00    +0.145 HD
ENDBRANCH  17  25
BRANCH  12   8
ATOM      4  N   UNL     1     -14.745   6.549  22.100  0.00  0.00    -0.297 NA
ATOM      8  C   UNL     1     -15.484   4.461  22.867  0.00  0.00    +0.070 C 
ATOM      9  C   UNL     1     -16.625   5.165  22.113  0.00  0.00    +0.028 C 
ATOM     10  C   UNL     1     -14.464   5.570  23.152  0.00  0.00    +0.096 C 
ATOM     11  C   UNL     1     -16.205   6.626  22.039  0.00  0.00    +0.085 C 
BRANCH   4  13
ATOM     13  C   UNL     1     -14.133   7.842  22.367  0.00  0.00    +0.119 C 
BRANCH  13  14
ATOM      1  F   UNL     1     -11.106   6.576  18.753  0.00  0.00    -0.202 F 
ATOM      2  F   UNL     1     -10.237   9.158  18.514  0.00  0.00    -0.202 F 
ATOM     14  C   UNL     1     -13.092   8.194  21.337  0.00  0.00    -0.030 A 
ATOM     19  C   UNL     1     -12.571   7.202  20.505  0.00  0.00    +0.046 A 
ATOM     20  C   UNL     1     -12.648   9.510  21.215  0.00  0.00    +0.008 A 
ATOM     23  C   UNL     1     -11.606   7.528  19.552  0.00  0.00    +0.159 A 
ATOM     24  C   UNL     1     -11.684   9.837  20.261  0.00  0.00    +0.041 A 
ATOM     26  C   UNL     1     -11.163   8.846  19.430  0.00  0.00    +0.158 A 
ENDBRANCH  13  14
ENDBRANCH   4  13
ENDBRANCH  12   8
TORSDOF 4
ENDMDL
MODEL 8
REMARK VINA RESULT:      -7.1     24.572     27.472
REMARK  Name = 51137865
REMARK  4 active torsions:
REMARK  status: ('A' for Active; 'I' for Inactive)
REMARK    1  A    between atoms: N_4  and  C_13
REMARK    2  A    between atoms: C_8  and  C_12
REMARK    3  A    between atoms: C_13  and  C_14
REMARK    4  A    between atoms: C_17  and  C_25
REMARK                            x       y       z     vdW  Elec       q    Type
REMARK                         _______ _______ _______ _____ _____    ______ ____
ROOT
ATOM      5  N   UNL     1      -8.786 -10.413  18.963  0.00  0.00    -0.342 N 
ATOM      6  N   UNL     1      -8.525  -9.132  17.164  0.00  0.00    -0.231 NA
ATOM     12  C   UNL     1      -7.913  -9.880  18.055  0.00  0.00    +0.113 A 
ATOM     15  C   UNL     1     -10.046  -9.981  18.635  0.00  0.00    +0.067 A 
ATOM     16  C   UNL     1      -9.857  -9.183  17.510  0.00  0.00    +0.101 A 
ATOM     17  C   UNL     1     -10.969  -8.572  16.908  0.00  0.00    +0.064 A 
ATOM     18  C   UNL     1     -11.296 -10.212  19.209  0.00  0.00    +0.028 A 
ATOM     21  C   UNL     1     -12.235  -8.790  17.468  0.00  0.00    +0.015 A 
ATOM     22  C   UNL     1     -12.393  -9.596  18.599  0.00  0.00    +0.003 A 
ATOM     27  H   UNL     1      -8.549 -11.018  19.737  0.00  0.00    +0.167 HD
ENDROOT
BRANCH  17  25
ATOM      3  O   UNL     1     -11.524  -7.898  14.721  0.00  0.00    -0.270 OA
ATOM      7  N   UNL     1      -9.861  -6.724  15.774  0.00  0.00    -0.325 N 
ATOM     25  C   UNL     1     -10.816  -7.736  15.732  0.00  0.00    +0.244 C 
ATOM     28  H   UNL     1      -9.729  -6.114  14.974  0.00  0.00    +0.145 HD
ATOM     29  H   UNL     1      -9.262  -6.542  16.572  0.00  0.00    +0.145 HD
ENDBRANCH  17  25
BRANCH  12   8
ATOM      4  N   UNL     1      -4.755 -11.575  17.296  0.00  0.00    -0.297 NA
ATOM      8  C   UNL     1      -6.430 -10.163  18.131  0.00  0.00    +0.070 C 
ATOM      9  C   UNL     1      -6.019 -11.171  19.217  0.00  0.00    +0.028 C 
ATOM     10  C   UNL     1      -5.865 -10.744  16.828  0.00  0.00    +0.096 C 
ATOM     11  C   UNL     1      -5.275 -12.272  18.473  0.00  0.00    +0.085 C 
BRANCH   4  13
ATOM     13  C   UNL     1      -4.279 -12.494  16.273  0.00  0.00    +0.119 C 
BRANCH  13  14
ATOM      1  F   UNL     1      -0.759  -9.417  14.870  0.00  0.00    -0.202 F 
ATOM      2  F   UNL     1      -1.384  -9.829  12.239  0.00  0.00    -0.202 F 
ATOM     14  C   UNL     1      -3.505 -11.782  15.195  0.00  0.00    -0.030 A 
ATOM     19  C   UNL     1      -2.470 -10.912  15.539  0.00  0.00    +0.046 A 
ATOM     20  C   UNL     1      -3.823 -11.992  13.853  0.00  0.00    +0.008 A 
ATOM     23  C   UNL     1      -1.754 -10.252  14.540  0.00  0.00    +0.159 A 
ATOM     24  C   UNL     1      -3.106 -11.333  12.854  0.00  0.00    +0.041 A 
ATOM     26  C   UNL     1      -2.071 -10.463  13.198  0.00  0.00    +0.158 A 
ENDBRANCH  13  14
ENDBRANCH   4  13
ENDBRANCH  12   8
TORSDOF 4
ENDMDL
MODEL 9
REMARK VINA RESULT:      -7.1     18.238     19.480
REMARK  Name = 51137865
REMARK  4 active torsions:
REMARK  status: ('A' for Active; 'I' for Inactive)
REMARK    1  A    between atoms: N_4  and  C_13
REMARK    2  A    between atoms: C_8  and  C_12
REMARK    3  A    between atoms: C_13  and  C_14
REMARK    4  A    between atoms: C_17  and  C_25
REMARK                            x       y       z     vdW  Elec       q    Type
REMARK                         _______ _______ _______ _____ _____    ______ ____
ROOT
ATOM      5  N   UNL     1      14.933   9.638  21.765  0.00  0.00    -0.342 N 
ATOM      6  N   UNL     1      14.455   7.606  21.002  0.00  0.00    -0.231 NA
ATOM     12  C   UNL     1      15.403   8.500  21.170  0.00  0.00    +0.113 A 
ATOM     15  C   UNL     1      13.592   9.467  21.996  0.00  0.00    +0.067 A 
ATOM     16  C   UNL     1      13.318   8.191  21.511  0.00  0.00    +0.101 A 
ATOM     17  C   UNL     1      12.007   7.693  21.595  0.00  0.00    +0.064 A 
ATOM     18  C   UNL     1      12.625  10.293  22.569  0.00  0.00    +0.028 A 
ATOM     21  C   UNL     1      11.020   8.505  22.167  0.00  0.00    +0.015 A 
ATOM     22  C   UNL     1      11.325   9.782  22.645  0.00  0.00    +0.003 A 
ATOM     27  H   UNL     1      15.474  10.461  21.995  0.00  0.00    +0.167 HD
ENDROOT
BRANCH  17  25
ATOM      3  O   UNL     1      11.067   5.544  21.810  0.00  0.00    -0.270 OA
ATOM      7  N   UNL     1      12.054   6.045  19.803  0.00  0.00    -0.325 N 
ATOM     25  C   UNL     1      11.679   6.367  21.104  0.00  0.00    +0.244 C 
ATOM     28  H   UNL     1      11.836   5.130  19.422  0.00  0.00    +0.145 HD
ATOM     29  H   UNL     1      12.546   6.677  19.182  0.00  0.00    +0.145 HD
ENDBRANCH  17  25
BRANCH  12   8
ATOM      4  N   UNL     1      18.914   7.514  21.524  0.00  0.00    -0.297 NA
ATOM      8  C   UNL     1      16.857   8.359  20.782  0.00  0.00    +0.070 C 
ATOM      9  C   UNL     1      17.761   9.522  21.225  0.00  0.00    +0.028 C 
ATOM     10  C   UNL     1      17.516   7.107  21.375  0.00  0.00    +0.096 C 
ATOM     11  C   UNL     1      18.855   8.874  22.062  0.00  0.00    +0.085 C 
BRANCH   4  13
ATOM     13  C   UNL     1      19.667   6.611  22.382  0.00  0.00    +0.119 C 
BRANCH  13  14
ATOM      1  F   UNL     1      22.521   2.871  21.082  0.00  0.00    -0.202 F 
ATOM      2  F   UNL     1      24.233   4.566  19.789  0.00  0.00    -0.202 F 
ATOM     14  C   UNL     1      20.887   6.064  21.688  0.00  0.00    -0.030 A 
ATOM     19  C   UNL     1      21.144   4.693  21.707  0.00  0.00    +0.046 A 
ATOM     20  C   UNL     1      21.760   6.929  21.028  0.00  0.00    +0.008 A 
ATOM     23  C   UNL     1      22.275   4.187  21.065  0.00  0.00    +0.159 A 
ATOM     24  C   UNL     1      22.891   6.423  20.387  0.00  0.00    +0.041 A 
ATOM     26  C   UNL     1      23.148   5.052  20.405  0.00  0.00    +0.158 A 
ENDBRANCH  13  14
ENDBRANCH   4  13
ENDBRANCH  12   8
TORSDOF 4
ENDMDL
MODEL 10
REMARK VINA RESULT:      -7.0     23.949     26.660
REMARK  Name = 51137865
REMARK  4 active torsions:
REMARK  status: ('A' for Active; 'I' for Inactive)
REMARK    1  A    between atoms: N_4  and  C_13
REMARK    2  A    between atoms: C_8  and  C_12
REMARK    3  A    between atoms: C_13  and  C_14
REMARK    4  A    between atoms: C_17  and  C_25
REMARK                            x       y       z     vdW  Elec       q    Type
REMARK                         _______ _______ _______ _____ _____    ______ ____
ROOT
ATOM      5  N   UNL     1      -7.994  -8.779  16.155  0.00  0.00    -0.342 N 
ATOM      6  N   UNL     1      -7.554 -10.258  17.756  0.00  0.00    -0.231 NA
ATOM     12  C   UNL     1      -7.061  -9.594  16.734  0.00  0.00    +0.113 A 
ATOM     15  C   UNL     1      -9.167  -8.927  16.849  0.00  0.00    +0.067 A 
ATOM     16  C   UNL     1      -8.867  -9.854  17.843  0.00  0.00    +0.101 A 
ATOM     17  C   UNL     1      -9.871 -10.237  18.749  0.00  0.00    +0.064 A 
ATOM     18  C   UNL     1     -10.427  -8.346  16.698  0.00  0.00    +0.028 A 
ATOM     21  C   UNL     1     -11.143  -9.667  18.616  0.00  0.00    +0.015 A 
ATOM     22  C   UNL     1     -11.415  -8.739  17.607  0.00  0.00    +0.003 A 
ATOM     27  H   UNL     1      -7.849  -8.175  15.358  0.00  0.00    +0.167 HD
ENDROOT
BRANCH  17  25
ATOM      3  O   UNL     1      -8.438 -11.558  20.072  0.00  0.00    -0.270 OA
ATOM      7  N   UNL     1     -10.682 -11.699  20.519  0.00  0.00    -0.325 N 
ATOM     25  C   UNL     1      -9.599 -11.199  19.801  0.00  0.00    +0.244 C 
ATOM     28  H   UNL     1     -10.531 -12.369  21.267  0.00  0.00    +0.145 HD
ATOM     29  H   UNL     1     -11.646 -11.438  20.347  0.00  0.00    +0.145 HD
ENDBRANCH  17  25
BRANCH  12   8
ATOM      4  N   UNL     1      -4.272 -10.839  14.711  0.00  0.00    -0.297 NA
ATOM      8  C   UNL     1      -5.646  -9.669  16.206  0.00  0.00    +0.070 C 
ATOM      9  C   UNL     1      -4.712 -10.604  16.992  0.00  0.00    +0.028 C 
ATOM     10  C   UNL     1      -5.574 -10.173  14.759  0.00  0.00    +0.096 C 
ATOM     11  C   UNL     1      -4.189 -11.595  15.961  0.00  0.00    +0.085 C 
BRANCH   4  13
ATOM     13  C   UNL     1      -4.125 -11.688  13.538  0.00  0.00    +0.119 C 
BRANCH  13  14
ATOM      1  F   UNL     1      -1.460  -8.950  10.502  0.00  0.00    -0.202 F 
ATOM      2  F   UNL     1      -3.591  -8.668   8.811  0.00  0.00    -0.202 F 
ATOM     14  C   UNL     1      -3.982 -10.882  12.275  0.00  0.00    -0.030 A 
ATOM     19  C   UNL     1      -2.763 -10.278  11.967  0.00  0.00    +0.046 A 
ATOM     20  C   UNL     1      -5.069 -10.738  11.412  0.00  0.00    +0.008 A 
ATOM     23  C   UNL     1      -2.631  -9.529  10.797  0.00  0.00    +0.159 A 
ATOM     24  C   UNL     1      -4.937  -9.990  10.242  0.00  0.00    +0.041 A 
ATOM     26  C   UNL     1      -3.718  -9.386   9.934  0.00  0.00    +0.158 A 
ENDBRANCH  13  14
ENDBRANCH   4  13
ENDBRANCH  12   8
TORSDOF 4
ENDMDL
