REMARK  Name = 25390426
REMARK  12 active torsions:
REMARK  status: ('A' for Active; 'I' for Inactive)
REMARK    1  A    between atoms: O_2  and  C_9
REMARK    2  A    between atoms: O_3  and  C_10
REMARK    3  A    between atoms: O_6  and  C_25
REMARK    4  A    between atoms: O_6  and  C_26
REMARK    5  A    between atoms: N_7  and  C_14
REMARK    6  A    between atoms: N_8  and  C_16
REMARK    7  A    between atoms: C_11  and  C_13
REMARK    8  A    between atoms: C_12  and  C_14
REMARK    9  A    between atoms: C_13  and  C_15
REMARK   10  A    between atoms: C_16  and  C_18
REMARK   11  A    between atoms: C_16  and  C_19
REMARK   12  A    between atoms: C_17  and  C_20
REMARK                            x       y       z     vdW  Elec       q    Type
REMARK                         _______ _______ _______ _____ _____    ______ ____
ROOT
ATOM      1  O   UNL     1      -2.708  -0.147  -0.818  0.00  0.00    -0.366 OA
ATOM      9  C   UNL     1      -3.618  -0.120   1.379  0.00  0.00    +0.175 C 
ATOM     10  C   UNL     1      -3.268   1.294   0.963  0.00  0.00    +0.176 C 
ATOM     11  C   UNL     1      -2.825  -0.952   0.378  0.00  0.00    +0.158 C 
ATOM     12  C   UNL     1      -3.234   1.165  -0.551  0.00  0.00    +0.167 C 
ENDROOT
BRANCH   9   2
ATOM      2  O   UNL     1      -5.006  -0.370   1.163  0.00  0.00    -0.387 OA
ATOM     27  H   UNL     1      -5.177  -1.294   1.414  0.00  0.00    +0.210 HD
ENDBRANCH   9   2
BRANCH  10   3
ATOM      3  O   UNL     1      -4.210   2.253   1.392  0.00  0.00    -0.387 OA
ATOM     28  H   UNL     1      -4.270   2.191   2.360  0.00  0.00    +0.210 HD
ENDBRANCH  10   3
BRANCH  11  13
ATOM     13  C   UNL     1      -1.418  -1.281   0.857  0.00  0.00    +0.130 C 
BRANCH  13  15
ATOM      4  O   UNL     1      -1.336  -2.964  -0.878  0.00  0.00    -0.276 OA
ATOM      8  N   UNL     1       0.523  -2.645   0.479  0.00  0.00    -0.313 N 
ATOM     15  C   UNL     1      -0.768  -2.385   0.044  0.00  0.00    +0.216 C 
ATOM     30  H   UNL     1       0.919  -2.064   1.213  0.00  0.00    +0.149 HD
BRANCH   8  16
ATOM     16  C   UNL     1       1.369  -3.652  -0.119  0.00  0.00    +0.067 C 
ATOM     18  C   UNL     1       2.301  -4.250   0.927  0.00  0.00    +0.027 C 
ATOM     19  C   UNL     1       2.154  -3.066  -1.286  0.00  0.00    +0.027 C 
ENDBRANCH   8  16
ENDBRANCH  13  15
ENDBRANCH  11  13
BRANCH  12  14
ATOM     14  C   UNL     1      -2.364   2.211  -1.225  0.00  0.00    +0.138 C 
BRANCH  14   7
ATOM      5  O   UNL     1      -0.271   0.623  -2.384  0.00  0.00    -0.270 OA
ATOM      7  N   UNL     1      -1.006   2.124  -0.774  0.00  0.00    -0.309 N 
ATOM     17  C   UNL     1      -0.053   1.324  -1.399  0.00  0.00    +0.244 C 
ATOM     29  H   UNL     1      -0.743   2.721   0.003  0.00  0.00    +0.149 HD
BRANCH  17  20
ATOM     20  C   UNL     1       1.304   1.324  -0.793  0.00  0.00    +0.037 A 
ATOM     21  C   UNL     1       2.421   1.054  -1.585  0.00  0.00    +0.016 A 
ATOM     22  C   UNL     1       1.461   1.591   0.567  0.00  0.00    +0.016 A 
ATOM     23  C   UNL     1       3.694   1.051  -1.016  0.00  0.00    +0.046 A 
ATOM     24  C   UNL     1       2.734   1.588   1.136  0.00  0.00    +0.046 A 
ATOM     25  C   UNL     1       3.851   1.318   0.344  0.00  0.00    +0.120 A 
BRANCH  25   6
ATOM      6  O   UNL     1       5.094   1.315   0.900  0.00  0.00    -0.495 OA
ATOM     26  C   UNL     1       5.181   1.596   2.296  0.00  0.00    +0.277 C 
ENDBRANCH  25   6
ENDBRANCH  17  20
ENDBRANCH  14   7
ENDBRANCH  12  14
TORSDOF 9
