MODEL 1
REMARK VINA RESULT:      -7.6      0.000      0.000
REMARK  Name = 75536685
REMARK  10 active torsions:
REMARK  status: ('A' for Active; 'I' for Inactive)
REMARK    1  A    between atoms: S_1  and  N_8
REMARK    2  A    between atoms: S_1  and  C_17
REMARK    3  A    between atoms: O_3  and  C_11
REMARK    4  A    between atoms: N_7  and  C_10
REMARK    5  A    between atoms: N_7  and  C_15
REMARK    6  A    between atoms: N_8  and  C_14
REMARK    7  A    between atoms: N_9  and  C_24
REMARK    8  A    between atoms: C_12  and  C_14
REMARK    9  A    between atoms: C_15  and  C_16
REMARK   10  A    between atoms: C_28  and  C_29
REMARK                            x       y       z     vdW  Elec       q    Type
REMARK                         _______ _______ _______ _____ _____    ______ ____
ROOT
ATOM      2  O   UNL     1      10.711   8.474  19.633  0.00  0.00    -0.371 OA
ATOM     10  C   UNL     1      12.642   7.124  19.329  0.00  0.00    +0.111 C 
ATOM     11  C   UNL     1      12.469   7.414  20.808  0.00  0.00    +0.164 C 
ATOM     12  C   UNL     1      10.993   7.786  20.863  0.00  0.00    +0.164 C 
ATOM     13  C   UNL     1      11.780   8.211  18.707  0.00  0.00    +0.181 C 
ENDROOT
BRANCH  11   3
ATOM      3  O   UNL     1      12.760   6.294  21.621  0.00  0.00    -0.388 OA
ATOM     31  H   UNL     1      13.415   5.743  21.162  0.00  0.00    +0.210 HD
ENDBRANCH  11   3
BRANCH  10   7
ATOM      7  N   UNL     1      14.025   7.175  18.883  0.00  0.00    -0.305 NA
ATOM     30  H   UNL     1      14.045   7.399  17.887  0.00  0.00    +0.123 HD
BRANCH   7  15
ATOM     15  C   UNL     1      14.775   8.191  19.611  0.00  0.00    +0.116 C 
BRANCH  15  16
ATOM     16  C   UNL     1      16.159   7.717  19.969  0.00  0.00    -0.033 A 
ATOM     18  C   UNL     1      16.623   6.495  19.485  0.00  0.00    +0.007 A 
ATOM     19  C   UNL     1      16.975   8.501  20.785  0.00  0.00    +0.007 A 
ATOM     20  C   UNL     1      17.904   6.055  19.817  0.00  0.00    +0.023 A 
ATOM     21  C   UNL     1      18.256   8.061  21.118  0.00  0.00    +0.023 A 
ATOM     24  C   UNL     1      18.721   6.838  20.633  0.00  0.00    +0.033 A 
BRANCH  24   9
ATOM      6  O   UNL     1      19.938   6.216  23.316  0.00  0.00    -0.276 OA
ATOM      9  N   UNL     1      20.002   6.398  20.966  0.00  0.00    -0.286 N 
ATOM     28  C   UNL     1      20.519   6.123  22.240  0.00  0.00    +0.214 C 
ATOM     29  C   UNL     1      21.954   5.666  22.175  0.00  0.00    +0.109 C 
ATOM     33  H   UNL     1      20.633   6.261  20.179  0.00  0.00    +0.155 HD
ENDBRANCH  24   9
ENDBRANCH  15  16
ENDBRANCH   7  15
ENDBRANCH  10   7
BRANCH  12  14
ATOM     14  C   UNL     1      10.642   8.678  22.041  0.00  0.00    +0.140 C 
BRANCH  14   8
ATOM      8  N   UNL     1      11.879   9.163  22.683  0.00  0.00    -0.187 NA
ATOM     32  H   UNL     1      12.049   8.822  23.638  0.00  0.00    +0.148 HD
BRANCH   8   1
ATOM      1  S   UNL     1      12.544  10.662  22.229  0.00  0.00    +0.058 S 
ATOM      4  O   UNL     1      12.143  10.973  20.870  0.00  0.00    -0.153 OA
ATOM      5  O   UNL     1      13.946  10.688  22.600  0.00  0.00    -0.153 OA
BRANCH   1  17
ATOM     17  C   UNL     1      11.702  11.775  23.313  0.00  0.00    +0.105 A 
ATOM     22  C   UNL     1      11.507  11.431  24.651  0.00  0.00    +0.028 A 
ATOM     23  C   UNL     1      11.233  12.996  22.832  0.00  0.00    +0.028 A 
ATOM     25  C   UNL     1      10.843  12.311  25.507  0.00  0.00    +0.002 A 
ATOM     26  C   UNL     1      10.570  13.876  23.688  0.00  0.00    +0.002 A 
ATOM     27  C   UNL     1      10.375  13.533  25.026  0.00  0.00    +0.000 A 
ENDBRANCH   1  17
ENDBRANCH   8   1
ENDBRANCH  14   8
ENDBRANCH  12  14
TORSDOF 9
ENDMDL
MODEL 2
REMARK VINA RESULT:      -7.2      2.058      2.760
REMARK  Name = 75536685
REMARK  10 active torsions:
REMARK  status: ('A' for Active; 'I' for Inactive)
REMARK    1  A    between atoms: S_1  and  N_8
REMARK    2  A    between atoms: S_1  and  C_17
REMARK    3  A    between atoms: O_3  and  C_11
REMARK    4  A    between atoms: N_7  and  C_10
REMARK    5  A    between atoms: N_7  and  C_15
REMARK    6  A    between atoms: N_8  and  C_14
REMARK    7  A    between atoms: N_9  and  C_24
REMARK    8  A    between atoms: C_12  and  C_14
REMARK    9  A    between atoms: C_15  and  C_16
REMARK   10  A    between atoms: C_28  and  C_29
REMARK                            x       y       z     vdW  Elec       q    Type
REMARK                         _______ _______ _______ _____ _____    ______ ____
ROOT
ATOM      2  O   UNL     1      10.620   8.422  19.681  0.00  0.00    -0.371 OA
ATOM     10  C   UNL     1      12.774   7.585  19.135  0.00  0.00    +0.111 C 
ATOM     11  C   UNL     1      12.594   7.543  20.641  0.00  0.00    +0.164 C 
ATOM     12  C   UNL     1      11.077   7.585  20.756  0.00  0.00    +0.164 C 
ATOM     13  C   UNL     1      11.688   8.569  18.729  0.00  0.00    +0.181 C 
ENDROOT
BRANCH  11   3
ATOM      3  O   UNL     1      13.134   6.372  21.223  0.00  0.00    -0.388 OA
ATOM     31  H   UNL     1      13.873   6.068  20.669  0.00  0.00    +0.210 HD
ENDBRANCH  11   3
BRANCH  10   7
ATOM      7  N   UNL     1      14.102   8.005  18.717  0.00  0.00    -0.305 NA
ATOM     30  H   UNL     1      14.536   8.536  19.472  0.00  0.00    +0.123 HD
BRANCH   7  15
ATOM     15  C   UNL     1      14.942   6.855  18.405  0.00  0.00    +0.116 C 
BRANCH  15  16
ATOM     16  C   UNL     1      16.145   6.778  19.308  0.00  0.00    -0.033 A 
ATOM     18  C   UNL     1      16.267   7.659  20.382  0.00  0.00    +0.007 A 
ATOM     19  C   UNL     1      17.137   5.827  19.070  0.00  0.00    +0.007 A 
ATOM     20  C   UNL     1      17.381   7.589  21.219  0.00  0.00    +0.023 A 
ATOM     21  C   UNL     1      18.251   5.757  19.906  0.00  0.00    +0.023 A 
ATOM     24  C   UNL     1      18.373   6.638  20.981  0.00  0.00    +0.033 A 
BRANCH  24   9
ATOM      6  O   UNL     1      21.141   5.571  20.463  0.00  0.00    -0.276 OA
ATOM      9  N   UNL     1      19.488   6.568  21.816  0.00  0.00    -0.286 N 
ATOM     28  C   UNL     1      20.760   6.058  21.522  0.00  0.00    +0.214 C 
ATOM     29  C   UNL     1      21.693   6.167  22.701  0.00  0.00    +0.109 C 
ATOM     33  H   UNL     1      19.351   6.938  22.755  0.00  0.00    +0.155 HD
ENDBRANCH  24   9
ENDBRANCH  15  16
ENDBRANCH   7  15
ENDBRANCH  10   7
BRANCH  12  14
ATOM     14  C   UNL     1      10.589   8.142  22.082  0.00  0.00    +0.140 C 
BRANCH  14   8
ATOM      8  N   UNL     1      11.698   8.834  22.767  0.00  0.00    -0.187 NA
ATOM     32  H   UNL     1      12.102   8.340  23.574  0.00  0.00    +0.148 HD
BRANCH   8   1
ATOM      1  S   UNL     1      11.800  10.532  22.725  0.00  0.00    +0.058 S 
ATOM      4  O   UNL     1      11.706  11.052  24.075  0.00  0.00    -0.153 OA
ATOM      5  O   UNL     1      10.918  11.031  21.688  0.00  0.00    -0.153 OA
BRANCH   1  17
ATOM     17  C   UNL     1      13.455  10.781  22.159  0.00  0.00    +0.105 A 
ATOM     22  C   UNL     1      14.516  10.739  23.064  0.00  0.00    +0.028 A 
ATOM     23  C   UNL     1      13.701  11.018  20.807  0.00  0.00    +0.028 A 
ATOM     25  C   UNL     1      15.823  10.935  22.616  0.00  0.00    +0.002 A 
ATOM     26  C   UNL     1      15.008  11.213  20.359  0.00  0.00    +0.002 A 
ATOM     27  C   UNL     1      16.069  11.172  21.264  0.00  0.00    +0.000 A 
ENDBRANCH   1  17
ENDBRANCH   8   1
ENDBRANCH  14   8
ENDBRANCH  12  14
TORSDOF 9
ENDMDL
MODEL 3
REMARK VINA RESULT:      -7.0      2.849      4.505
REMARK  Name = 75536685
REMARK  10 active torsions:
REMARK  status: ('A' for Active; 'I' for Inactive)
REMARK    1  A    between atoms: S_1  and  N_8
REMARK    2  A    between atoms: S_1  and  C_17
REMARK    3  A    between atoms: O_3  and  C_11
REMARK    4  A    between atoms: N_7  and  C_10
REMARK    5  A    between atoms: N_7  and  C_15
REMARK    6  A    between atoms: N_8  and  C_14
REMARK    7  A    between atoms: N_9  and  C_24
REMARK    8  A    between atoms: C_12  and  C_14
REMARK    9  A    between atoms: C_15  and  C_16
REMARK   10  A    between atoms: C_28  and  C_29
REMARK                            x       y       z     vdW  Elec       q    Type
REMARK                         _______ _______ _______ _____ _____    ______ ____
ROOT
ATOM      2  O   UNL     1      13.062  10.779  21.155  0.00  0.00    -0.371 OA
ATOM     10  C   UNL     1      15.238  10.146  21.863  0.00  0.00    +0.111 C 
ATOM     11  C   UNL     1      15.232  10.291  20.353  0.00  0.00    +0.164 C 
ATOM     12  C   UNL     1      14.009  11.174  20.148  0.00  0.00    +0.164 C 
ATOM     13  C   UNL     1      13.753  10.016  22.159  0.00  0.00    +0.181 C 
ENDROOT
BRANCH  11   3
ATOM      3  O   UNL     1      16.409  10.900  19.859  0.00  0.00    -0.388 OA
ATOM     31  H   UNL     1      17.131  10.250  19.899  0.00  0.00    +0.210 HD
ENDBRANCH  11   3
BRANCH  10   7
ATOM      7  N   UNL     1      16.011   9.009  22.337  0.00  0.00    -0.305 NA
ATOM     30  H   UNL     1      15.627   8.693  23.228  0.00  0.00    +0.123 HD
BRANCH   7  15
ATOM     15  C   UNL     1      15.961   7.906  21.384  0.00  0.00    +0.116 C 
BRANCH  15  16
ATOM     16  C   UNL     1      17.332   7.360  21.087  0.00  0.00    -0.033 A 
ATOM     18  C   UNL     1      17.472   6.223  20.292  0.00  0.00    +0.007 A 
ATOM     19  C   UNL     1      18.462   7.990  21.609  0.00  0.00    +0.007 A 
ATOM     20  C   UNL     1      18.742   5.715  20.017  0.00  0.00    +0.023 A 
ATOM     21  C   UNL     1      19.732   7.482  21.335  0.00  0.00    +0.023 A 
ATOM     24  C   UNL     1      19.872   6.345  20.539  0.00  0.00    +0.033 A 
BRANCH  24   9
ATOM      6  O   UNL     1      21.738   4.718  22.253  0.00  0.00    -0.276 OA
ATOM      9  N   UNL     1      21.143   5.838  20.265  0.00  0.00    -0.286 N 
ATOM     28  C   UNL     1      21.972   5.083  21.106  0.00  0.00    +0.214 C 
ATOM     29  C   UNL     1      23.273   4.725  20.433  0.00  0.00    +0.109 C 
ATOM     33  H   UNL     1      21.503   6.046  19.336  0.00  0.00    +0.155 HD
ENDBRANCH  24   9
ENDBRANCH  15  16
ENDBRANCH   7  15
ENDBRANCH  10   7
BRANCH  12  14
ATOM     14  C   UNL     1      13.385  11.027  18.771  0.00  0.00    +0.140 C 
BRANCH  14   8
ATOM      8  N   UNL     1      13.941   9.836  18.099  0.00  0.00    -0.187 NA
ATOM     32  H   UNL     1      14.819   9.984  17.586  0.00  0.00    +0.148 HD
BRANCH   8   1
ATOM      1  S   UNL     1      12.908   8.583  17.593  0.00  0.00    +0.058 S 
ATOM      4  O   UNL     1      13.697   7.521  16.998  0.00  0.00    -0.153 OA
ATOM      5  O   UNL     1      11.792   9.156  16.865  0.00  0.00    -0.153 OA
BRANCH   1  17
ATOM     17  C   UNL     1      12.273   7.993  19.133  0.00  0.00    +0.105 A 
ATOM     22  C   UNL     1      12.940   6.979  19.820  0.00  0.00    +0.028 A 
ATOM     23  C   UNL     1      11.105   8.542  19.661  0.00  0.00    +0.028 A 
ATOM     25  C   UNL     1      12.439   6.515  21.037  0.00  0.00    +0.002 A 
ATOM     26  C   UNL     1      10.604   8.078  20.878  0.00  0.00    +0.002 A 
ATOM     27  C   UNL     1      11.271   7.063  21.565  0.00  0.00    +0.000 A 
ENDBRANCH   1  17
ENDBRANCH   8   1
ENDBRANCH  14   8
ENDBRANCH  12  14
TORSDOF 9
ENDMDL
MODEL 4
REMARK VINA RESULT:      -6.9     25.091     28.432
REMARK  Name = 75536685
REMARK  10 active torsions:
REMARK  status: ('A' for Active; 'I' for Inactive)
REMARK    1  A    between atoms: S_1  and  N_8
REMARK    2  A    between atoms: S_1  and  C_17
REMARK    3  A    between atoms: O_3  and  C_11
REMARK    4  A    between atoms: N_7  and  C_10
REMARK    5  A    between atoms: N_7  and  C_15
REMARK    6  A    between atoms: N_8  and  C_14
REMARK    7  A    between atoms: N_9  and  C_24
REMARK    8  A    between atoms: C_12  and  C_14
REMARK    9  A    between atoms: C_15  and  C_16
REMARK   10  A    between atoms: C_28  and  C_29
REMARK                            x       y       z     vdW  Elec       q    Type
REMARK                         _______ _______ _______ _____ _____    ______ ____
ROOT
ATOM      2  O   UNL     1     -10.497  11.009  16.151  0.00  0.00    -0.371 OA
ATOM     10  C   UNL     1      -9.786   9.566  17.899  0.00  0.00    +0.111 C 
ATOM     11  C   UNL     1     -10.647   8.780  16.928  0.00  0.00    +0.164 C 
ATOM     12  C   UNL     1     -10.555   9.651  15.683  0.00  0.00    +0.164 C 
ATOM     13  C   UNL     1     -10.170  10.996  17.552  0.00  0.00    +0.181 C 
ENDROOT
BRANCH  11   3
ATOM      3  O   UNL     1     -10.155   7.475  16.695  0.00  0.00    -0.388 OA
ATOM     31  H   UNL     1     -10.906   6.858  16.702  0.00  0.00    +0.210 HD
ENDBRANCH  11   3
BRANCH  10   7
ATOM      7  N   UNL     1     -10.032   9.238  19.294  0.00  0.00    -0.305 NA
ATOM     30  H   UNL     1      -9.286   9.634  19.866  0.00  0.00    +0.123 HD
BRANCH   7  15
ATOM     15  C   UNL     1     -11.309   9.780  19.744  0.00  0.00    +0.116 C 
BRANCH  15  16
ATOM     16  C   UNL     1     -12.120   8.755  20.493  0.00  0.00    -0.033 A 
ATOM     18  C   UNL     1     -13.222   9.155  21.248  0.00  0.00    +0.007 A 
ATOM     19  C   UNL     1     -11.768   7.407  20.432  0.00  0.00    +0.007 A 
ATOM     20  C   UNL     1     -13.972   8.206  21.943  0.00  0.00    +0.023 A 
ATOM     21  C   UNL     1     -12.517   6.458  21.127  0.00  0.00    +0.023 A 
ATOM     24  C   UNL     1     -13.620   6.858  21.882  0.00  0.00    +0.033 A 
BRANCH  24   9
ATOM      6  O   UNL     1     -15.785   4.995  20.928  0.00  0.00    -0.276 OA
ATOM      9  N   UNL     1     -14.370   5.909  22.578  0.00  0.00    -0.286 N 
ATOM     28  C   UNL     1     -15.372   5.064  22.081  0.00  0.00    +0.214 C 
ATOM     29  C   UNL     1     -15.942   4.178  23.159  0.00  0.00    +0.109 C 
ATOM     33  H   UNL     1     -14.154   5.827  23.569  0.00  0.00    +0.155 HD
ENDBRANCH  24   9
ENDBRANCH  15  16
ENDBRANCH   7  15
ENDBRANCH  10   7
BRANCH  12  14
ATOM     14  C   UNL     1     -11.735   9.483  14.742  0.00  0.00    +0.140 C 
BRANCH  14   8
ATOM      8  N   UNL     1     -12.463   8.244  15.076  0.00  0.00    -0.187 NA
ATOM     32  H   UNL     1     -11.878   7.419  15.261  0.00  0.00    +0.148 HD
BRANCH   8   1
ATOM      1  S   UNL     1     -14.044   8.002  14.496  0.00  0.00    +0.058 S 
ATOM      4  O   UNL     1     -14.100   6.752  13.761  0.00  0.00    -0.153 OA
ATOM      5  O   UNL     1     -14.515   9.229  13.883  0.00  0.00    -0.153 OA
BRANCH   1  17
ATOM     17  C   UNL     1     -14.953   7.792  15.997  0.00  0.00    +0.105 A 
ATOM     22  C   UNL     1     -14.380   8.157  17.216  0.00  0.00    +0.028 A 
ATOM     23  C   UNL     1     -16.242   7.262  15.963  0.00  0.00    +0.028 A 
ATOM     25  C   UNL     1     -15.098   7.993  18.401  0.00  0.00    +0.002 A 
ATOM     26  C   UNL     1     -16.960   7.098  17.149  0.00  0.00    +0.002 A 
ATOM     27  C   UNL     1     -16.387   7.463  18.367  0.00  0.00    +0.000 A 
ENDBRANCH   1  17
ENDBRANCH   8   1
ENDBRANCH  14   8
ENDBRANCH  12  14
TORSDOF 9
ENDMDL
MODEL 5
REMARK VINA RESULT:      -6.6     26.843     30.593
REMARK  Name = 75536685
REMARK  10 active torsions:
REMARK  status: ('A' for Active; 'I' for Inactive)
REMARK    1  A    between atoms: S_1  and  N_8
REMARK    2  A    between atoms: S_1  and  C_17
REMARK    3  A    between atoms: O_3  and  C_11
REMARK    4  A    between atoms: N_7  and  C_10
REMARK    5  A    between atoms: N_7  and  C_15
REMARK    6  A    between atoms: N_8  and  C_14
REMARK    7  A    between atoms: N_9  and  C_24
REMARK    8  A    between atoms: C_12  and  C_14
REMARK    9  A    between atoms: C_15  and  C_16
REMARK   10  A    between atoms: C_28  and  C_29
REMARK                            x       y       z     vdW  Elec       q    Type
REMARK                         _______ _______ _______ _____ _____    ______ ____
ROOT
ATOM      2  O   UNL     1      -8.582 -11.005  19.870  0.00  0.00    -0.371 OA
ATOM     10  C   UNL     1      -9.991 -11.129  17.961  0.00  0.00    +0.111 C 
ATOM     11  C   UNL     1      -8.624 -10.625  17.536  0.00  0.00    +0.164 C 
ATOM     12  C   UNL     1      -7.761 -11.105  18.694  0.00  0.00    +0.164 C 
ATOM     13  C   UNL     1      -9.954 -10.869  19.459  0.00  0.00    +0.181 C 
ENDROOT
BRANCH  11   3
ATOM      3  O   UNL     1      -8.201 -11.173  16.302  0.00  0.00    -0.388 OA
ATOM     31  H   UNL     1      -7.289 -11.494  16.406  0.00  0.00    +0.210 HD
ENDBRANCH  11   3
BRANCH  10   7
ATOM      7  N   UNL     1     -11.094 -10.454  17.297  0.00  0.00    -0.305 NA
ATOM     30  H   UNL     1     -11.920 -11.051  17.334  0.00  0.00    +0.123 HD
BRANCH   7  15
ATOM     15  C   UNL     1     -11.399  -9.184  17.945  0.00  0.00    +0.116 C 
BRANCH  15  16
ATOM     16  C   UNL     1     -11.548  -8.066  16.946  0.00  0.00    -0.033 A 
ATOM     18  C   UNL     1     -10.435  -7.317  16.568  0.00  0.00    +0.007 A 
ATOM     19  C   UNL     1     -12.799  -7.781  16.400  0.00  0.00    +0.007 A 
ATOM     20  C   UNL     1     -10.572  -6.281  15.644  0.00  0.00    +0.023 A 
ATOM     21  C   UNL     1     -12.937  -6.745  15.476  0.00  0.00    +0.023 A 
ATOM     24  C   UNL     1     -11.823  -5.996  15.098  0.00  0.00    +0.033 A 
BRANCH  24   9
ATOM      6  O   UNL     1     -12.418  -6.074  12.146  0.00  0.00    -0.276 OA
ATOM      9  N   UNL     1     -11.962  -4.960  14.174  0.00  0.00    -0.286 N 
ATOM     28  C   UNL     1     -12.239  -5.054  12.803  0.00  0.00    +0.214 C 
ATOM     29  C   UNL     1     -12.310  -3.695  12.153  0.00  0.00    +0.109 C 
ATOM     33  H   UNL     1     -11.845  -4.022  14.553  0.00  0.00    +0.155 HD
ENDBRANCH  24   9
ENDBRANCH  15  16
ENDBRANCH   7  15
ENDBRANCH  10   7
BRANCH  12  14
ATOM     14  C   UNL     1      -6.496 -10.286  18.882  0.00  0.00    +0.140 C 
BRANCH  14   8
ATOM      8  N   UNL     1      -5.669 -10.364  17.661  0.00  0.00    -0.187 NA
ATOM     32  H   UNL     1      -5.997  -9.802  16.865  0.00  0.00    +0.148 HD
BRANCH   8   1
ATOM      1  S   UNL     1      -4.746 -11.757  17.345  0.00  0.00    +0.058 S 
ATOM      4  O   UNL     1      -5.585 -12.755  16.709  0.00  0.00    -0.153 OA
ATOM      5  O   UNL     1      -3.981 -12.095  18.529  0.00  0.00    -0.153 OA
BRANCH   1  17
ATOM     17  C   UNL     1      -3.597 -11.164  16.140  0.00  0.00    +0.105 A 
ATOM     22  C   UNL     1      -3.982 -11.054  14.803  0.00  0.00    +0.028 A 
ATOM     23  C   UNL     1      -2.306 -10.804  16.525  0.00  0.00    +0.028 A 
ATOM     25  C   UNL     1      -3.075 -10.584  13.853  0.00  0.00    +0.002 A 
ATOM     26  C   UNL     1      -1.400 -10.334  15.574  0.00  0.00    +0.002 A 
ATOM     27  C   UNL     1      -1.784 -10.225  14.238  0.00  0.00    +0.000 A 
ENDBRANCH   1  17
ENDBRANCH   8   1
ENDBRANCH  14   8
ENDBRANCH  12  14
TORSDOF 9
ENDMDL
MODEL 6
REMARK VINA RESULT:      -6.6     26.966     29.203
REMARK  Name = 75536685
REMARK  10 active torsions:
REMARK  status: ('A' for Active; 'I' for Inactive)
REMARK    1  A    between atoms: S_1  and  N_8
REMARK    2  A    between atoms: S_1  and  C_17
REMARK    3  A    between atoms: O_3  and  C_11
REMARK    4  A    between atoms: N_7  and  C_10
REMARK    5  A    between atoms: N_7  and  C_15
REMARK    6  A    between atoms: N_8  and  C_14
REMARK    7  A    between atoms: N_9  and  C_24
REMARK    8  A    between atoms: C_12  and  C_14
REMARK    9  A    between atoms: C_15  and  C_16
REMARK   10  A    between atoms: C_28  and  C_29
REMARK                            x       y       z     vdW  Elec       q    Type
REMARK                         _______ _______ _______ _____ _____    ______ ____
ROOT
ATOM      2  O   UNL     1      -4.918 -11.764  15.654  0.00  0.00    -0.371 OA
ATOM     10  C   UNL     1      -2.911 -11.277  14.481  0.00  0.00    +0.111 C 
ATOM     11  C   UNL     1      -2.760 -10.833  15.924  0.00  0.00    +0.164 C 
ATOM     12  C   UNL     1      -3.841 -11.665  16.601  0.00  0.00    +0.164 C 
ATOM     13  C   UNL     1      -4.422 -11.389  14.357  0.00  0.00    +0.181 C 
ENDROOT
BRANCH  11   3
ATOM      3  O   UNL     1      -1.476 -11.110  16.449  0.00  0.00    -0.388 OA
ATOM     31  H   UNL     1      -0.862 -10.425  16.135  0.00  0.00    +0.210 HD
ENDBRANCH  11   3
BRANCH  10   7
ATOM      7  N   UNL     1      -2.332 -10.349  13.522  0.00  0.00    -0.305 NA
ATOM     30  H   UNL     1      -1.513  -9.907  13.940  0.00  0.00    +0.123 HD
BRANCH   7  15
ATOM     15  C   UNL     1      -1.927 -11.039  12.303  0.00  0.00    +0.116 C 
BRANCH  15  16
ATOM     16  C   UNL     1      -2.837 -10.715  11.147  0.00  0.00    -0.033 A 
ATOM     18  C   UNL     1      -3.669 -11.700  10.618  0.00  0.00    +0.007 A 
ATOM     19  C   UNL     1      -2.847  -9.429  10.607  0.00  0.00    +0.007 A 
ATOM     20  C   UNL     1      -4.511 -11.401   9.547  0.00  0.00    +0.023 A 
ATOM     21  C   UNL     1      -3.688  -9.130   9.535  0.00  0.00    +0.023 A 
ATOM     24  C   UNL     1      -4.521 -10.116   9.006  0.00  0.00    +0.033 A 
BRANCH  24   9
ATOM      6  O   UNL     1      -4.669 -11.307   6.244  0.00  0.00    -0.276 OA
ATOM      9  N   UNL     1      -5.363  -9.816   7.934  0.00  0.00    -0.286 N 
ATOM     28  C   UNL     1      -5.387 -10.405   6.663  0.00  0.00    +0.214 C 
ATOM     29  C   UNL     1      -6.452  -9.797   5.785  0.00  0.00    +0.109 C 
ATOM     33  H   UNL     1      -6.040  -9.076   8.108  0.00  0.00    +0.155 HD
ENDBRANCH  24   9
ENDBRANCH  15  16
ENDBRANCH   7  15
ENDBRANCH  10   7
BRANCH  12  14
ATOM     14  C   UNL     1      -4.349 -11.054  17.895  0.00  0.00    +0.140 C 
BRANCH  14   8
ATOM      8  N   UNL     1      -5.749 -10.620  17.722  0.00  0.00    -0.187 NA
ATOM     32  H   UNL     1      -5.880  -9.696  17.290  0.00  0.00    +0.148 HD
BRANCH   8   1
ATOM      1  S   UNL     1      -6.957 -11.203  18.768  0.00  0.00    +0.058 S 
ATOM      4  O   UNL     1      -6.618 -10.854  20.134  0.00  0.00    -0.153 OA
ATOM      5  O   UNL     1      -7.260 -12.578  18.420  0.00  0.00    -0.153 OA
BRANCH   1  17
ATOM     17  C   UNL     1      -8.352 -10.229  18.288  0.00  0.00    +0.105 A 
ATOM     22  C   UNL     1      -9.609 -10.497  18.829  0.00  0.00    +0.028 A 
ATOM     23  C   UNL     1      -8.195  -9.194  17.367  0.00  0.00    +0.028 A 
ATOM     25  C   UNL     1     -10.710  -9.728  18.451  0.00  0.00    +0.002 A 
ATOM     26  C   UNL     1      -9.296  -8.424  16.989  0.00  0.00    +0.002 A 
ATOM     27  C   UNL     1     -10.554  -8.692  17.531  0.00  0.00    +0.000 A 
ENDBRANCH   1  17
ENDBRANCH   8   1
ENDBRANCH  14   8
ENDBRANCH  12  14
TORSDOF 9
ENDMDL
MODEL 7
REMARK VINA RESULT:      -6.6     27.736     30.146
REMARK  Name = 75536685
REMARK  10 active torsions:
REMARK  status: ('A' for Active; 'I' for Inactive)
REMARK    1  A    between atoms: S_1  and  N_8
REMARK    2  A    between atoms: S_1  and  C_17
REMARK    3  A    between atoms: O_3  and  C_11
REMARK    4  A    between atoms: N_7  and  C_10
REMARK    5  A    between atoms: N_7  and  C_15
REMARK    6  A    between atoms: N_8  and  C_14
REMARK    7  A    between atoms: N_9  and  C_24
REMARK    8  A    between atoms: C_12  and  C_14
REMARK    9  A    between atoms: C_15  and  C_16
REMARK   10  A    between atoms: C_28  and  C_29
REMARK                            x       y       z     vdW  Elec       q    Type
REMARK                         _______ _______ _______ _____ _____    ______ ____
ROOT
ATOM      2  O   UNL     1     -10.634 -12.210  18.114  0.00  0.00    -0.371 OA
ATOM     10  C   UNL     1      -8.970 -11.509  19.657  0.00  0.00    +0.111 C 
ATOM     11  C   UNL     1     -10.087 -10.482  19.633  0.00  0.00    +0.164 C 
ATOM     12  C   UNL     1     -11.231 -11.306  19.059  0.00  0.00    +0.164 C 
ATOM     13  C   UNL     1      -9.216 -12.251  18.353  0.00  0.00    +0.181 C 
ENDROOT
BRANCH  11   3
ATOM      3  O   UNL     1     -10.393  -9.981  20.920  0.00  0.00    -0.388 OA
ATOM     31  H   UNL     1      -9.564  -9.887  21.418  0.00  0.00    +0.210 HD
ENDBRANCH  11   3
BRANCH  10   7
ATOM      7  N   UNL     1      -7.641 -10.923  19.732  0.00  0.00    -0.305 NA
ATOM     30  H   UNL     1      -7.565 -10.380  20.592  0.00  0.00    +0.123 HD
BRANCH   7  15
ATOM     15  C   UNL     1      -6.611 -11.956  19.733  0.00  0.00    +0.116 C 
BRANCH  15  16
ATOM     16  C   UNL     1      -5.713 -11.852  18.528  0.00  0.00    -0.033 A 
ATOM     18  C   UNL     1      -5.627 -12.914  17.629  0.00  0.00    +0.007 A 
ATOM     19  C   UNL     1      -4.966 -10.694  18.313  0.00  0.00    +0.007 A 
ATOM     20  C   UNL     1      -4.794 -12.819  16.514  0.00  0.00    +0.023 A 
ATOM     21  C   UNL     1      -4.132 -10.599  17.199  0.00  0.00    +0.023 A 
ATOM     24  C   UNL     1      -4.047 -11.661  16.299  0.00  0.00    +0.033 A 
BRANCH  24   9
ATOM      6  O   UNL     1      -4.505 -10.365  13.620  0.00  0.00    -0.276 OA
ATOM      9  N   UNL     1      -3.213 -11.566  15.185  0.00  0.00    -0.286 N 
ATOM     28  C   UNL     1      -3.479 -10.948  13.955  0.00  0.00    +0.214 C 
ATOM     29  C   UNL     1      -2.312 -11.063  13.007  0.00  0.00    +0.109 C 
ATOM     33  H   UNL     1      -2.299 -12.002  15.288  0.00  0.00    +0.155 HD
ENDBRANCH  24   9
ENDBRANCH  15  16
ENDBRANCH   7  15
ENDBRANCH  10   7
BRANCH  12  14
ATOM     14  C   UNL     1     -12.290 -10.466  18.368  0.00  0.00    +0.140 C 
BRANCH  14   8
ATOM      8  N   UNL     1     -11.783  -9.094  18.170  0.00  0.00    -0.187 NA
ATOM     32  H   UNL     1     -12.004  -8.425  18.919  0.00  0.00    +0.148 HD
BRANCH   8   1
ATOM      1  S   UNL     1     -11.535  -8.496  16.597  0.00  0.00    +0.058 S 
ATOM      4  O   UNL     1     -11.341  -7.060  16.655  0.00  0.00    -0.153 OA
ATOM      5  O   UNL     1     -12.537  -9.061  15.713  0.00  0.00    -0.153 OA
BRANCH   1  17
ATOM     17  C   UNL     1      -9.990  -9.238  16.167  0.00  0.00    +0.105 A 
ATOM     22  C   UNL     1      -9.948 -10.268  15.228  0.00  0.00    +0.028 A 
ATOM     23  C   UNL     1      -8.812  -8.792  16.766  0.00  0.00    +0.028 A 
ATOM     25  C   UNL     1      -8.728 -10.853  14.888  0.00  0.00    +0.002 A 
ATOM     26  C   UNL     1      -7.592  -9.377  16.426  0.00  0.00    +0.002 A 
ATOM     27  C   UNL     1      -7.550 -10.408  15.487  0.00  0.00    +0.000 A 
ENDBRANCH   1  17
ENDBRANCH   8   1
ENDBRANCH  14   8
ENDBRANCH  12  14
TORSDOF 9
ENDMDL
MODEL 8
REMARK VINA RESULT:      -6.5     26.612     29.396
REMARK  Name = 75536685
REMARK  10 active torsions:
REMARK  status: ('A' for Active; 'I' for Inactive)
REMARK    1  A    between atoms: S_1  and  N_8
REMARK    2  A    between atoms: S_1  and  C_17
REMARK    3  A    between atoms: O_3  and  C_11
REMARK    4  A    between atoms: N_7  and  C_10
REMARK    5  A    between atoms: N_7  and  C_15
REMARK    6  A    between atoms: N_8  and  C_14
REMARK    7  A    between atoms: N_9  and  C_24
REMARK    8  A    between atoms: C_12  and  C_14
REMARK    9  A    between atoms: C_15  and  C_16
REMARK   10  A    between atoms: C_28  and  C_29
REMARK                            x       y       z     vdW  Elec       q    Type
REMARK                         _______ _______ _______ _____ _____    ______ ____
ROOT
ATOM      2  O   UNL     1      -2.656 -12.641  14.472  0.00  0.00    -0.371 OA
ATOM     10  C   UNL     1      -1.773 -11.147  12.850  0.00  0.00    +0.111 C 
ATOM     11  C   UNL     1      -2.140 -10.364  14.097  0.00  0.00    +0.164 C 
ATOM     12  C   UNL     1      -2.161 -11.469  15.143  0.00  0.00    +0.164 C 
ATOM     13  C   UNL     1      -2.571 -12.425  13.053  0.00  0.00    +0.181 C 
ENDROOT
BRANCH  11   3
ATOM      3  O   UNL     1      -1.192  -9.361  14.410  0.00  0.00    -0.388 OA
ATOM     31  H   UNL     1      -1.140  -8.744  13.661  0.00  0.00    +0.210 HD
ENDBRANCH  11   3
BRANCH  10   7
ATOM      7  N   UNL     1      -2.107 -10.462  11.612  0.00  0.00    -0.305 NA
ATOM     30  H   UNL     1      -1.263 -10.365  11.047  0.00  0.00    +0.123 HD
BRANCH   7  15
ATOM     15  C   UNL     1      -3.101 -11.209  10.850  0.00  0.00    +0.116 C 
BRANCH  15  16
ATOM     16  C   UNL     1      -4.109 -10.298  10.201  0.00  0.00    -0.033 A 
ATOM     18  C   UNL     1      -4.181  -8.958  10.578  0.00  0.00    +0.007 A 
ATOM     19  C   UNL     1      -4.971 -10.796   9.223  0.00  0.00    +0.007 A 
ATOM     20  C   UNL     1      -5.116  -8.114   9.977  0.00  0.00    +0.023 A 
ATOM     21  C   UNL     1      -5.906  -9.953   8.623  0.00  0.00    +0.023 A 
ATOM     24  C   UNL     1      -5.978  -8.612   9.000  0.00  0.00    +0.033 A 
BRANCH  24   9
ATOM      6  O   UNL     1      -8.899  -8.193   9.597  0.00  0.00    -0.276 OA
ATOM      9  N   UNL     1      -6.914  -7.768   8.400  0.00  0.00    -0.286 N 
ATOM     28  C   UNL     1      -8.269  -7.613   8.719  0.00  0.00    +0.214 C 
ATOM     29  C   UNL     1      -8.940  -6.596   7.831  0.00  0.00    +0.109 C 
ATOM     33  H   UNL     1      -6.556  -7.198   7.636  0.00  0.00    +0.155 HD
ENDBRANCH  24   9
ENDBRANCH  15  16
ENDBRANCH   7  15
ENDBRANCH  10   7
BRANCH  12  14
ATOM     14  C   UNL     1      -3.043 -11.151  16.337  0.00  0.00    +0.140 C 
BRANCH  14   8
ATOM      8  N   UNL     1      -4.043 -10.135  15.958  0.00  0.00    -0.187 NA
ATOM     32  H   UNL     1      -3.719  -9.160  15.981  0.00  0.00    +0.148 HD
BRANCH   8   1
ATOM      1  S   UNL     1      -5.701 -10.443  16.190  0.00  0.00    +0.058 S 
ATOM      4  O   UNL     1      -6.379  -9.202  16.512  0.00  0.00    -0.153 OA
ATOM      5  O   UNL     1      -5.850 -11.600  17.052  0.00  0.00    -0.153 OA
BRANCH   1  17
ATOM     17  C   UNL     1      -6.207 -10.936  14.570  0.00  0.00    +0.105 A 
ATOM     22  C   UNL     1      -6.689  -9.986  13.670  0.00  0.00    +0.028 A 
ATOM     23  C   UNL     1      -6.124 -12.276  14.192  0.00  0.00    +0.028 A 
ATOM     25  C   UNL     1      -7.087 -10.375  12.391  0.00  0.00    +0.002 A 
ATOM     26  C   UNL     1      -6.523 -12.665  12.913  0.00  0.00    +0.002 A 
ATOM     27  C   UNL     1      -7.004 -11.715  12.013  0.00  0.00    +0.000 A 
ENDBRANCH   1  17
ENDBRANCH   8   1
ENDBRANCH  14   8
ENDBRANCH  12  14
TORSDOF 9
ENDMDL
MODEL 9
REMARK VINA RESULT:      -6.5     27.439     29.272
REMARK  Name = 75536685
REMARK  10 active torsions:
REMARK  status: ('A' for Active; 'I' for Inactive)
REMARK    1  A    between atoms: S_1  and  N_8
REMARK    2  A    between atoms: S_1  and  C_17
REMARK    3  A    between atoms: O_3  and  C_11
REMARK    4  A    between atoms: N_7  and  C_10
REMARK    5  A    between atoms: N_7  and  C_15
REMARK    6  A    between atoms: N_8  and  C_14
REMARK    7  A    between atoms: N_9  and  C_24
REMARK    8  A    between atoms: C_12  and  C_14
REMARK    9  A    between atoms: C_15  and  C_16
REMARK   10  A    between atoms: C_28  and  C_29
REMARK                            x       y       z     vdW  Elec       q    Type
REMARK                         _______ _______ _______ _____ _____    ______ ____
ROOT
ATOM      2  O   UNL     1      -4.047 -13.147  15.193  0.00  0.00    -0.371 OA
ATOM     10  C   UNL     1      -2.689 -11.310  14.545  0.00  0.00    +0.111 C 
ATOM     11  C   UNL     1      -3.836 -10.801  15.397  0.00  0.00    +0.164 C 
ATOM     12  C   UNL     1      -4.247 -12.072  16.126  0.00  0.00    +0.164 C 
ATOM     13  C   UNL     1      -3.210 -12.674  14.123  0.00  0.00    +0.181 C 
ENDROOT
BRANCH  11   3
ATOM      3  O   UNL     1      -3.439  -9.783  16.296  0.00  0.00    -0.388 OA
ATOM     31  H   UNL     1      -3.977  -8.993  16.122  0.00  0.00    +0.210 HD
ENDBRANCH  11   3
BRANCH  10   7
ATOM      7  N   UNL     1      -2.375 -10.450  13.415  0.00  0.00    -0.305 NA
ATOM     30  H   UNL     1      -1.367 -10.296  13.383  0.00  0.00    +0.123 HD
BRANCH   7  15
ATOM     15  C   UNL     1      -2.800 -11.058  12.159  0.00  0.00    +0.116 C 
BRANCH  15  16
ATOM     16  C   UNL     1      -3.687 -10.137  11.364  0.00  0.00    -0.033 A 
ATOM     18  C   UNL     1      -4.908  -9.719  11.891  0.00  0.00    +0.007 A 
ATOM     19  C   UNL     1      -3.289  -9.705  10.099  0.00  0.00    +0.007 A 
ATOM     20  C   UNL     1      -5.731  -8.867  11.154  0.00  0.00    +0.023 A 
ATOM     21  C   UNL     1      -4.111  -8.854   9.362  0.00  0.00    +0.023 A 
ATOM     24  C   UNL     1      -5.332  -8.434   9.890  0.00  0.00    +0.033 A 
BRANCH  24   9
ATOM      6  O   UNL     1      -7.989  -8.946   8.567  0.00  0.00    -0.276 OA
ATOM      9  N   UNL     1      -6.156  -7.583   9.152  0.00  0.00    -0.286 N 
ATOM     28  C   UNL     1      -7.390  -7.876   8.555  0.00  0.00    +0.214 C 
ATOM     29  C   UNL     1      -7.965  -6.677   7.844  0.00  0.00    +0.109 C 
ATOM     33  H   UNL     1      -5.808  -6.633   9.039  0.00  0.00    +0.155 HD
ENDBRANCH  24   9
ENDBRANCH  15  16
ENDBRANCH   7  15
ENDBRANCH  10   7
BRANCH  12  14
ATOM     14  C   UNL     1      -5.693 -12.059  16.591  0.00  0.00    +0.140 C 
BRANCH  14   8
ATOM      8  N   UNL     1      -5.862 -11.053  17.657  0.00  0.00    -0.187 NA
ATOM     32  H   UNL     1      -5.038 -10.471  17.856  0.00  0.00    +0.148 HD
BRANCH   8   1
ATOM      1  S   UNL     1      -6.989 -11.314  18.905  0.00  0.00    +0.058 S 
ATOM      4  O   UNL     1      -6.468 -10.769  20.144  0.00  0.00    -0.153 OA
ATOM      5  O   UNL     1      -7.444 -12.691  18.849  0.00  0.00    -0.153 OA
BRANCH   1  17
ATOM     17  C   UNL     1      -8.342 -10.302  18.389  0.00  0.00    +0.105 A 
ATOM     22  C   UNL     1      -8.132  -9.271  17.472  0.00  0.00    +0.028 A 
ATOM     23  C   UNL     1      -9.619 -10.532  18.898  0.00  0.00    +0.028 A 
ATOM     25  C   UNL     1      -9.201  -8.472  17.064  0.00  0.00    +0.002 A 
ATOM     26  C   UNL     1     -10.688  -9.734  18.490  0.00  0.00    +0.002 A 
ATOM     27  C   UNL     1     -10.478  -8.703  17.573  0.00  0.00    +0.000 A 
ENDBRANCH   1  17
ENDBRANCH   8   1
ENDBRANCH  14   8
ENDBRANCH  12  14
TORSDOF 9
ENDMDL
MODEL 10
REMARK VINA RESULT:      -6.5     27.474     30.102
REMARK  Name = 75536685
REMARK  10 active torsions:
REMARK  status: ('A' for Active; 'I' for Inactive)
REMARK    1  A    between atoms: S_1  and  N_8
REMARK    2  A    between atoms: S_1  and  C_17
REMARK    3  A    between atoms: O_3  and  C_11
REMARK    4  A    between atoms: N_7  and  C_10
REMARK    5  A    between atoms: N_7  and  C_15
REMARK    6  A    between atoms: N_8  and  C_14
REMARK    7  A    between atoms: N_9  and  C_24
REMARK    8  A    between atoms: C_12  and  C_14
REMARK    9  A    between atoms: C_15  and  C_16
REMARK   10  A    between atoms: C_28  and  C_29
REMARK                            x       y       z     vdW  Elec       q    Type
REMARK                         _______ _______ _______ _____ _____    ______ ____
ROOT
ATOM      2  O   UNL     1      -4.756 -11.113  18.520  0.00  0.00    -0.371 OA
ATOM     10  C   UNL     1      -6.932 -10.439  17.847  0.00  0.00    +0.111 C 
ATOM     11  C   UNL     1      -5.970 -10.229  16.693  0.00  0.00    +0.164 C 
ATOM     12  C   UNL     1      -4.833 -11.162  17.085  0.00  0.00    +0.164 C 
ATOM     13  C   UNL     1      -5.973 -10.536  19.023  0.00  0.00    +0.181 C 
ENDROOT
BRANCH  11   3
ATOM      3  O   UNL     1      -6.532 -10.580  15.443  0.00  0.00    -0.388 OA
ATOM     31  H   UNL     1      -6.608 -11.548  15.403  0.00  0.00    +0.210 HD
ENDBRANCH  11   3
BRANCH  10   7
ATOM      7  N   UNL     1      -7.905  -9.369  17.998  0.00  0.00    -0.305 NA
ATOM     30  H   UNL     1      -7.585  -8.553  17.475  0.00  0.00    +0.123 HD
BRANCH   7  15
ATOM     15  C   UNL     1      -9.211  -9.772  17.492  0.00  0.00    +0.116 C 
BRANCH  15  16
ATOM     16  C   UNL     1      -9.872  -8.671  16.705  0.00  0.00    -0.033 A 
ATOM     18  C   UNL     1     -10.044  -8.806  15.328  0.00  0.00    +0.007 A 
ATOM     19  C   UNL     1     -10.310  -7.516  17.353  0.00  0.00    +0.007 A 
ATOM     20  C   UNL     1     -10.655  -7.786  14.598  0.00  0.00    +0.023 A 
ATOM     21  C   UNL     1     -10.920  -6.496  16.623  0.00  0.00    +0.023 A 
ATOM     24  C   UNL     1     -11.093  -6.632  15.246  0.00  0.00    +0.033 A 
BRANCH  24   9
ATOM      6  O   UNL     1     -13.941  -6.324  14.318  0.00  0.00    -0.276 OA
ATOM      9  N   UNL     1     -11.703  -5.610  14.516  0.00  0.00    -0.286 N 
ATOM     28  C   UNL     1     -13.041  -5.518  14.109  0.00  0.00    +0.214 C 
ATOM     29  C   UNL     1     -13.304  -4.251  13.335  0.00  0.00    +0.109 C 
ATOM     33  H   UNL     1     -11.091  -4.841  14.253  0.00  0.00    +0.155 HD
ENDBRANCH  24   9
ENDBRANCH  15  16
ENDBRANCH   7  15
ENDBRANCH  10   7
BRANCH  12  14
ATOM     14  C   UNL     1      -3.495 -10.765  16.486  0.00  0.00    +0.140 C 
BRANCH  14   8
ATOM      8  N   UNL     1      -3.685 -10.340  15.086  0.00  0.00    -0.187 NA
ATOM     32  H   UNL     1      -4.311  -9.537  14.944  0.00  0.00    +0.148 HD
BRANCH   8   1
ATOM      1  S   UNL     1      -3.516 -11.468  13.823  0.00  0.00    +0.058 S 
ATOM      4  O   UNL     1      -4.622 -12.405  13.865  0.00  0.00    -0.153 OA
ATOM      5  O   UNL     1      -2.149 -11.953  13.802  0.00  0.00    -0.153 OA
BRANCH   1  17
ATOM     17  C   UNL     1      -3.723 -10.446  12.396  0.00  0.00    +0.105 A 
ATOM     22  C   UNL     1      -4.967  -9.881  12.116  0.00  0.00    +0.028 A 
ATOM     23  C   UNL     1      -2.641 -10.203  11.549  0.00  0.00    +0.028 A 
ATOM     25  C   UNL     1      -5.130  -9.073  10.990  0.00  0.00    +0.002 A 
ATOM     26  C   UNL     1      -2.804  -9.395  10.424  0.00  0.00    +0.002 A 
ATOM     27  C   UNL     1      -4.049  -8.831  10.144  0.00  0.00    +0.000 A 
ENDBRANCH   1  17
ENDBRANCH   8   1
ENDBRANCH  14   8
ENDBRANCH  12  14
TORSDOF 9
ENDMDL
