REMARK  Name = 51136818
REMARK  7 active torsions:
REMARK  status: ('A' for Active; 'I' for Inactive)
REMARK    1  A    between atoms: N_3  and  C_13
REMARK    2  A    between atoms: C_9  and  C_15
REMARK    3  A    between atoms: C_13  and  C_14
REMARK    4  A    between atoms: C_14  and  C_16
REMARK    5  A    between atoms: C_14  and  C_17
REMARK    6  A    between atoms: C_22  and  C_24
REMARK    7  A    between atoms: C_26  and  C_29
REMARK                            x       y       z     vdW  Elec       q    Type
REMARK                         _______ _______ _______ _____ _____    ______ ____
ROOT
ATOM      2  O   UNL     1       8.297  -0.682   0.299  0.00  0.00    -0.276 OA
ATOM      4  N   UNL     1       3.498   0.170   0.352  0.00  0.00    -0.312 N 
ATOM      6  N   UNL     1       6.086  -0.657  -0.409  0.00  0.00    -0.299 N 
ATOM      8  N   UNL     1       2.179   1.409   1.878  0.00  0.00    -0.240 NA
ATOM     18  C   UNL     1       4.513  -0.075   1.389  0.00  0.00    +0.125 C 
ATOM     19  C   UNL     1       4.009   0.536  -0.976  0.00  0.00    +0.125 C 
ATOM     20  C   UNL     1       5.554  -1.073   0.886  0.00  0.00    +0.126 C 
ATOM     21  C   UNL     1       5.063  -0.470  -1.439  0.00  0.00    +0.126 C 
ATOM     23  C   UNL     1       2.248   0.643   0.766  0.00  0.00    +0.122 A 
ATOM     24  C   UNL     1      -0.100   0.751   0.398  0.00  0.00    +0.027 A 
ATOM     25  C   UNL     1       1.149   0.290  -0.002  0.00  0.00    +0.055 A 
ATOM     26  C   UNL     1       7.458  -0.495  -0.586  0.00  0.00    +0.213 C 
ATOM     27  C   UNL     1      -0.211   1.541   1.538  0.00  0.00    +0.031 A 
ATOM     28  C   UNL     1       0.948   1.838   2.236  0.00  0.00    +0.113 A 
ATOM     29  C   UNL     1       7.914  -0.062  -1.956  0.00  0.00    +0.109 C 
ENDROOT
BRANCH  24  22
ATOM      1  O   UNL     1      -2.562  -0.398  -1.858  0.00  0.00    -0.336 OA
ATOM      5  N   UNL     1      -2.511   0.852   0.000  0.00  0.00    -0.190 NA
ATOM      7  N   UNL     1      -1.218  -0.339  -1.465  0.00  0.00    -0.056 NA
ATOM     15  C   UNL     1      -3.254   0.329  -0.942  0.00  0.00    +0.245 A 
ATOM     22  C   UNL     1      -1.270   0.415  -0.363  0.00  0.00    +0.202 A 
BRANCH  15   9
ATOM      3  N   UNL     1      -5.514  -0.071   0.019  0.00  0.00    -0.291 NA
ATOM      9  C   UNL     1      -4.752   0.421  -1.146  0.00  0.00    +0.146 C 
ATOM     10  C   UNL     1      -5.236   1.868  -1.348  0.00  0.00    +0.030 C 
ATOM     11  C   UNL     1      -6.774   0.673   0.032  0.00  0.00    +0.085 C 
ATOM     12  C   UNL     1      -6.312   2.079  -0.292  0.00  0.00    +0.017 C 
BRANCH   3  13
ATOM     13  C   UNL     1      -5.728  -1.512  -0.001  0.00  0.00    +0.088 C 
BRANCH  13  14
ATOM     14  C   UNL     1      -4.518  -2.293   0.538  0.00  0.00    -0.003 C 
ATOM     16  C   UNL     1      -4.240  -1.881   1.986  0.00  0.00    +0.008 C 
ATOM     17  C   UNL     1      -4.717  -3.809   0.464  0.00  0.00    +0.008 C 
ENDBRANCH  13  14
ENDBRANCH   3  13
ENDBRANCH  15   9
ENDBRANCH  24  22
TORSDOF 4
