MODEL 1
REMARK VINA RESULT:      -7.5      0.000      0.000
REMARK  Name = 11884550
REMARK  5 active torsions:
REMARK  status: ('A' for Active; 'I' for Inactive)
REMARK    1  A    between atoms: O_3  and  C_21
REMARK    2  A    between atoms: O_3  and  C_23
REMARK    3  A    between atoms: N_7  and  C_19
REMARK    4  A    between atoms: N_8  and  C_26
REMARK    5  A    between atoms: C_18  and  C_21
REMARK                            x       y       z     vdW  Elec       q    Type
REMARK                         _______ _______ _______ _____ _____    ______ ____
ROOT
ATOM      1  O   UNL     1      15.312   5.827  20.711  0.00  0.00    -0.266 OA
ATOM      2  O   UNL     1      11.283   7.696  17.719  0.00  0.00    -0.272 OA
ATOM      5  N   UNL     1      11.732   9.132  19.489  0.00  0.00    -0.298 N 
ATOM      6  N   UNL     1      14.251   7.887  21.014  0.00  0.00    -0.310 N 
ATOM      9  C   UNL     1      11.810   8.091  21.759  0.00  0.00    +0.027 C 
ATOM     10  C   UNL     1      13.121  10.121  21.301  0.00  0.00    +0.054 C 
ATOM     11  C   UNL     1      12.247   9.429  22.345  0.00  0.00    +0.018 C 
ATOM     12  C   UNL     1      11.012   8.307  20.461  0.00  0.00    +0.113 C 
ATOM     13  C   UNL     1      13.050   7.219  21.535  0.00  0.00    +0.130 C 
ATOM     14  C   UNL     1      12.297  10.380  20.026  0.00  0.00    +0.117 C 
ATOM     15  C   UNL     1      14.340   9.282  20.966  0.00  0.00    +0.027 A 
ATOM     16  C   UNL     1      15.488   9.873  20.595  0.00  0.00    +0.024 A 
ATOM     17  C   UNL     1      15.337   7.058  20.668  0.00  0.00    +0.273 A 
ATOM     18  C   UNL     1      11.763   8.749  18.149  0.00  0.00    +0.253 C 
ATOM     19  C   UNL     1      16.590   7.755  20.237  0.00  0.00    +0.100 A 
ATOM     20  C   UNL     1      16.634   9.091  20.223  0.00  0.00    +0.030 A 
ENDROOT
BRANCH  19   7
ATOM      4  O   UNL     1      18.736   6.980  21.935  0.00  0.00    -0.252 OA
ATOM      7  N   UNL     1      17.660   6.988  19.881  0.00  0.00    -0.265 N 
ATOM      8  N   UNL     1      19.639   5.846  20.089  0.00  0.00    -0.269 N 
ATOM     22  C   UNL     1      18.695   6.633  20.756  0.00  0.00    +0.308 C 
ATOM     35  H   UNL     1      17.836   6.879  18.886  0.00  0.00    +0.157 HD
ATOM     36  H   UNL     1      19.453   5.645  19.109  0.00  0.00    +0.156 HD
BRANCH   8  26
ATOM     26  C   UNL     1      20.828   5.284  20.612  0.00  0.00    +0.035 A 
ATOM     30  C   UNL     1      21.904   6.113  20.886  0.00  0.00    +0.023 A 
ATOM     31  C   UNL     1      20.890   3.920  20.840  0.00  0.00    +0.023 A 
ATOM     32  C   UNL     1      23.076   5.560  21.403  0.00  0.00    +0.002 A 
ATOM     33  C   UNL     1      22.063   3.367  21.358  0.00  0.00    +0.002 A 
ATOM     34  C   UNL     1      23.155   4.187  21.638  0.00  0.00    +0.000 A 
ENDBRANCH   8  26
ENDBRANCH  19   7
BRANCH  18  21
ATOM     21  C   UNL     1      12.442   9.695  17.191  0.00  0.00    +0.324 C 
BRANCH  21   3
ATOM      3  O   UNL     1      13.827   9.497  17.343  0.00  0.00    -0.483 OA
BRANCH   3  23
ATOM     23  C   UNL     1      14.666  10.372  16.691  0.00  0.00    +0.121 A 
ATOM     24  C   UNL     1      14.926  10.189  15.342  0.00  0.00    +0.045 A 
ATOM     25  C   UNL     1      15.237  11.422  17.395  0.00  0.00    +0.045 A 
ATOM     27  C   UNL     1      15.777  11.075  14.680  0.00  0.00    +0.004 A 
ATOM     28  C   UNL     1      16.088  12.308  16.734  0.00  0.00    +0.004 A 
ATOM     29  C   UNL     1      16.358  12.134  15.377  0.00  0.00    +0.000 A 
ENDBRANCH   3  23
ENDBRANCH  21   3
ENDBRANCH  18  21
TORSDOF 5
ENDMDL
MODEL 2
REMARK VINA RESULT:      -7.2     28.095     30.526
REMARK  Name = 11884550
REMARK  5 active torsions:
REMARK  status: ('A' for Active; 'I' for Inactive)
REMARK    1  A    between atoms: O_3  and  C_21
REMARK    2  A    between atoms: O_3  and  C_23
REMARK    3  A    between atoms: N_7  and  C_19
REMARK    4  A    between atoms: N_8  and  C_26
REMARK    5  A    between atoms: C_18  and  C_21
REMARK                            x       y       z     vdW  Elec       q    Type
REMARK                         _______ _______ _______ _____ _____    ______ ____
ROOT
ATOM      1  O   UNL     1      -8.650 -10.129  11.534  0.00  0.00    -0.266 OA
ATOM      2  O   UNL     1      -6.374 -13.844   8.420  0.00  0.00    -0.272 OA
ATOM      5  N   UNL     1      -6.250 -11.747   7.428  0.00  0.00    -0.298 N 
ATOM      6  N   UNL     1      -7.521  -9.703   9.532  0.00  0.00    -0.310 N 
ATOM      9  C   UNL     1      -8.397 -10.481   7.256  0.00  0.00    +0.027 C 
ATOM     10  C   UNL     1      -6.268  -9.258   7.392  0.00  0.00    +0.054 C 
ATOM     11  C   UNL     1      -7.633  -9.281   6.708  0.00  0.00    +0.018 C 
ATOM     12  C   UNL     1      -7.636 -11.785   6.959  0.00  0.00    +0.113 C 
ATOM     13  C   UNL     1      -8.629 -10.279   8.758  0.00  0.00    +0.130 C 
ATOM     14  C   UNL     1      -5.494 -10.544   7.044  0.00  0.00    +0.117 C 
ATOM     15  C   UNL     1      -6.412  -9.136   8.898  0.00  0.00    +0.027 A 
ATOM     16  C   UNL     1      -5.467  -8.512   9.620  0.00  0.00    +0.024 A 
ATOM     17  C   UNL     1      -7.684  -9.659  10.932  0.00  0.00    +0.273 A 
ATOM     18  C   UNL     1      -5.721 -12.844   8.107  0.00  0.00    +0.253 C 
ATOM     19  C   UNL     1      -6.596  -8.978  11.702  0.00  0.00    +0.100 A 
ATOM     20  C   UNL     1      -5.562  -8.434  11.051  0.00  0.00    +0.030 A 
ENDROOT
BRANCH  19   7
ATOM      4  O   UNL     1      -5.542 -10.869  13.546  0.00  0.00    -0.252 OA
ATOM      7  N   UNL     1      -6.709  -8.925  13.060  0.00  0.00    -0.265 N 
ATOM      8  N   UNL     1      -6.458  -9.547  15.255  0.00  0.00    -0.269 N 
ATOM     22  C   UNL     1      -6.171  -9.885  13.929  0.00  0.00    +0.308 C 
ATOM     35  H   UNL     1      -7.417  -8.303  13.440  0.00  0.00    +0.157 HD
ATOM     36  H   UNL     1      -6.987  -8.691  15.402  0.00  0.00    +0.156 HD
BRANCH   8  26
ATOM     26  C   UNL     1      -6.095 -10.249  16.428  0.00  0.00    +0.035 A 
ATOM     30  C   UNL     1      -7.084 -10.845  17.194  0.00  0.00    +0.023 A 
ATOM     31  C   UNL     1      -4.759 -10.328  16.786  0.00  0.00    +0.023 A 
ATOM     32  C   UNL     1      -6.727 -11.539  18.351  0.00  0.00    +0.002 A 
ATOM     33  C   UNL     1      -4.403 -11.023  17.943  0.00  0.00    +0.002 A 
ATOM     34  C   UNL     1      -5.386 -11.627  18.725  0.00  0.00    +0.000 A 
ENDBRANCH   8  26
ENDBRANCH  19   7
BRANCH  18  21
ATOM     21  C   UNL     1      -4.262 -12.771   8.477  0.00  0.00    +0.324 C 
BRANCH  21   3
ATOM      3  O   UNL     1      -4.147 -13.305   9.773  0.00  0.00    -0.483 OA
BRANCH   3  23
ATOM     23  C   UNL     1      -3.477 -12.552  10.711  0.00  0.00    +0.121 A 
ATOM     24  C   UNL     1      -3.332 -11.188  10.512  0.00  0.00    +0.045 A 
ATOM     25  C   UNL     1      -2.958 -13.171  11.838  0.00  0.00    +0.045 A 
ATOM     27  C   UNL     1      -2.653 -10.425  11.462  0.00  0.00    +0.004 A 
ATOM     28  C   UNL     1      -2.278 -12.408  12.788  0.00  0.00    +0.004 A 
ATOM     29  C   UNL     1      -2.126 -11.035  12.599  0.00  0.00    +0.000 A 
ENDBRANCH   3  23
ENDBRANCH  21   3
ENDBRANCH  18  21
TORSDOF 5
ENDMDL
MODEL 3
REMARK VINA RESULT:      -7.1     27.555     30.396
REMARK  Name = 11884550
REMARK  5 active torsions:
REMARK  status: ('A' for Active; 'I' for Inactive)
REMARK    1  A    between atoms: O_3  and  C_21
REMARK    2  A    between atoms: O_3  and  C_23
REMARK    3  A    between atoms: N_7  and  C_19
REMARK    4  A    between atoms: N_8  and  C_26
REMARK    5  A    between atoms: C_18  and  C_21
REMARK                            x       y       z     vdW  Elec       q    Type
REMARK                         _______ _______ _______ _____ _____    ______ ____
ROOT
ATOM      1  O   UNL     1      -4.766 -12.445   9.847  0.00  0.00    -0.266 OA
ATOM      2  O   UNL     1      -5.799 -12.518  15.101  0.00  0.00    -0.272 OA
ATOM      5  N   UNL     1      -3.510 -12.423  14.711  0.00  0.00    -0.298 N 
ATOM      6  N   UNL     1      -3.167 -12.232  11.538  0.00  0.00    -0.310 N 
ATOM      9  C   UNL     1      -2.589 -14.138  13.145  0.00  0.00    +0.027 C 
ATOM     10  C   UNL     1      -1.462 -11.964  13.374  0.00  0.00    +0.054 C 
ATOM     11  C   UNL     1      -1.223 -13.465  13.230  0.00  0.00    +0.018 C 
ATOM     12  C   UNL     1      -3.409 -13.854  14.415  0.00  0.00    +0.113 C 
ATOM     13  C   UNL     1      -3.302 -13.654  11.878  0.00  0.00    +0.130 C 
ATOM     14  C   UNL     1      -2.237 -11.686  14.676  0.00  0.00    +0.117 C 
ATOM     15  C   UNL     1      -2.235 -11.417  12.188  0.00  0.00    +0.027 A 
ATOM     16  C   UNL     1      -2.047 -10.150  11.783  0.00  0.00    +0.024 A 
ATOM     17  C   UNL     1      -3.946 -11.761  10.461  0.00  0.00    +0.273 A 
ATOM     18  C   UNL     1      -4.742 -11.882  15.079  0.00  0.00    +0.253 C 
ATOM     19  C   UNL     1      -3.724 -10.337  10.057  0.00  0.00    +0.100 A 
ATOM     20  C   UNL     1      -2.809  -9.601  10.697  0.00  0.00    +0.030 A 
ENDROOT
BRANCH  19   7
ATOM      4  O   UNL     1      -6.284  -9.119  10.273  0.00  0.00    -0.252 OA
ATOM      7  N   UNL     1      -4.467  -9.840   9.027  0.00  0.00    -0.265 N 
ATOM      8  N   UNL     1      -6.226  -8.841   7.943  0.00  0.00    -0.269 N 
ATOM     22  C   UNL     1      -5.727  -9.248   9.185  0.00  0.00    +0.308 C 
ATOM     35  H   UNL     1      -4.206 -10.131   8.089  0.00  0.00    +0.157 HD
ATOM     36  H   UNL     1      -5.634  -9.018   7.135  0.00  0.00    +0.156 HD
BRANCH   8  26
ATOM     26  C   UNL     1      -7.459  -8.205   7.668  0.00  0.00    +0.035 A 
ATOM     30  C   UNL     1      -8.428  -8.887   6.950  0.00  0.00    +0.023 A 
ATOM     31  C   UNL     1      -7.673  -6.915   8.124  0.00  0.00    +0.023 A 
ATOM     32  C   UNL     1      -9.645  -8.260   6.679  0.00  0.00    +0.002 A 
ATOM     33  C   UNL     1      -8.890  -6.288   7.854  0.00  0.00    +0.002 A 
ATOM     34  C   UNL     1      -9.875  -6.961   7.132  0.00  0.00    +0.000 A 
ENDBRANCH   8  26
ENDBRANCH  19   7
BRANCH  18  21
ATOM     21  C   UNL     1      -4.751 -10.423  15.459  0.00  0.00    +0.324 C 
BRANCH  21   3
ATOM      3  O   UNL     1      -4.460 -10.364  16.834  0.00  0.00    -0.483 OA
BRANCH   3  23
ATOM     23  C   UNL     1      -5.500 -10.577  17.711  0.00  0.00    +0.121 A 
ATOM     24  C   UNL     1      -6.746 -10.036  17.434  0.00  0.00    +0.045 A 
ATOM     25  C   UNL     1      -5.284 -11.328  18.856  0.00  0.00    +0.045 A 
ATOM     27  C   UNL     1      -7.800 -10.252  18.321  0.00  0.00    +0.004 A 
ATOM     28  C   UNL     1      -6.338 -11.544  19.744  0.00  0.00    +0.004 A 
ATOM     29  C   UNL     1      -7.596 -11.005  19.477  0.00  0.00    +0.000 A 
ENDBRANCH   3  23
ENDBRANCH  21   3
ENDBRANCH  18  21
TORSDOF 5
ENDMDL
MODEL 4
REMARK VINA RESULT:      -7.0     28.646     31.792
REMARK  Name = 11884550
REMARK  5 active torsions:
REMARK  status: ('A' for Active; 'I' for Inactive)
REMARK    1  A    between atoms: O_3  and  C_21
REMARK    2  A    between atoms: O_3  and  C_23
REMARK    3  A    between atoms: N_7  and  C_19
REMARK    4  A    between atoms: N_8  and  C_26
REMARK    5  A    between atoms: C_18  and  C_21
REMARK                            x       y       z     vdW  Elec       q    Type
REMARK                         _______ _______ _______ _____ _____    ______ ____
ROOT
ATOM      1  O   UNL     1     -11.946  -9.873  17.280  0.00  0.00    -0.266 OA
ATOM      2  O   UNL     1     -12.983  -9.895  12.027  0.00  0.00    -0.272 OA
ATOM      5  N   UNL     1     -13.918  -8.027  13.045  0.00  0.00    -0.298 N 
ATOM      6  N   UNL     1     -13.032  -8.164  16.113  0.00  0.00    -0.310 N 
ATOM      9  C   UNL     1     -15.341  -8.464  15.051  0.00  0.00    +0.027 C 
ATOM     10  C   UNL     1     -14.167  -6.315  14.833  0.00  0.00    +0.054 C 
ATOM     11  C   UNL     1     -15.481  -6.961  15.265  0.00  0.00    +0.018 C 
ATOM     12  C   UNL     1     -15.063  -8.773  13.570  0.00  0.00    +0.113 C 
ATOM     13  C   UNL     1     -14.234  -8.996  15.968  0.00  0.00    +0.130 C 
ATOM     14  C   UNL     1     -13.926  -6.585  13.336  0.00  0.00    +0.117 C 
ATOM     15  C   UNL     1     -13.002  -6.847  15.647  0.00  0.00    +0.027 A 
ATOM     16  C   UNL     1     -11.936  -6.067  15.893  0.00  0.00    +0.024 A 
ATOM     17  C   UNL     1     -11.958  -8.725  16.835  0.00  0.00    +0.273 A 
ATOM     18  C   UNL     1     -12.971  -8.682  12.258  0.00  0.00    +0.253 C 
ATOM     19  C   UNL     1     -10.779  -7.832  17.066  0.00  0.00    +0.100 A 
ATOM     20  C   UNL     1     -10.803  -6.573  16.615  0.00  0.00    +0.030 A 
ENDROOT
BRANCH  19   7
ATOM      4  O   UNL     1      -8.562  -9.204  15.931  0.00  0.00    -0.252 OA
ATOM      7  N   UNL     1      -9.714  -8.340  17.748  0.00  0.00    -0.265 N 
ATOM      8  N   UNL     1      -7.715  -9.408  18.110  0.00  0.00    -0.269 N 
ATOM     22  C   UNL     1      -8.643  -9.011  17.142  0.00  0.00    +0.308 C 
ATOM     35  H   UNL     1      -9.822  -8.453  18.753  0.00  0.00    +0.157 HD
ATOM     36  H   UNL     1      -7.930  -9.165  19.073  0.00  0.00    +0.156 HD
BRANCH   8  26
ATOM     26  C   UNL     1      -6.501 -10.107  17.914  0.00  0.00    +0.035 A 
ATOM     30  C   UNL     1      -6.178 -11.154  18.763  0.00  0.00    +0.023 A 
ATOM     31  C   UNL     1      -5.662  -9.732  16.878  0.00  0.00    +0.023 A 
ATOM     32  C   UNL     1      -4.981 -11.844  18.569  0.00  0.00    +0.002 A 
ATOM     33  C   UNL     1      -4.465 -10.424  16.685  0.00  0.00    +0.002 A 
ATOM     34  C   UNL     1      -4.125 -11.479  17.530  0.00  0.00    +0.000 A 
ENDBRANCH   8  26
ENDBRANCH  19   7
BRANCH  18  21
ATOM     21  C   UNL     1     -11.872  -7.831  11.676  0.00  0.00    +0.324 C 
BRANCH  21   3
ATOM      3  O   UNL     1     -12.377  -7.282  10.483  0.00  0.00    -0.483 OA
BRANCH   3  23
ATOM     23  C   UNL     1     -11.822  -6.100  10.046  0.00  0.00    +0.121 A 
ATOM     24  C   UNL     1     -10.742  -6.135   9.177  0.00  0.00    +0.045 A 
ATOM     25  C   UNL     1     -12.353  -4.895  10.481  0.00  0.00    +0.045 A 
ATOM     27  C   UNL     1     -10.180  -4.938   8.733  0.00  0.00    +0.004 A 
ATOM     28  C   UNL     1     -11.790  -3.698  10.039  0.00  0.00    +0.004 A 
ATOM     29  C   UNL     1     -10.704  -3.720   9.165  0.00  0.00    +0.000 A 
ENDBRANCH   3  23
ENDBRANCH  21   3
ENDBRANCH  18  21
TORSDOF 5
ENDMDL
MODEL 5
REMARK VINA RESULT:      -7.0     13.528     16.378
REMARK  Name = 11884550
REMARK  5 active torsions:
REMARK  status: ('A' for Active; 'I' for Inactive)
REMARK    1  A    between atoms: O_3  and  C_21
REMARK    2  A    between atoms: O_3  and  C_23
REMARK    3  A    between atoms: N_7  and  C_19
REMARK    4  A    between atoms: N_8  and  C_26
REMARK    5  A    between atoms: C_18  and  C_21
REMARK                            x       y       z     vdW  Elec       q    Type
REMARK                         _______ _______ _______ _____ _____    ______ ____
ROOT
ATOM      1  O   UNL     1      13.521   6.772   7.326  0.00  0.00    -0.266 OA
ATOM      2  O   UNL     1      11.297   3.980   3.335  0.00  0.00    -0.272 OA
ATOM      5  N   UNL     1       9.877   5.675   4.047  0.00  0.00    -0.298 N 
ATOM      6  N   UNL     1      11.483   7.276   6.301  0.00  0.00    -0.310 N 
ATOM      9  C   UNL     1       9.422   5.771   6.502  0.00  0.00    +0.027 C 
ATOM     10  C   UNL     1       9.306   7.827   5.158  0.00  0.00    +0.054 C 
ATOM     11  C   UNL     1       8.634   7.059   6.294  0.00  0.00    +0.018 C 
ATOM     12  C   UNL     1       9.418   4.924   5.217  0.00  0.00    +0.113 C 
ATOM     13  C   UNL     1      10.843   6.126   6.954  0.00  0.00    +0.130 C 
ATOM     14  C   UNL     1       9.248   6.992   3.864  0.00  0.00    +0.117 C 
ATOM     15  C   UNL     1      10.748   8.153   5.497  0.00  0.00    +0.027 A 
ATOM     16  C   UNL     1      11.325   9.262   5.004  0.00  0.00    +0.024 A 
ATOM     17  C   UNL     1      12.839   7.506   6.610  0.00  0.00    +0.273 A 
ATOM     18  C   UNL     1      10.780   5.087   3.162  0.00  0.00    +0.253 C 
ATOM     19  C   UNL     1      13.451   8.739   6.021  0.00  0.00    +0.100 A 
ATOM     20  C   UNL     1      12.705   9.557   5.272  0.00  0.00    +0.030 A 
ENDROOT
BRANCH  19   7
ATOM      4  O   UNL     1      15.681   7.499   4.765  0.00  0.00    -0.252 OA
ATOM      7  N   UNL     1      14.765   8.990   6.285  0.00  0.00    -0.265 N 
ATOM      8  N   UNL     1      17.049   8.828   6.132  0.00  0.00    -0.269 N 
ATOM     22  C   UNL     1      15.831   8.351   5.637  0.00  0.00    +0.308 C 
ATOM     35  H   UNL     1      14.975   9.477   7.153  0.00  0.00    +0.157 HD
ATOM     36  H   UNL     1      16.999   9.541   6.855  0.00  0.00    +0.156 HD
BRANCH   8  26
ATOM     26  C   UNL     1      18.354   8.443   5.745  0.00  0.00    +0.035 A 
ATOM     30  C   UNL     1      18.599   8.116   4.421  0.00  0.00    +0.023 A 
ATOM     31  C   UNL     1      19.360   8.402   6.697  0.00  0.00    +0.023 A 
ATOM     32  C   UNL     1      19.887   7.737   4.039  0.00  0.00    +0.002 A 
ATOM     33  C   UNL     1      20.647   8.024   6.313  0.00  0.00    +0.002 A 
ATOM     34  C   UNL     1      20.910   7.691   4.985  0.00  0.00    +0.000 A 
ENDBRANCH   8  26
ENDBRANCH  19   7
BRANCH  18  21
ATOM     21  C   UNL     1      11.135   5.882   1.932  0.00  0.00    +0.324 C 
BRANCH  21   3
ATOM      3  O   UNL     1      12.186   5.195   1.297  0.00  0.00    -0.483 OA
BRANCH   3  23
ATOM     23  C   UNL     1      11.904   4.570   0.103  0.00  0.00    +0.121 A 
ATOM     24  C   UNL     1      12.695   3.511  -0.315  0.00  0.00    +0.045 A 
ATOM     25  C   UNL     1      10.834   5.011  -0.661  0.00  0.00    +0.045 A 
ATOM     27  C   UNL     1      12.409   2.877  -1.525  0.00  0.00    +0.004 A 
ATOM     28  C   UNL     1      10.548   4.378  -1.871  0.00  0.00    +0.004 A 
ATOM     29  C   UNL     1      11.336   3.311  -2.302  0.00  0.00    +0.000 A 
ENDBRANCH   3  23
ENDBRANCH  21   3
ENDBRANCH  18  21
TORSDOF 5
ENDMDL
MODEL 6
REMARK VINA RESULT:      -6.9     28.888     31.836
REMARK  Name = 11884550
REMARK  5 active torsions:
REMARK  status: ('A' for Active; 'I' for Inactive)
REMARK    1  A    between atoms: O_3  and  C_21
REMARK    2  A    between atoms: O_3  and  C_23
REMARK    3  A    between atoms: N_7  and  C_19
REMARK    4  A    between atoms: N_8  and  C_26
REMARK    5  A    between atoms: C_18  and  C_21
REMARK                            x       y       z     vdW  Elec       q    Type
REMARK                         _______ _______ _______ _____ _____    ______ ____
ROOT
ATOM      1  O   UNL     1     -10.519  -9.908  14.469  0.00  0.00    -0.266 OA
ATOM      2  O   UNL     1     -12.734  -6.834  10.685  0.00  0.00    -0.272 OA
ATOM      5  N   UNL     1     -13.846  -6.582  12.709  0.00  0.00    -0.298 N 
ATOM      6  N   UNL     1     -12.252  -8.380  14.818  0.00  0.00    -0.310 N 
ATOM      9  C   UNL     1     -14.591  -8.689  13.826  0.00  0.00    +0.027 C 
ATOM     10  C   UNL     1     -14.094  -6.699  15.183  0.00  0.00    +0.054 C 
ATOM     11  C   UNL     1     -15.056  -7.874  15.027  0.00  0.00    +0.018 C 
ATOM     12  C   UNL     1     -14.603  -7.825  12.552  0.00  0.00    +0.113 C 
ATOM     13  C   UNL     1     -13.200  -9.260  14.121  0.00  0.00    +0.130 C 
ATOM     14  C   UNL     1     -14.154  -5.812  13.925  0.00  0.00    +0.117 C 
ATOM     15  C   UNL     1     -12.673  -7.183  15.405  0.00  0.00    +0.027 A 
ATOM     16  C   UNL     1     -11.815  -6.451  16.135  0.00  0.00    +0.024 A 
ATOM     17  C   UNL     1     -10.930  -8.853  14.953  0.00  0.00    +0.273 A 
ATOM     18  C   UNL     1     -12.978  -6.172  11.698  0.00  0.00    +0.253 C 
ATOM     19  C   UNL     1     -10.000  -7.996  15.753  0.00  0.00    +0.100 A 
ATOM     20  C   UNL     1     -10.452  -6.867  16.310  0.00  0.00    +0.030 A 
ENDROOT
BRANCH  19   7
ATOM      4  O   UNL     1      -9.003  -9.693  17.806  0.00  0.00    -0.252 OA
ATOM      7  N   UNL     1      -8.709  -8.412  15.896  0.00  0.00    -0.265 N 
ATOM      8  N   UNL     1      -6.894  -9.489  16.796  0.00  0.00    -0.269 N 
ATOM     22  C   UNL     1      -8.266  -9.250  16.928  0.00  0.00    +0.308 C 
ATOM     35  H   UNL     1      -8.001  -7.896  15.380  0.00  0.00    +0.157 HD
ATOM     36  H   UNL     1      -6.429  -9.048  16.006  0.00  0.00    +0.156 HD
BRANCH   8  26
ATOM     26  C   UNL     1      -6.066 -10.280  17.627  0.00  0.00    +0.035 A 
ATOM     30  C   UNL     1      -4.861 -10.750  17.132  0.00  0.00    +0.023 A 
ATOM     31  C   UNL     1      -6.477 -10.565  18.919  0.00  0.00    +0.023 A 
ATOM     32  C   UNL     1      -4.044 -11.529  17.953  0.00  0.00    +0.002 A 
ATOM     33  C   UNL     1      -5.659 -11.343  19.739  0.00  0.00    +0.002 A 
ATOM     34  C   UNL     1      -4.443 -11.825  19.255  0.00  0.00    +0.000 A 
ENDBRANCH   8  26
ENDBRANCH  19   7
BRANCH  18  21
ATOM     21  C   UNL     1     -12.305  -4.836  11.886  0.00  0.00    +0.324 C 
BRANCH  21   3
ATOM      3  O   UNL     1     -12.351  -4.183  10.641  0.00  0.00    -0.483 OA
BRANCH   3  23
ATOM     23  C   UNL     1     -13.505  -3.499  10.328  0.00  0.00    +0.121 A 
ATOM     24  C   UNL     1     -14.356  -3.098  11.346  0.00  0.00    +0.045 A 
ATOM     25  C   UNL     1     -13.794  -3.222   9.001  0.00  0.00    +0.045 A 
ATOM     27  C   UNL     1     -15.525  -2.405  11.030  0.00  0.00    +0.004 A 
ATOM     28  C   UNL     1     -14.963  -2.529   8.684  0.00  0.00    +0.004 A 
ATOM     29  C   UNL     1     -15.828  -2.121   9.699  0.00  0.00    +0.000 A 
ENDBRANCH   3  23
ENDBRANCH  21   3
ENDBRANCH  18  21
TORSDOF 5
ENDMDL
MODEL 7
REMARK VINA RESULT:      -6.7     13.681     15.998
REMARK  Name = 11884550
REMARK  5 active torsions:
REMARK  status: ('A' for Active; 'I' for Inactive)
REMARK    1  A    between atoms: O_3  and  C_21
REMARK    2  A    between atoms: O_3  and  C_23
REMARK    3  A    between atoms: N_7  and  C_19
REMARK    4  A    between atoms: N_8  and  C_26
REMARK    5  A    between atoms: C_18  and  C_21
REMARK                            x       y       z     vdW  Elec       q    Type
REMARK                         _______ _______ _______ _____ _____    ______ ____
ROOT
ATOM      1  O   UNL     1      12.709   8.606   7.283  0.00  0.00    -0.266 OA
ATOM      2  O   UNL     1      10.306   4.403   4.994  0.00  0.00    -0.272 OA
ATOM      5  N   UNL     1       9.178   6.372   4.495  0.00  0.00    -0.298 N 
ATOM      6  N   UNL     1      10.882   8.724   5.831  0.00  0.00    -0.310 N 
ATOM      9  C   UNL     1       8.568   7.815   6.441  0.00  0.00    +0.027 C 
ATOM     10  C   UNL     1       8.936   8.835   4.234  0.00  0.00    +0.054 C 
ATOM     11  C   UNL     1       8.050   8.876   5.477  0.00  0.00    +0.018 C 
ATOM     12  C   UNL     1       8.502   6.421   5.793  0.00  0.00    +0.113 C 
ATOM     13  C   UNL     1       9.993   8.184   6.869  0.00  0.00    +0.130 C 
ATOM     14  C   UNL     1       8.820   7.453   3.563  0.00  0.00    +0.117 C 
ATOM     15  C   UNL     1      10.385   9.118   4.585  0.00  0.00    +0.027 A 
ATOM     16  C   UNL     1      11.193   9.715   3.694  0.00  0.00    +0.024 A 
ATOM     17  C   UNL     1      12.230   8.920   6.192  0.00  0.00    +0.273 A 
ATOM     18  C   UNL     1      10.019   5.300   4.196  0.00  0.00    +0.253 C 
ATOM     19  C   UNL     1      13.103   9.566   5.162  0.00  0.00    +0.100 A 
ATOM     20  C   UNL     1      12.580   9.941   3.990  0.00  0.00    +0.030 A 
ENDROOT
BRANCH  19   7
ATOM      4  O   UNL     1      15.253   7.823   4.508  0.00  0.00    -0.252 OA
ATOM      7  N   UNL     1      14.418   9.761   5.468  0.00  0.00    -0.265 N 
ATOM      8  N   UNL     1      16.674   9.355   5.578  0.00  0.00    -0.269 N 
ATOM     22  C   UNL     1      15.443   8.870   5.123  0.00  0.00    +0.308 C 
ATOM     35  H   UNL     1      14.626  10.452   6.183  0.00  0.00    +0.157 HD
ATOM     36  H   UNL     1      16.659  10.245   6.069  0.00  0.00    +0.156 HD
BRANCH   8  26
ATOM     26  C   UNL     1      17.949   8.758   5.434  0.00  0.00    +0.035 A 
ATOM     30  C   UNL     1      18.317   8.234   4.206  0.00  0.00    +0.023 A 
ATOM     31  C   UNL     1      18.803   8.712   6.524  0.00  0.00    +0.023 A 
ATOM     32  C   UNL     1      19.574   7.647   4.064  0.00  0.00    +0.002 A 
ATOM     33  C   UNL     1      20.060   8.125   6.381  0.00  0.00    +0.002 A 
ATOM     34  C   UNL     1      20.446   7.592   5.151  0.00  0.00    +0.000 A 
ENDBRANCH   8  26
ENDBRANCH  19   7
BRANCH  18  21
ATOM     21  C   UNL     1      10.605   5.269   2.808  0.00  0.00    +0.324 C 
BRANCH  21   3
ATOM      3  O   UNL     1      11.552   4.228   2.795  0.00  0.00    -0.483 OA
BRANCH   3  23
ATOM     23  C   UNL     1      12.743   4.464   2.145  0.00  0.00    +0.121 A 
ATOM     24  C   UNL     1      13.251   5.754   2.101  0.00  0.00    +0.045 A 
ATOM     25  C   UNL     1      13.415   3.408   1.548  0.00  0.00    +0.045 A 
ATOM     27  C   UNL     1      14.458   5.993   1.444  0.00  0.00    +0.004 A 
ATOM     28  C   UNL     1      14.621   3.648   0.890  0.00  0.00    +0.004 A 
ATOM     29  C   UNL     1      15.142   4.941   0.838  0.00  0.00    +0.000 A 
ENDBRANCH   3  23
ENDBRANCH  21   3
ENDBRANCH  18  21
TORSDOF 5
ENDMDL
MODEL 8
REMARK VINA RESULT:      -6.7     21.861     24.966
REMARK  Name = 11884550
REMARK  5 active torsions:
REMARK  status: ('A' for Active; 'I' for Inactive)
REMARK    1  A    between atoms: O_3  and  C_21
REMARK    2  A    between atoms: O_3  and  C_23
REMARK    3  A    between atoms: N_7  and  C_19
REMARK    4  A    between atoms: N_8  and  C_26
REMARK    5  A    between atoms: C_18  and  C_21
REMARK                            x       y       z     vdW  Elec       q    Type
REMARK                         _______ _______ _______ _____ _____    ______ ____
ROOT
ATOM      1  O   UNL     1       9.181  -9.755  33.526  0.00  0.00    -0.266 OA
ATOM      2  O   UNL     1       8.322  -7.183  38.145  0.00  0.00    -0.272 OA
ATOM      5  N   UNL     1       8.218  -5.712  36.350  0.00  0.00    -0.298 N 
ATOM      6  N   UNL     1       8.602  -7.499  33.727  0.00  0.00    -0.310 N 
ATOM      9  C   UNL     1      10.157  -5.758  34.775  0.00  0.00    +0.027 C 
ATOM     10  C   UNL     1       7.939  -5.079  33.959  0.00  0.00    +0.054 C 
ATOM     11  C   UNL     1       9.432  -4.769  33.870  0.00  0.00    +0.018 C 
ATOM     12  C   UNL     1       9.674  -5.613  36.229  0.00  0.00    +0.113 C 
ATOM     13  C   UNL     1       9.941  -7.176  34.235  0.00  0.00    +0.130 C 
ATOM     14  C   UNL     1       7.455  -4.879  35.408  0.00  0.00    +0.117 C 
ATOM     15  C   UNL     1       7.649  -6.499  33.510  0.00  0.00    +0.027 A 
ATOM     16  C   UNL     1       6.472  -6.801  32.937  0.00  0.00    +0.024 A 
ATOM     17  C   UNL     1       8.366  -8.843  33.372  0.00  0.00    +0.273 A 
ATOM     18  C   UNL     1       7.662  -6.490  37.365  0.00  0.00    +0.253 C 
ATOM     19  C   UNL     1       7.034  -9.141  32.758  0.00  0.00    +0.100 A 
ATOM     20  C   UNL     1       6.160  -8.149  32.555  0.00  0.00    +0.030 A 
ENDROOT
BRANCH  19   7
ATOM      4  O   UNL     1       7.055 -10.213  30.124  0.00  0.00    -0.252 OA
ATOM      7  N   UNL     1       6.761 -10.432  32.413  0.00  0.00    -0.265 N 
ATOM      8  N   UNL     1       6.460 -12.274  31.078  0.00  0.00    -0.269 N 
ATOM     22  C   UNL     1       6.784 -10.913  31.097  0.00  0.00    +0.308 C 
ATOM     35  H   UNL     1       6.285 -11.003  33.107  0.00  0.00    +0.157 HD
ATOM     36  H   UNL     1       6.266 -12.708  31.976  0.00  0.00    +0.156 HD
BRANCH   8  26
ATOM     26  C   UNL     1       6.374 -13.130  29.954  0.00  0.00    +0.035 A 
ATOM     30  C   UNL     1       7.465 -13.251  29.110  0.00  0.00    +0.023 A 
ATOM     31  C   UNL     1       5.201 -13.829  29.724  0.00  0.00    +0.023 A 
ATOM     32  C   UNL     1       7.380 -14.096  28.002  0.00  0.00    +0.002 A 
ATOM     33  C   UNL     1       5.117 -14.675  28.616  0.00  0.00    +0.002 A 
ATOM     34  C   UNL     1       6.206 -14.807  27.756  0.00  0.00    +0.000 A 
ENDBRANCH   8  26
ENDBRANCH  19   7
BRANCH  18  21
ATOM     21  C   UNL     1       6.160  -6.470  37.486  0.00  0.00    +0.324 C 
BRANCH  21   3
ATOM      3  O   UNL     1       5.781  -7.723  38.000  0.00  0.00    -0.483 OA
BRANCH   3  23
ATOM     23  C   UNL     1       4.834  -8.436  37.298  0.00  0.00    +0.121 A 
ATOM     24  C   UNL     1       5.103  -8.825  35.995  0.00  0.00    +0.045 A 
ATOM     25  C   UNL     1       3.629  -8.753  37.906  0.00  0.00    +0.045 A 
ATOM     27  C   UNL     1       4.146  -9.547  35.283  0.00  0.00    +0.004 A 
ATOM     28  C   UNL     1       2.671  -9.474  37.194  0.00  0.00    +0.004 A 
ATOM     29  C   UNL     1       2.929  -9.871  35.882  0.00  0.00    +0.000 A 
ENDBRANCH   3  23
ENDBRANCH  21   3
ENDBRANCH  18  21
TORSDOF 5
ENDMDL
MODEL 9
REMARK VINA RESULT:      -6.7     13.829     16.053
REMARK  Name = 11884550
REMARK  5 active torsions:
REMARK  status: ('A' for Active; 'I' for Inactive)
REMARK    1  A    between atoms: O_3  and  C_21
REMARK    2  A    between atoms: O_3  and  C_23
REMARK    3  A    between atoms: N_7  and  C_19
REMARK    4  A    between atoms: N_8  and  C_26
REMARK    5  A    between atoms: C_18  and  C_21
REMARK                            x       y       z     vdW  Elec       q    Type
REMARK                         _______ _______ _______ _____ _____    ______ ____
ROOT
ATOM      1  O   UNL     1      14.635   6.958   6.567  0.00  0.00    -0.266 OA
ATOM      2  O   UNL     1      10.175   4.202   5.477  0.00  0.00    -0.272 OA
ATOM      5  N   UNL     1       9.865   6.469   5.071  0.00  0.00    -0.298 N 
ATOM      6  N   UNL     1      12.687   7.857   5.639  0.00  0.00    -0.310 N 
ATOM      9  C   UNL     1      10.484   8.016   6.932  0.00  0.00    +0.027 C 
ATOM     10  C   UNL     1      10.593   8.802   4.604  0.00  0.00    +0.054 C 
ATOM     11  C   UNL     1      10.198   9.206   6.023  0.00  0.00    +0.018 C 
ATOM     12  C   UNL     1       9.669   6.789   6.486  0.00  0.00    +0.113 C 
ATOM     13  C   UNL     1      11.991   7.739   6.927  0.00  0.00    +0.130 C 
ATOM     14  C   UNL     1       9.734   7.607   4.148  0.00  0.00    +0.117 C 
ATOM     15  C   UNL     1      12.064   8.437   4.530  0.00  0.00    +0.027 A 
ATOM     16  C   UNL     1      12.756   8.641   3.396  0.00  0.00    +0.024 A 
ATOM     17  C   UNL     1      14.039   7.456   5.611  0.00  0.00    +0.273 A 
ATOM     18  C   UNL     1      10.068   5.144   4.686  0.00  0.00    +0.253 C 
ATOM     19  C   UNL     1      14.767   7.678   4.322  0.00  0.00    +0.100 A 
ATOM     20  C   UNL     1      14.134   8.251   3.293  0.00  0.00    +0.030 A 
ENDROOT
BRANCH  19   7
ATOM      4  O   UNL     1      17.034   9.335   4.771  0.00  0.00    -0.252 OA
ATOM      7  N   UNL     1      16.073   7.291   4.249  0.00  0.00    -0.265 N 
ATOM      8  N   UNL     1      18.361   7.450   4.326  0.00  0.00    -0.269 N 
ATOM     22  C   UNL     1      17.158   8.148   4.478  0.00  0.00    +0.308 C 
ATOM     35  H   UNL     1      16.267   6.416   3.769  0.00  0.00    +0.157 HD
ATOM     36  H   UNL     1      18.288   6.465   4.085  0.00  0.00    +0.156 HD
BRANCH   8  26
ATOM     26  C   UNL     1      19.677   7.948   4.471  0.00  0.00    +0.035 A 
ATOM     30  C   UNL     1      20.304   7.854   5.703  0.00  0.00    +0.023 A 
ATOM     31  C   UNL     1      20.312   8.516   3.379  0.00  0.00    +0.023 A 
ATOM     32  C   UNL     1      21.603   8.343   5.847  0.00  0.00    +0.002 A 
ATOM     33  C   UNL     1      21.611   9.004   3.524  0.00  0.00    +0.002 A 
ATOM     34  C   UNL     1      22.256   8.918   4.757  0.00  0.00    +0.000 A 
ENDBRANCH   8  26
ENDBRANCH  19   7
BRANCH  18  21
ATOM     21  C   UNL     1      10.167   4.878   3.206  0.00  0.00    +0.324 C 
BRANCH  21   3
ATOM      3  O   UNL     1      11.214   3.954   3.032  0.00  0.00    -0.483 OA
BRANCH   3  23
ATOM     23  C   UNL     1      12.171   4.252   2.089  0.00  0.00    +0.121 A 
ATOM     24  C   UNL     1      13.083   3.277   1.712  0.00  0.00    +0.045 A 
ATOM     25  C   UNL     1      12.207   5.521   1.531  0.00  0.00    +0.045 A 
ATOM     27  C   UNL     1      14.053   3.578   0.755  0.00  0.00    +0.004 A 
ATOM     28  C   UNL     1      13.178   5.822   0.576  0.00  0.00    +0.004 A 
ATOM     29  C   UNL     1      14.101   4.851   0.188  0.00  0.00    +0.000 A 
ENDBRANCH   3  23
ENDBRANCH  21   3
ENDBRANCH  18  21
TORSDOF 5
ENDMDL
MODEL 10
REMARK VINA RESULT:      -6.7     12.832     17.042
REMARK  Name = 11884550
REMARK  5 active torsions:
REMARK  status: ('A' for Active; 'I' for Inactive)
REMARK    1  A    between atoms: O_3  and  C_21
REMARK    2  A    between atoms: O_3  and  C_23
REMARK    3  A    between atoms: N_7  and  C_19
REMARK    4  A    between atoms: N_8  and  C_26
REMARK    5  A    between atoms: C_18  and  C_21
REMARK                            x       y       z     vdW  Elec       q    Type
REMARK                         _______ _______ _______ _____ _____    ______ ____
ROOT
ATOM      1  O   UNL     1      18.856  -8.417  27.343  0.00  0.00    -0.266 OA
ATOM      2  O   UNL     1      22.255  -4.383  26.423  0.00  0.00    -0.272 OA
ATOM      5  N   UNL     1      21.724  -5.482  24.446  0.00  0.00    -0.298 N 
ATOM      6  N   UNL     1      19.582  -7.721  25.234  0.00  0.00    -0.310 N 
ATOM      9  C   UNL     1      22.008  -7.964  24.456  0.00  0.00    +0.027 C 
ATOM     10  C   UNL     1      20.346  -6.933  22.966  0.00  0.00    +0.054 C 
ATOM     11  C   UNL     1      21.407  -8.027  23.056  0.00  0.00    +0.018 C 
ATOM     12  C   UNL     1      22.649  -6.587  24.705  0.00  0.00    +0.113 C 
ATOM     13  C   UNL     1      20.916  -8.286  25.481  0.00  0.00    +0.130 C 
ATOM     14  C   UNL     1      21.007  -5.555  23.164  0.00  0.00    +0.117 C 
ATOM     15  C   UNL     1      19.260  -7.137  24.005  0.00  0.00    +0.027 A 
ATOM     16  C   UNL     1      18.003  -6.732  23.760  0.00  0.00    +0.024 A 
ATOM     17  C   UNL     1      18.623  -7.893  26.253  0.00  0.00    +0.273 A 
ATOM     18  C   UNL     1      21.645  -4.424  25.351  0.00  0.00    +0.253 C 
ATOM     19  C   UNL     1      17.241  -7.406  25.949  0.00  0.00    +0.100 A 
ATOM     20  C   UNL     1      16.975  -6.869  24.753  0.00  0.00    +0.030 A 
ENDROOT
BRANCH  19   7
ATOM      4  O   UNL     1      16.617  -5.503  27.968  0.00  0.00    -0.252 OA
ATOM      7  N   UNL     1      16.287  -7.541  26.913  0.00  0.00    -0.265 N 
ATOM      8  N   UNL     1      14.986  -7.011  28.728  0.00  0.00    -0.269 N 
ATOM     22  C   UNL     1      16.017  -6.573  27.890  0.00  0.00    +0.308 C 
ATOM     35  H   UNL     1      15.931  -8.479  27.080  0.00  0.00    +0.157 HD
ATOM     36  H   UNL     1      14.590  -7.925  28.524  0.00  0.00    +0.156 HD
BRANCH   8  26
ATOM     26  C   UNL     1      14.418  -6.333  29.832  0.00  0.00    +0.035 A 
ATOM     30  C   UNL     1      13.107  -6.603  30.190  0.00  0.00    +0.023 A 
ATOM     31  C   UNL     1      15.184  -5.416  30.533  0.00  0.00    +0.023 A 
ATOM     32  C   UNL     1      12.546  -5.935  31.280  0.00  0.00    +0.002 A 
ATOM     33  C   UNL     1      14.622  -4.749  31.623  0.00  0.00    +0.002 A 
ATOM     34  C   UNL     1      13.304  -5.009  31.995  0.00  0.00    +0.000 A 
ENDBRANCH   8  26
ENDBRANCH  19   7
BRANCH  18  21
ATOM     21  C   UNL     1      20.741  -3.278  24.972  0.00  0.00    +0.324 C 
BRANCH  21   3
ATOM      3  O   UNL     1      19.450  -3.621  25.414  0.00  0.00    -0.483 OA
BRANCH   3  23
ATOM     23  C   UNL     1      18.390  -3.249  24.617  0.00  0.00    +0.121 A 
ATOM     24  C   UNL     1      17.108  -3.251  25.145  0.00  0.00    +0.045 A 
ATOM     25  C   UNL     1      18.623  -2.879  23.301  0.00  0.00    +0.045 A 
ATOM     27  C   UNL     1      16.034  -2.875  24.339  0.00  0.00    +0.004 A 
ATOM     28  C   UNL     1      17.548  -2.504  22.495  0.00  0.00    +0.004 A 
ATOM     29  C   UNL     1      16.254  -2.502  23.014  0.00  0.00    +0.000 A 
ENDBRANCH   3  23
ENDBRANCH  21   3
ENDBRANCH  18  21
TORSDOF 5
ENDMDL
