REMARK  Name = 45361282
REMARK  9 active torsions:
REMARK  status: ('A' for Active; 'I' for Inactive)
REMARK    1  A    between atoms: O_2  and  C_11
REMARK    2  A    between atoms: O_3  and  C_18
REMARK    3  A    between atoms: N_5  and  C_9
REMARK    4  A    between atoms: N_6  and  C_19
REMARK    5  A    between atoms: N_7  and  C_15
REMARK    6  A    between atoms: N_8  and  C_30
REMARK    7  A    between atoms: C_10  and  C_15
REMARK    8  A    between atoms: C_12  and  C_18
REMARK    9  A    between atoms: C_20  and  C_23
REMARK                            x       y       z     vdW  Elec       q    Type
REMARK                         _______ _______ _______ _____ _____    ______ ____
ROOT
ATOM      1  O   UNL     1       2.208   2.304   0.536  0.00  0.00    -0.365 OA
ATOM      9  C   UNL     1      -0.139   1.919   0.648  0.00  0.00    +0.118 C 
ATOM     10  C   UNL     1       1.233   1.238   0.556  0.00  0.00    +0.155 C 
ATOM     11  C   UNL     1       0.114   3.284   0.027  0.00  0.00    +0.165 C 
ATOM     12  C   UNL     1       1.520   3.570   0.540  0.00  0.00    +0.174 C 
ENDROOT
BRANCH   9   5
ATOM      5  N   UNL     1      -1.260   1.182   0.091  0.00  0.00    -0.292 NA
ATOM      6  N   UNL     1      -3.797  -0.129   0.133  0.00  0.00    -0.327 N 
ATOM     13  C   UNL     1      -1.417  -0.109   0.772  0.00  0.00    +0.104 C 
ATOM     14  C   UNL     1      -2.498   1.962   0.208  0.00  0.00    +0.104 C 
ATOM     16  C   UNL     1      -2.560  -0.919   0.156  0.00  0.00    +0.120 C 
ATOM     17  C   UNL     1      -3.677   1.221  -0.426  0.00  0.00    +0.120 C 
BRANCH   6  19
ATOM     19  C   UNL     1      -5.013  -0.815   0.037  0.00  0.00    +0.030 A 
ATOM     21  C   UNL     1      -5.375  -1.734   1.022  0.00  0.00    +0.023 A 
ATOM     22  C   UNL     1      -5.864  -0.579  -1.042  0.00  0.00    +0.023 A 
ATOM     24  C   UNL     1      -6.587  -2.418   0.926  0.00  0.00    +0.002 A 
ATOM     25  C   UNL     1      -7.076  -1.262  -1.138  0.00  0.00    +0.002 A 
ATOM     26  C   UNL     1      -7.438  -2.182  -0.154  0.00  0.00    +0.000 A 
ENDBRANCH   6  19
ENDBRANCH   9   5
BRANCH  11   2
ATOM      2  O   UNL     1       0.108   3.219  -1.393  0.00  0.00    -0.388 OA
ATOM     31  H   UNL     1       0.166   4.129  -1.730  0.00  0.00    +0.210 HD
ENDBRANCH  11   2
BRANCH  10  15
ATOM     15  C   UNL     1       1.485   0.373  -0.674  0.00  0.00    +0.137 C 
BRANCH  15   7
ATOM      4  O   UNL     1       2.229  -2.146   0.485  0.00  0.00    -0.269 OA
ATOM      7  N   UNL     1       2.798  -0.200  -0.641  0.00  0.00    -0.308 N 
ATOM     20  C   UNL     1       3.070  -1.433  -0.055  0.00  0.00    +0.261 C 
ATOM     32  H   UNL     1       3.553   0.329  -1.068  0.00  0.00    +0.149 HD
BRANCH  20  23
ATOM      8  N   UNL     1       4.895  -3.183  -0.126  0.00  0.00    -0.346 N 
ATOM     23  C   UNL     1       4.488  -1.875  -0.081  0.00  0.00    +0.104 A 
ATOM     27  C   UNL     1       5.615  -1.083  -0.068  0.00  0.00    +0.032 A 
ATOM     28  C   UNL     1       6.264  -3.238  -0.143  0.00  0.00    +0.086 A 
ATOM     29  C   UNL     1       6.739  -1.945  -0.107  0.00  0.00    +0.020 A 
ATOM     30  C   UNL     1       4.027  -4.340  -0.153  0.00  0.00    +0.149 C 
ENDBRANCH  20  23
ENDBRANCH  15   7
ENDBRANCH  10  15
BRANCH  12  18
ATOM     18  C   UNL     1       2.318   4.576  -0.270  0.00  0.00    +0.190 C 
BRANCH  18   3
ATOM      3  O   UNL     1       3.591   4.744   0.333  0.00  0.00    -0.392 OA
ATOM     33  H   UNL     1       4.078   5.394  -0.202  0.00  0.00    +0.210 HD
ENDBRANCH  18   3
ENDBRANCH  12  18
TORSDOF 8
