MODEL 1
REMARK VINA RESULT:      -5.6      0.000      0.000
REMARK  Name = 75536513
REMARK  12 active torsions:
REMARK  status: ('A' for Active; 'I' for Inactive)
REMARK    1  A    between atoms: O_2  and  C_7
REMARK    2  A    between atoms: N_4  and  C_6
REMARK    3  A    between atoms: N_4  and  C_11
REMARK    4  A    between atoms: N_5  and  C_10
REMARK    5  A    between atoms: C_8  and  C_10
REMARK    6  A    between atoms: C_11  and  C_15
REMARK    7  A    between atoms: C_11  and  C_16
REMARK    8  A    between atoms: C_12  and  C_13
REMARK    9  A    between atoms: C_12  and  C_17
REMARK   10  A    between atoms: C_12  and  C_18
REMARK   11  A    between atoms: C_12  and  C_19
REMARK   12  A    between atoms: C_13  and  C_14
REMARK                            x       y       z     vdW  Elec       q    Type
REMARK                         _______ _______ _______ _____ _____    ______ ____
ROOT
ATOM      1  O   UNL     1      11.673  10.301  20.756  0.00  0.00    -0.371 OA
ATOM      6  C   UNL     1      11.565   8.195  19.665  0.00  0.00    +0.111 C 
ATOM      7  C   UNL     1      11.195   8.015  21.127  0.00  0.00    +0.164 C 
ATOM      8  C   UNL     1      10.804   9.437  21.506  0.00  0.00    +0.165 C 
ATOM      9  C   UNL     1      12.277   9.537  19.698  0.00  0.00    +0.181 C 
ENDROOT
BRANCH   7   2
ATOM      2  O   UNL     1      10.126   7.107  21.311  0.00  0.00    -0.388 OA
ATOM     22  H   UNL     1       9.676   6.986  20.457  0.00  0.00    +0.210 HD
ENDBRANCH   7   2
BRANCH   6   4
ATOM      4  N   UNL     1      12.397   7.125  19.139  0.00  0.00    -0.307 NA
ATOM     20  H   UNL     1      12.011   6.780  18.261  0.00  0.00    +0.123 HD
BRANCH   4  11
ATOM     11  C   UNL     1      13.767   7.578  18.935  0.00  0.00    +0.048 C 
ATOM     15  C   UNL     1      14.134   7.505  17.455  0.00  0.00    +0.023 C 
ATOM     16  C   UNL     1      14.714   6.729  19.776  0.00  0.00    +0.023 C 
ENDBRANCH   4  11
ENDBRANCH   6   4
BRANCH   8  10
ATOM     10  C   UNL     1      10.950   9.722  22.991  0.00  0.00    +0.138 C 
BRANCH  10   5
ATOM      3  O   UNL     1      11.440  11.163  25.456  0.00  0.00    -0.276 OA
ATOM      5  N   UNL     1      10.552  11.074  23.310  0.00  0.00    -0.313 N 
ATOM     14  C   UNL     1      10.831  11.682  24.522  0.00  0.00    +0.214 C 
ATOM     21  H   UNL     1      10.049  11.595  22.597  0.00  0.00    +0.149 HD
BRANCH  14  13
ATOM     13  C   UNL     1      10.297  13.103  24.613  0.00  0.00    +0.102 C 
BRANCH  13  12
ATOM     12  C   UNL     1      11.385  14.197  24.712  0.00  0.00    -0.029 C 
ATOM     17  C   UNL     1      11.971  14.269  26.132  0.00  0.00    +0.011 C 
ATOM     18  C   UNL     1      12.520  13.832  23.736  0.00  0.00    +0.011 C 
ATOM     19  C   UNL     1      10.833  15.578  24.321  0.00  0.00    +0.011 C 
ENDBRANCH  13  12
ENDBRANCH  14  13
ENDBRANCH  10   5
ENDBRANCH   8  10
TORSDOF 7
ENDMDL
MODEL 2
REMARK VINA RESULT:      -5.3     27.594     28.961
REMARK  Name = 75536513
REMARK  12 active torsions:
REMARK  status: ('A' for Active; 'I' for Inactive)
REMARK    1  A    between atoms: O_2  and  C_7
REMARK    2  A    between atoms: N_4  and  C_6
REMARK    3  A    between atoms: N_4  and  C_11
REMARK    4  A    between atoms: N_5  and  C_10
REMARK    5  A    between atoms: C_8  and  C_10
REMARK    6  A    between atoms: C_11  and  C_15
REMARK    7  A    between atoms: C_11  and  C_16
REMARK    8  A    between atoms: C_12  and  C_13
REMARK    9  A    between atoms: C_12  and  C_17
REMARK   10  A    between atoms: C_12  and  C_18
REMARK   11  A    between atoms: C_12  and  C_19
REMARK   12  A    between atoms: C_13  and  C_14
REMARK                            x       y       z     vdW  Elec       q    Type
REMARK                         _______ _______ _______ _____ _____    ______ ____
ROOT
ATOM      1  O   UNL     1     -17.096   5.309  25.501  0.00  0.00    -0.371 OA
ATOM      6  C   UNL     1     -16.161   4.083  23.695  0.00  0.00    +0.111 C 
ATOM      7  C   UNL     1     -15.848   3.364  24.995  0.00  0.00    +0.164 C 
ATOM      8  C   UNL     1     -16.915   3.944  25.913  0.00  0.00    +0.165 C 
ATOM      9  C   UNL     1     -16.513   5.473  24.196  0.00  0.00    +0.181 C 
ENDROOT
BRANCH   7   2
ATOM      2  O   UNL     1     -15.956   1.959  24.881  0.00  0.00    -0.388 OA
ATOM     22  H   UNL     1     -15.343   1.552  25.516  0.00  0.00    +0.210 HD
ENDBRANCH   7   2
BRANCH   6   4
ATOM      4  N   UNL     1     -15.057   4.084  22.749  0.00  0.00    -0.307 NA
ATOM     20  H   UNL     1     -15.220   3.394  22.017  0.00  0.00    +0.123 HD
BRANCH   4  11
ATOM     11  C   UNL     1     -14.876   5.404  22.156  0.00  0.00    +0.048 C 
ATOM     15  C   UNL     1     -15.686   5.520  20.868  0.00  0.00    +0.023 C 
ATOM     16  C   UNL     1     -13.392   5.644  21.894  0.00  0.00    +0.023 C 
ENDBRANCH   4  11
ENDBRANCH   6   4
BRANCH   8  10
ATOM     10  C   UNL     1     -16.532   3.897  27.382  0.00  0.00    +0.138 C 
BRANCH  10   5
ATOM      3  O   UNL     1     -16.734   2.656  29.992  0.00  0.00    -0.276 OA
ATOM      5  N   UNL     1     -16.070   2.583  27.766  0.00  0.00    -0.313 N 
ATOM     14  C   UNL     1     -16.211   2.072  29.045  0.00  0.00    +0.214 C 
ATOM     21  H   UNL     1     -15.630   2.013  27.049  0.00  0.00    +0.149 HD
BRANCH  14  13
ATOM     13  C   UNL     1     -15.636   0.672  29.194  0.00  0.00    +0.102 C 
BRANCH  13  12
ATOM     12  C   UNL     1     -14.479   0.554  30.214  0.00  0.00    -0.029 C 
ATOM     17  C   UNL     1     -15.008   0.198  31.613  0.00  0.00    +0.011 C 
ATOM     18  C   UNL     1     -13.543  -0.578  29.745  0.00  0.00    +0.011 C 
ATOM     19  C   UNL     1     -13.664   1.855  30.296  0.00  0.00    +0.011 C 
ENDBRANCH  13  12
ENDBRANCH  14  13
ENDBRANCH  10   5
ENDBRANCH   8  10
TORSDOF 7
ENDMDL
MODEL 3
REMARK VINA RESULT:      -5.3     26.700     28.327
REMARK  Name = 75536513
REMARK  12 active torsions:
REMARK  status: ('A' for Active; 'I' for Inactive)
REMARK    1  A    between atoms: O_2  and  C_7
REMARK    2  A    between atoms: N_4  and  C_6
REMARK    3  A    between atoms: N_4  and  C_11
REMARK    4  A    between atoms: N_5  and  C_10
REMARK    5  A    between atoms: C_8  and  C_10
REMARK    6  A    between atoms: C_11  and  C_15
REMARK    7  A    between atoms: C_11  and  C_16
REMARK    8  A    between atoms: C_12  and  C_13
REMARK    9  A    between atoms: C_12  and  C_17
REMARK   10  A    between atoms: C_12  and  C_18
REMARK   11  A    between atoms: C_12  and  C_19
REMARK   12  A    between atoms: C_13  and  C_14
REMARK                            x       y       z     vdW  Elec       q    Type
REMARK                         _______ _______ _______ _____ _____    ______ ____
ROOT
ATOM      1  O   UNL     1      -4.592 -12.033  17.645  0.00  0.00    -0.371 OA
ATOM      6  C   UNL     1      -6.514 -10.650  17.459  0.00  0.00    +0.111 C 
ATOM      7  C   UNL     1      -5.358  -9.993  16.726  0.00  0.00    +0.164 C 
ATOM      8  C   UNL     1      -4.443 -11.187  16.493  0.00  0.00    +0.165 C 
ATOM      9  C   UNL     1      -5.782 -11.638  18.351  0.00  0.00    +0.181 C 
ENDROOT
BRANCH   7   2
ATOM      2  O   UNL     1      -5.756  -9.388  15.511  0.00  0.00    -0.388 OA
ATOM     22  H   UNL     1      -5.343  -9.874  14.777  0.00  0.00    +0.210 HD
ENDBRANCH   7   2
BRANCH   6   4
ATOM      4  N   UNL     1      -7.338  -9.715  18.206  0.00  0.00    -0.307 NA
ATOM     20  H   UNL     1      -6.948  -8.775  18.143  0.00  0.00    +0.123 HD
BRANCH   4  11
ATOM     11  C   UNL     1      -8.711  -9.716  17.716  0.00  0.00    +0.048 C 
ATOM     15  C   UNL     1      -8.963 -10.951  16.854  0.00  0.00    +0.023 C 
ATOM     16  C   UNL     1      -8.970  -8.436  16.928  0.00  0.00    +0.023 C 
ENDBRANCH   4  11
ENDBRANCH   6   4
BRANCH   8  10
ATOM     10  C   UNL     1      -2.984 -10.800  16.325  0.00  0.00    +0.138 C 
BRANCH  10   5
ATOM      3  O   UNL     1      -1.826 -12.272  14.115  0.00  0.00    -0.276 OA
ATOM      5  N   UNL     1      -2.717 -10.312  14.991  0.00  0.00    -0.313 N 
ATOM     14  C   UNL     1      -2.157 -11.093  13.995  0.00  0.00    +0.214 C 
ATOM     21  H   UNL     1      -2.965  -9.348  14.787  0.00  0.00    +0.149 HD
BRANCH  14  13
ATOM     13  C   UNL     1      -1.970 -10.344  12.685  0.00  0.00    +0.102 C 
BRANCH  13  12
ATOM     12  C   UNL     1      -3.127 -10.513  11.673  0.00  0.00    -0.029 C 
ATOM     17  C   UNL     1      -3.193 -11.955  11.144  0.00  0.00    +0.011 C 
ATOM     18  C   UNL     1      -4.449 -10.201  12.403  0.00  0.00    +0.011 C 
ATOM     19  C   UNL     1      -2.985  -9.544  10.489  0.00  0.00    +0.011 C 
ENDBRANCH  13  12
ENDBRANCH  14  13
ENDBRANCH  10   5
ENDBRANCH   8  10
TORSDOF 7
ENDMDL
MODEL 4
REMARK VINA RESULT:      -5.2     25.994     28.184
REMARK  Name = 75536513
REMARK  12 active torsions:
REMARK  status: ('A' for Active; 'I' for Inactive)
REMARK    1  A    between atoms: O_2  and  C_7
REMARK    2  A    between atoms: N_4  and  C_6
REMARK    3  A    between atoms: N_4  and  C_11
REMARK    4  A    between atoms: N_5  and  C_10
REMARK    5  A    between atoms: C_8  and  C_10
REMARK    6  A    between atoms: C_11  and  C_15
REMARK    7  A    between atoms: C_11  and  C_16
REMARK    8  A    between atoms: C_12  and  C_13
REMARK    9  A    between atoms: C_12  and  C_17
REMARK   10  A    between atoms: C_12  and  C_18
REMARK   11  A    between atoms: C_12  and  C_19
REMARK   12  A    between atoms: C_13  and  C_14
REMARK                            x       y       z     vdW  Elec       q    Type
REMARK                         _______ _______ _______ _____ _____    ______ ____
ROOT
ATOM      1  O   UNL     1      -5.472 -11.352  18.921  0.00  0.00    -0.371 OA
ATOM      6  C   UNL     1      -4.003 -10.911  17.107  0.00  0.00    +0.111 C 
ATOM      7  C   UNL     1      -5.413 -10.508  16.712  0.00  0.00    +0.164 C 
ATOM      8  C   UNL     1      -6.065 -10.350  18.079  0.00  0.00    +0.165 C 
ATOM      9  C   UNL     1      -4.273 -11.830  18.287  0.00  0.00    +0.181 C 
ENDROOT
BRANCH   7   2
ATOM      2  O   UNL     1      -5.448  -9.306  15.968  0.00  0.00    -0.388 OA
ATOM     22  H   UNL     1      -5.030  -9.468  15.105  0.00  0.00    +0.210 HD
ENDBRANCH   7   2
BRANCH   6   4
ATOM      4  N   UNL     1      -3.262 -11.562  16.039  0.00  0.00    -0.307 NA
ATOM     20  H   UNL     1      -3.901 -12.071  15.428  0.00  0.00    +0.123 HD
BRANCH   4  11
ATOM     11  C   UNL     1      -2.499 -10.592  15.263  0.00  0.00    +0.048 C 
ATOM     15  C   UNL     1      -2.496 -10.981  13.787  0.00  0.00    +0.023 C 
ATOM     16  C   UNL     1      -1.078 -10.509  15.811  0.00  0.00    +0.023 C 
ENDBRANCH   4  11
ENDBRANCH   6   4
BRANCH   8  10
ATOM     10  C   UNL     1      -7.573 -10.532  18.048  0.00  0.00    +0.138 C 
BRANCH  10   5
ATOM      3  O   UNL     1     -10.431 -10.068  17.947  0.00  0.00    -0.276 OA
ATOM      5  N   UNL     1      -8.250  -9.287  17.765  0.00  0.00    -0.313 N 
ATOM     14  C   UNL     1      -9.628  -9.160  17.738  0.00  0.00    +0.214 C 
ATOM     21  H   UNL     1      -7.672  -8.470  17.587  0.00  0.00    +0.149 HD
BRANCH  14  13
ATOM     13  C   UNL     1     -10.090  -7.750  17.408  0.00  0.00    +0.102 C 
BRANCH  13  12
ATOM     12  C   UNL     1     -10.838  -7.613  16.061  0.00  0.00    -0.029 C 
ATOM     17  C   UNL     1     -12.327  -7.964  16.217  0.00  0.00    +0.011 C 
ATOM     18  C   UNL     1     -10.730  -6.146  15.602  0.00  0.00    +0.011 C 
ATOM     19  C   UNL     1     -10.216  -8.509  14.978  0.00  0.00    +0.011 C 
ENDBRANCH  13  12
ENDBRANCH  14  13
ENDBRANCH  10   5
ENDBRANCH   8  10
TORSDOF 7
ENDMDL
MODEL 5
REMARK VINA RESULT:      -5.1     34.131     36.473
REMARK  Name = 75536513
REMARK  12 active torsions:
REMARK  status: ('A' for Active; 'I' for Inactive)
REMARK    1  A    between atoms: O_2  and  C_7
REMARK    2  A    between atoms: N_4  and  C_6
REMARK    3  A    between atoms: N_4  and  C_11
REMARK    4  A    between atoms: N_5  and  C_10
REMARK    5  A    between atoms: C_8  and  C_10
REMARK    6  A    between atoms: C_11  and  C_15
REMARK    7  A    between atoms: C_11  and  C_16
REMARK    8  A    between atoms: C_12  and  C_13
REMARK    9  A    between atoms: C_12  and  C_17
REMARK   10  A    between atoms: C_12  and  C_18
REMARK   11  A    between atoms: C_12  and  C_19
REMARK   12  A    between atoms: C_13  and  C_14
REMARK                            x       y       z     vdW  Elec       q    Type
REMARK                         _______ _______ _______ _____ _____    ______ ____
ROOT
ATOM      1  O   UNL     1      -1.236 -15.515  -2.191  0.00  0.00    -0.371 OA
ATOM      6  C   UNL     1      -0.546 -14.267  -0.291  0.00  0.00    +0.111 C 
ATOM      7  C   UNL     1      -1.434 -13.395  -1.161  0.00  0.00    +0.164 C 
ATOM      8  C   UNL     1      -2.175 -14.448  -1.972  0.00  0.00    +0.165 C 
ATOM      9  C   UNL     1      -0.142 -15.356  -1.271  0.00  0.00    +0.181 C 
ENDROOT
BRANCH   7   2
ATOM      2  O   UNL     1      -2.318 -12.592  -0.405  0.00  0.00    -0.388 OA
ATOM     22  H   UNL     1      -2.033 -12.613   0.524  0.00  0.00    +0.210 HD
ENDBRANCH   7   2
BRANCH   6   4
ATOM      4  N   UNL     1       0.592 -13.562   0.273  0.00  0.00    -0.307 NA
ATOM     20  H   UNL     1       0.313 -13.063   1.117  0.00  0.00    +0.123 HD
BRANCH   4  11
ATOM     11  C   UNL     1       1.682 -14.482   0.576  0.00  0.00    +0.048 C 
ATOM     15  C   UNL     1       1.722 -14.778   2.073  0.00  0.00    +0.023 C 
ATOM     16  C   UNL     1       3.001 -13.881   0.101  0.00  0.00    +0.023 C 
ENDBRANCH   4  11
ENDBRANCH   6   4
BRANCH   8  10
ATOM     10  C   UNL     1      -2.683 -13.930  -3.306  0.00  0.00    +0.138 C 
BRANCH  10   5
ATOM      3  O   UNL     1      -0.683 -14.262  -5.375  0.00  0.00    -0.276 OA
ATOM      5  N   UNL     1      -1.806 -12.917  -3.848  0.00  0.00    -0.313 N 
ATOM     14  C   UNL     1      -0.875 -13.171  -4.841  0.00  0.00    +0.214 C 
ATOM     21  H   UNL     1      -1.893 -11.975  -3.478  0.00  0.00    +0.149 HD
BRANCH  14  13
ATOM     13  C   UNL     1      -0.070 -11.941  -5.231  0.00  0.00    +0.102 C 
BRANCH  13  12
ATOM     12  C   UNL     1       1.372 -11.909  -4.672  0.00  0.00    -0.029 C 
ATOM     17  C   UNL     1       2.365 -12.536  -5.665  0.00  0.00    +0.011 C 
ATOM     18  C   UNL     1       1.767 -10.435  -4.455  0.00  0.00    +0.011 C 
ATOM     19  C   UNL     1       1.471 -12.642  -3.325  0.00  0.00    +0.011 C 
ENDBRANCH  13  12
ENDBRANCH  14  13
ENDBRANCH  10   5
ENDBRANCH   8  10
TORSDOF 7
ENDMDL
MODEL 6
REMARK VINA RESULT:      -5.0     26.180     28.608
REMARK  Name = 75536513
REMARK  12 active torsions:
REMARK  status: ('A' for Active; 'I' for Inactive)
REMARK    1  A    between atoms: O_2  and  C_7
REMARK    2  A    between atoms: N_4  and  C_6
REMARK    3  A    between atoms: N_4  and  C_11
REMARK    4  A    between atoms: N_5  and  C_10
REMARK    5  A    between atoms: C_8  and  C_10
REMARK    6  A    between atoms: C_11  and  C_15
REMARK    7  A    between atoms: C_11  and  C_16
REMARK    8  A    between atoms: C_12  and  C_13
REMARK    9  A    between atoms: C_12  and  C_17
REMARK   10  A    between atoms: C_12  and  C_18
REMARK   11  A    between atoms: C_12  and  C_19
REMARK   12  A    between atoms: C_13  and  C_14
REMARK                            x       y       z     vdW  Elec       q    Type
REMARK                         _______ _______ _______ _____ _____    ______ ____
ROOT
ATOM      1  O   UNL     1      -6.856 -10.436  17.150  0.00  0.00    -0.371 OA
ATOM      6  C   UNL     1      -4.581 -10.716  16.531  0.00  0.00    +0.111 C 
ATOM      7  C   UNL     1      -4.741 -11.066  17.999  0.00  0.00    +0.164 C 
ATOM      8  C   UNL     1      -6.235 -11.348  18.071  0.00  0.00    +0.165 C 
ATOM      9  C   UNL     1      -5.843  -9.910  16.274  0.00  0.00    +0.181 C 
ENDROOT
BRANCH   7   2
ATOM      2  O   UNL     1      -3.973 -12.192  18.378  0.00  0.00    -0.388 OA
ATOM     22  H   UNL     1      -3.468 -11.964  19.177  0.00  0.00    +0.210 HD
ENDBRANCH   7   2
BRANCH   6   4
ATOM      4  N   UNL     1      -3.366  -9.973  16.238  0.00  0.00    -0.307 NA
ATOM     20  H   UNL     1      -2.917  -9.679  17.104  0.00  0.00    +0.123 HD
BRANCH   4  11
ATOM     11  C   UNL     1      -2.440 -10.773  15.446  0.00  0.00    +0.048 C 
ATOM     15  C   UNL     1      -1.008 -10.287  15.655  0.00  0.00    +0.023 C 
ATOM     16  C   UNL     1      -2.834 -10.698  13.974  0.00  0.00    +0.023 C 
ENDBRANCH   4  11
ENDBRANCH   6   4
BRANCH   8  10
ATOM     10  C   UNL     1      -6.816 -11.150  19.461  0.00  0.00    +0.138 C 
BRANCH  10   5
ATOM      3  O   UNL     1      -9.467 -12.255  19.842  0.00  0.00    -0.276 OA
ATOM      5  N   UNL     1      -8.076 -10.443  19.411  0.00  0.00    -0.313 N 
ATOM     14  C   UNL     1      -9.301 -11.060  19.606  0.00  0.00    +0.214 C 
ATOM     21  H   UNL     1      -8.046  -9.444  19.230  0.00  0.00    +0.149 HD
BRANCH  14  13
ATOM     13  C   UNL     1     -10.475 -10.100  19.494  0.00  0.00    +0.102 C 
BRANCH  13  12
ATOM     12  C   UNL     1     -10.846  -9.700  18.046  0.00  0.00    -0.029 C 
ATOM     17  C   UNL     1     -10.025  -8.488  17.579  0.00  0.00    +0.011 C 
ATOM     18  C   UNL     1     -10.522 -10.892  17.124  0.00  0.00    +0.011 C 
ATOM     19  C   UNL     1     -12.344  -9.379  17.917  0.00  0.00    +0.011 C 
ENDBRANCH  13  12
ENDBRANCH  14  13
ENDBRANCH  10   5
ENDBRANCH   8  10
TORSDOF 7
ENDMDL
MODEL 7
REMARK VINA RESULT:      -5.0     27.209     28.587
REMARK  Name = 75536513
REMARK  12 active torsions:
REMARK  status: ('A' for Active; 'I' for Inactive)
REMARK    1  A    between atoms: O_2  and  C_7
REMARK    2  A    between atoms: N_4  and  C_6
REMARK    3  A    between atoms: N_4  and  C_11
REMARK    4  A    between atoms: N_5  and  C_10
REMARK    5  A    between atoms: C_8  and  C_10
REMARK    6  A    between atoms: C_11  and  C_15
REMARK    7  A    between atoms: C_11  and  C_16
REMARK    8  A    between atoms: C_12  and  C_13
REMARK    9  A    between atoms: C_12  and  C_17
REMARK   10  A    between atoms: C_12  and  C_18
REMARK   11  A    between atoms: C_12  and  C_19
REMARK   12  A    between atoms: C_13  and  C_14
REMARK                            x       y       z     vdW  Elec       q    Type
REMARK                         _______ _______ _______ _____ _____    ______ ____
ROOT
ATOM      1  O   UNL     1     -14.869   4.303  31.717  0.00  0.00    -0.371 OA
ATOM      6  C   UNL     1     -14.485   1.995  31.312  0.00  0.00    +0.111 C 
ATOM      7  C   UNL     1     -14.344   2.267  32.799  0.00  0.00    +0.164 C 
ATOM      8  C   UNL     1     -15.113   3.574  32.931  0.00  0.00    +0.165 C 
ATOM      9  C   UNL     1     -14.342   3.393  30.735  0.00  0.00    +0.181 C 
ENDROOT
BRANCH   7   2
ATOM      2  O   UNL     1     -14.904   1.242  33.597  0.00  0.00    -0.388 OA
ATOM     22  H   UNL     1     -14.973   1.568  34.510  0.00  0.00    +0.210 HD
ENDBRANCH   7   2
BRANCH   6   4
ATOM      4  N   UNL     1     -13.496   1.064  30.793  0.00  0.00    -0.307 NA
ATOM     20  H   UNL     1     -12.723   0.971  31.451  0.00  0.00    +0.123 HD
BRANCH   4  11
ATOM     11  C   UNL     1     -14.089  -0.242  30.536  0.00  0.00    +0.048 C 
ATOM     15  C   UNL     1     -13.423  -0.897  29.329  0.00  0.00    +0.023 C 
ATOM     16  C   UNL     1     -15.590  -0.084  30.314  0.00  0.00    +0.023 C 
ENDBRANCH   4  11
ENDBRANCH   6   4
BRANCH   8  10
ATOM     10  C   UNL     1     -14.680   4.406  34.126  0.00  0.00    +0.138 C 
BRANCH  10   5
ATOM      3  O   UNL     1     -15.468   7.178  33.827  0.00  0.00    -0.276 OA
ATOM      5  N   UNL     1     -13.847   5.516  33.722  0.00  0.00    -0.313 N 
ATOM     14  C   UNL     1     -14.315   6.814  33.606  0.00  0.00    +0.214 C 
ATOM     21  H   UNL     1     -12.869   5.321  33.525  0.00  0.00    +0.149 HD
BRANCH  14  13
ATOM     13  C   UNL     1     -13.243   7.795  33.157  0.00  0.00    +0.102 C 
BRANCH  13  12
ATOM     12  C   UNL     1     -12.761   8.772  34.255  0.00  0.00    -0.029 C 
ATOM     17  C   UNL     1     -12.535   8.040  35.588  0.00  0.00    +0.011 C 
ATOM     18  C   UNL     1     -11.419   9.378  33.799  0.00  0.00    +0.011 C 
ATOM     19  C   UNL     1     -13.764   9.918  34.469  0.00  0.00    +0.011 C 
ENDBRANCH  13  12
ENDBRANCH  14  13
ENDBRANCH  10   5
ENDBRANCH   8  10
TORSDOF 7
ENDMDL
MODEL 8
REMARK VINA RESULT:      -5.0     15.320     18.788
REMARK  Name = 75536513
REMARK  12 active torsions:
REMARK  status: ('A' for Active; 'I' for Inactive)
REMARK    1  A    between atoms: O_2  and  C_7
REMARK    2  A    between atoms: N_4  and  C_6
REMARK    3  A    between atoms: N_4  and  C_11
REMARK    4  A    between atoms: N_5  and  C_10
REMARK    5  A    between atoms: C_8  and  C_10
REMARK    6  A    between atoms: C_11  and  C_15
REMARK    7  A    between atoms: C_11  and  C_16
REMARK    8  A    between atoms: C_12  and  C_13
REMARK    9  A    between atoms: C_12  and  C_17
REMARK   10  A    between atoms: C_12  and  C_18
REMARK   11  A    between atoms: C_12  and  C_19
REMARK   12  A    between atoms: C_13  and  C_14
REMARK                            x       y       z     vdW  Elec       q    Type
REMARK                         _______ _______ _______ _____ _____    ______ ____
ROOT
ATOM      1  O   UNL     1      12.536   8.809   5.531  0.00  0.00    -0.371 OA
ATOM      6  C   UNL     1      11.768   7.030   6.905  0.00  0.00    +0.111 C 
ATOM      7  C   UNL     1      13.178   6.719   6.434  0.00  0.00    +0.164 C 
ATOM      8  C   UNL     1      13.675   8.109   6.060  0.00  0.00    +0.165 C 
ATOM      9  C   UNL     1      11.346   8.094   5.906  0.00  0.00    +0.181 C 
ENDROOT
BRANCH   7   2
ATOM      2  O   UNL     1      13.972   6.128   7.444  0.00  0.00    -0.388 OA
ATOM     22  H   UNL     1      14.763   5.745   7.027  0.00  0.00    +0.210 HD
ENDBRANCH   7   2
BRANCH   6   4
ATOM      4  N   UNL     1      10.887   5.874   6.909  0.00  0.00    -0.307 NA
ATOM     20  H   UNL     1      11.416   5.028   6.702  0.00  0.00    +0.123 HD
BRANCH   4  11
ATOM     11  C   UNL     1      10.209   5.735   8.192  0.00  0.00    +0.048 C 
ATOM     15  C   UNL     1       9.797   4.283   8.418  0.00  0.00    +0.023 C 
ATOM     16  C   UNL     1       8.998   6.661   8.230  0.00  0.00    +0.023 C 
ENDBRANCH   4  11
ENDBRANCH   6   4
BRANCH   8  10
ATOM     10  C   UNL     1      14.790   8.089   5.030  0.00  0.00    +0.138 C 
BRANCH  10   5
ATOM      3  O   UNL     1      14.010   7.990   2.242  0.00  0.00    -0.276 OA
ATOM      5  N   UNL     1      14.708   6.921   4.184  0.00  0.00    -0.313 N 
ATOM     14  C   UNL     1      14.322   6.971   2.855  0.00  0.00    +0.214 C 
ATOM     21  H   UNL     1      14.956   6.026   4.596  0.00  0.00    +0.149 HD
BRANCH  14  13
ATOM     13  C   UNL     1      14.308   5.605   2.187  0.00  0.00    +0.102 C 
BRANCH  13  12
ATOM     12  C   UNL     1      12.901   5.087   1.805  0.00  0.00    -0.029 C 
ATOM     17  C   UNL     1      12.460   5.638   0.439  0.00  0.00    +0.011 C 
ATOM     18  C   UNL     1      12.968   3.550   1.712  0.00  0.00    +0.011 C 
ATOM     19  C   UNL     1      11.854   5.464   2.866  0.00  0.00    +0.011 C 
ENDBRANCH  13  12
ENDBRANCH  14  13
ENDBRANCH  10   5
ENDBRANCH   8  10
TORSDOF 7
ENDMDL
MODEL 9
REMARK VINA RESULT:      -4.9     27.177     29.404
REMARK  Name = 75536513
REMARK  12 active torsions:
REMARK  status: ('A' for Active; 'I' for Inactive)
REMARK    1  A    between atoms: O_2  and  C_7
REMARK    2  A    between atoms: N_4  and  C_6
REMARK    3  A    between atoms: N_4  and  C_11
REMARK    4  A    between atoms: N_5  and  C_10
REMARK    5  A    between atoms: C_8  and  C_10
REMARK    6  A    between atoms: C_11  and  C_15
REMARK    7  A    between atoms: C_11  and  C_16
REMARK    8  A    between atoms: C_12  and  C_13
REMARK    9  A    between atoms: C_12  and  C_17
REMARK   10  A    between atoms: C_12  and  C_18
REMARK   11  A    between atoms: C_12  and  C_19
REMARK   12  A    between atoms: C_13  and  C_14
REMARK                            x       y       z     vdW  Elec       q    Type
REMARK                         _______ _______ _______ _____ _____    ______ ____
ROOT
ATOM      1  O   UNL     1      -8.709 -12.710  18.581  0.00  0.00    -0.371 OA
ATOM      6  C   UNL     1      -6.535 -11.774  18.383  0.00  0.00    +0.111 C 
ATOM      7  C   UNL     1      -7.467 -10.739  18.986  0.00  0.00    +0.164 C 
ATOM      8  C   UNL     1      -8.586 -11.625  19.515  0.00  0.00    +0.165 C 
ATOM      9  C   UNL     1      -7.525 -12.746  17.764  0.00  0.00    +0.181 C 
ENDROOT
BRANCH   7   2
ATOM      2  O   UNL     1      -6.855  -9.989  20.017  0.00  0.00    -0.388 OA
ATOM     22  H   UNL     1      -7.499  -9.339  20.347  0.00  0.00    +0.210 HD
ENDBRANCH   7   2
BRANCH   6   4
ATOM      4  N   UNL     1      -5.600 -11.224  17.415  0.00  0.00    -0.307 NA
ATOM     20  H   UNL     1      -5.534 -10.213  17.527  0.00  0.00    +0.123 HD
BRANCH   4  11
ATOM     11  C   UNL     1      -4.281 -11.828  17.559  0.00  0.00    +0.048 C 
ATOM     15  C   UNL     1      -3.914 -11.952  19.035  0.00  0.00    +0.023 C 
ATOM     16  C   UNL     1      -3.253 -10.987  16.809  0.00  0.00    +0.023 C 
ENDBRANCH   4  11
ENDBRANCH   6   4
BRANCH   8  10
ATOM     10  C   UNL     1      -9.916 -10.901  19.639  0.00  0.00    +0.138 C 
BRANCH  10   5
ATOM      3  O   UNL     1     -10.409 -10.456  16.819  0.00  0.00    -0.276 OA
ATOM      5  N   UNL     1      -9.899  -9.640  18.934  0.00  0.00    -0.313 N 
ATOM     14  C   UNL     1     -10.147  -9.524  17.577  0.00  0.00    +0.214 C 
ATOM     21  H   UNL     1      -9.701  -8.803  19.476  0.00  0.00    +0.149 HD
BRANCH  14  13
ATOM     13  C   UNL     1     -10.061  -8.092  17.076  0.00  0.00    +0.102 C 
BRANCH  13  12
ATOM     12  C   UNL     1     -11.264  -7.633  16.220  0.00  0.00    -0.029 C 
ATOM     17  C   UNL     1     -12.580  -8.223  16.753  0.00  0.00    +0.011 C 
ATOM     18  C   UNL     1     -11.351  -6.096  16.304  0.00  0.00    +0.011 C 
ATOM     19  C   UNL     1     -11.091  -8.030  14.745  0.00  0.00    +0.011 C 
ENDBRANCH  13  12
ENDBRANCH  14  13
ENDBRANCH  10   5
ENDBRANCH   8  10
TORSDOF 7
ENDMDL
MODEL 10
REMARK VINA RESULT:      -4.9     34.220     36.861
REMARK  Name = 75536513
REMARK  12 active torsions:
REMARK  status: ('A' for Active; 'I' for Inactive)
REMARK    1  A    between atoms: O_2  and  C_7
REMARK    2  A    between atoms: N_4  and  C_6
REMARK    3  A    between atoms: N_4  and  C_11
REMARK    4  A    between atoms: N_5  and  C_10
REMARK    5  A    between atoms: C_8  and  C_10
REMARK    6  A    between atoms: C_11  and  C_15
REMARK    7  A    between atoms: C_11  and  C_16
REMARK    8  A    between atoms: C_12  and  C_13
REMARK    9  A    between atoms: C_12  and  C_17
REMARK   10  A    between atoms: C_12  and  C_18
REMARK   11  A    between atoms: C_12  and  C_19
REMARK   12  A    between atoms: C_13  and  C_14
REMARK                            x       y       z     vdW  Elec       q    Type
REMARK                         _______ _______ _______ _____ _____    ______ ____
ROOT
ATOM      1  O   UNL     1       1.404 -13.581  -6.474  0.00  0.00    -0.371 OA
ATOM      6  C   UNL     1       0.043 -11.900  -5.492  0.00  0.00    +0.111 C 
ATOM      7  C   UNL     1       0.974 -12.465  -4.433  0.00  0.00    +0.164 C 
ATOM      8  C   UNL     1       2.065 -13.078  -5.300  0.00  0.00    +0.165 C 
ATOM      9  C   UNL     1       0.096 -12.990  -6.550  0.00  0.00    +0.181 C 
ENDROOT
BRANCH   7   2
ATOM      2  O   UNL     1       1.484 -11.468  -3.569  0.00  0.00    -0.388 OA
ATOM     22  H   UNL     1       0.748 -11.114  -3.042  0.00  0.00    +0.210 HD
ENDBRANCH   7   2
BRANCH   6   4
ATOM      4  N   UNL     1      -1.304 -11.645  -5.008  0.00  0.00    -0.307 NA
ATOM     20  H   UNL     1      -1.646 -10.757  -5.374  0.00  0.00    +0.123 HD
BRANCH   4  11
ATOM     11  C   UNL     1      -2.210 -12.722  -5.387  0.00  0.00    +0.048 C 
ATOM     15  C   UNL     1      -3.447 -12.153  -6.078  0.00  0.00    +0.023 C 
ATOM     16  C   UNL     1      -2.595 -13.522  -4.147  0.00  0.00    +0.023 C 
ENDBRANCH   4  11
ENDBRANCH   6   4
BRANCH   8  10
ATOM     10  C   UNL     1       2.816 -14.204  -4.611  0.00  0.00    +0.138 C 
BRANCH  10   5
ATOM      3  O   UNL     1       3.825 -16.096  -2.663  0.00  0.00    -0.276 OA
ATOM      5  N   UNL     1       2.408 -14.344  -3.231  0.00  0.00    -0.313 N 
ATOM     14  C   UNL     1       2.950 -15.284  -2.370  0.00  0.00    +0.214 C 
ATOM     21  H   UNL     1       1.693 -13.709  -2.888  0.00  0.00    +0.149 HD
BRANCH  14  13
ATOM     13  C   UNL     1       2.345 -15.233  -0.977  0.00  0.00    +0.102 C 
BRANCH  13  12
ATOM     12  C   UNL     1       3.275 -14.644   0.110  0.00  0.00    -0.029 C 
ATOM     17  C   UNL     1       4.267 -13.638  -0.496  0.00  0.00    +0.011 C 
ATOM     18  C   UNL     1       2.398 -13.903   1.139  0.00  0.00    +0.011 C 
ATOM     19  C   UNL     1       4.055 -15.748   0.842  0.00  0.00    +0.011 C 
ENDBRANCH  13  12
ENDBRANCH  14  13
ENDBRANCH  10   5
ENDBRANCH   8  10
TORSDOF 7
ENDMDL
