REMARK  Name = 26742282
REMARK  4 active torsions:
REMARK  status: ('A' for Active; 'I' for Inactive)
REMARK    1  A    between atoms: O_4  and  C_28
REMARK    2  A    between atoms: O_4  and  C_32
REMARK    3  A    between atoms: N_7  and  C_21
REMARK    4  A    between atoms: C_18  and  C_20
REMARK                            x       y       z     vdW  Elec       q    Type
REMARK                         _______ _______ _______ _____ _____    ______ ____
ROOT
ATOM      2  O   UNL     1      -1.218  -0.677   1.966  0.00  0.00    -0.267 OA
ATOM      3  O   UNL     1       2.774  -0.126  -2.213  0.00  0.00    -0.252 OA
ATOM      5  N   UNL     1       3.105  -1.562  -0.428  0.00  0.00    -0.284 N 
ATOM      6  N   UNL     1       0.196  -2.100   0.777  0.00  0.00    -0.311 N 
ATOM      7  N   UNL     1       3.453   0.758  -0.179  0.00  0.00    -0.269 N 
ATOM      8  C   UNL     1       2.491  -2.810   1.657  0.00  0.00    +0.027 C 
ATOM      9  C   UNL     1       1.717  -3.626  -0.527  0.00  0.00    +0.054 C 
ATOM     10  C   UNL     1       2.274  -4.067   0.824  0.00  0.00    +0.018 C 
ATOM     11  C   UNL     1       3.481  -1.851   0.965  0.00  0.00    +0.114 C 
ATOM     12  C   UNL     1       1.132  -2.146   1.908  0.00  0.00    +0.130 C 
ATOM     13  C   UNL     1       2.755  -2.737  -1.235  0.00  0.00    +0.119 C 
ATOM     14  C   UNL     1       0.413  -2.868  -0.369  0.00  0.00    +0.027 A 
ATOM     15  C   UNL     1      -0.514  -2.905  -1.340  0.00  0.00    +0.022 A 
ATOM     16  C   UNL     1      -0.975  -1.336   0.954  0.00  0.00    +0.259 A 
ATOM     17  C   UNL     1       3.081  -0.283  -1.028  0.00  0.00    +0.306 C 
ATOM     18  C   UNL     1      -1.976  -1.366  -0.168  0.00  0.00    +0.047 A 
ATOM     19  C   UNL     1      -1.723  -2.138  -1.236  0.00  0.00    +0.015 A 
ATOM     33  H   UNL     1       4.124   0.559   0.556  0.00  0.00    +0.156 HD
ENDROOT
BRANCH   7  21
ATOM      1  F   UNL     1       3.612   5.272   1.456  0.00  0.00    -0.205 F 
ATOM     21  C   UNL     1       3.007   2.102  -0.225  0.00  0.00    +0.037 A 
ATOM     26  C   UNL     1       3.539   3.044   0.655  0.00  0.00    +0.061 A 
ATOM     27  C   UNL     1       2.035   2.484  -1.150  0.00  0.00    +0.023 A 
ATOM     29  C   UNL     1       3.100   4.367   0.611  0.00  0.00    +0.125 A 
ATOM     30  C   UNL     1       1.595   3.807  -1.194  0.00  0.00    +0.005 A 
ATOM     31  C   UNL     1       2.128   4.748  -0.314  0.00  0.00    +0.038 A 
ENDBRANCH   7  21
BRANCH  18  20
ATOM     20  C   UNL     1      -3.210  -0.562  -0.112  0.00  0.00    -0.012 A 
ATOM     22  C   UNL     1      -4.454  -1.189  -0.171  0.00  0.00    +0.012 A 
ATOM     23  C   UNL     1      -3.133   0.826  -0.001  0.00  0.00    +0.012 A 
ATOM     24  C   UNL     1      -5.622  -0.428  -0.119  0.00  0.00    +0.046 A 
ATOM     25  C   UNL     1      -4.300   1.587   0.050  0.00  0.00    +0.046 A 
ATOM     28  C   UNL     1      -5.545   0.960  -0.008  0.00  0.00    +0.120 A 
BRANCH  28   4
ATOM      4  O   UNL     1      -6.684   1.703   0.041  0.00  0.00    -0.495 OA
ATOM     32  C   UNL     1      -6.533   3.117   0.154  0.00  0.00    +0.277 C 
ENDBRANCH  28   4
ENDBRANCH  18  20
TORSDOF 3
