MODEL 1
REMARK VINA RESULT:      -6.9      0.000      0.000
REMARK  Name = 9421722
REMARK  5 active torsions:
REMARK  status: ('A' for Active; 'I' for Inactive)
REMARK    1  A    between atoms: S_1  and  N_5
REMARK    2  A    between atoms: S_1  and  C_23
REMARK    3  A    between atoms: C_14  and  C_15
REMARK    4  A    between atoms: C_23  and  C_25
REMARK    5  A    between atoms: C_25  and  C_26
REMARK                            x       y       z     vdW  Elec       q    Type
REMARK                         _______ _______ _______ _____ _____    ______ ____
ROOT
ATOM      4  O   UNL     1      13.986  11.909  22.038  0.00  0.00    -0.267 OA
ATOM      5  N   UNL     1      13.432   7.906  19.127  0.00  0.00    -0.180 NA
ATOM      6  N   UNL     1      13.505   9.641  21.769  0.00  0.00    -0.312 N 
ATOM      7  C   UNL     1      15.218   7.960  20.872  0.00  0.00    +0.025 C 
ATOM      8  C   UNL     1      12.959   7.201  21.464  0.00  0.00    +0.052 C 
ATOM      9  C   UNL     1      14.443   6.945  21.702  0.00  0.00    +0.017 C 
ATOM     10  C   UNL     1      14.898   7.792  19.377  0.00  0.00    +0.114 C 
ATOM     11  C   UNL     1      12.628   6.978  19.977  0.00  0.00    +0.118 C 
ATOM     12  C   UNL     1      14.897   9.370  21.385  0.00  0.00    +0.130 C 
ATOM     13  C   UNL     1      12.573   8.607  21.886  0.00  0.00    +0.026 A 
ATOM     15  C   UNL     1      11.794  11.229  22.596  0.00  0.00    +0.020 A 
ATOM     16  C   UNL     1      13.191  10.971  22.108  0.00  0.00    +0.255 A 
ATOM     17  C   UNL     1      11.339   8.863  22.347  0.00  0.00    +0.022 A 
ATOM     20  C   UNL     1      10.948  10.196  22.705  0.00  0.00    +0.011 A 
ENDROOT
BRANCH  15  14
ATOM     14  C   UNL     1      11.424  12.637  22.950  0.00  0.00    +0.024 C 
ATOM     18  C   UNL     1      10.590  12.677  24.238  0.00  0.00    +0.008 C 
ATOM     19  C   UNL     1      10.669  13.311  21.794  0.00  0.00    +0.008 C 
ATOM     21  C   UNL     1      10.161  14.099  24.591  0.00  0.00    +0.001 C 
ATOM     22  C   UNL     1      10.239  14.732  22.151  0.00  0.00    +0.001 C 
ATOM     24  C   UNL     1       9.419  14.765  23.437  0.00  0.00    +0.000 C 
ENDBRANCH  15  14
BRANCH   5   1
ATOM      1  S   UNL     1      12.966   7.995  17.484  0.00  0.00    +0.032 S 
ATOM      2  O   UNL     1      11.563   7.660  17.379  0.00  0.00    -0.158 OA
ATOM      3  O   UNL     1      13.967   7.329  16.678  0.00  0.00    -0.158 OA
BRANCH   1  23
ATOM     23  C   UNL     1      13.133   9.743  17.233  0.00  0.00    +0.185 C 
BRANCH  23  25
ATOM     25  C   UNL     1      12.795  10.517  18.497  0.00  0.00    +0.021 C 
ATOM     26  C   UNL     1      13.571  11.822  18.572  0.00  0.00    +0.005 C 
ENDBRANCH  23  25
ENDBRANCH   1  23
ENDBRANCH   5   1
TORSDOF 4
ENDMDL
MODEL 2
REMARK VINA RESULT:      -6.8      3.242      6.664
REMARK  Name = 9421722
REMARK  5 active torsions:
REMARK  status: ('A' for Active; 'I' for Inactive)
REMARK    1  A    between atoms: S_1  and  N_5
REMARK    2  A    between atoms: S_1  and  C_23
REMARK    3  A    between atoms: C_14  and  C_15
REMARK    4  A    between atoms: C_23  and  C_25
REMARK    5  A    between atoms: C_25  and  C_26
REMARK                            x       y       z     vdW  Elec       q    Type
REMARK                         _______ _______ _______ _____ _____    ______ ____
ROOT
ATOM      4  O   UNL     1      15.044   6.023  20.569  0.00  0.00    -0.267 OA
ATOM      5  N   UNL     1      12.987   9.342  17.477  0.00  0.00    -0.180 NA
ATOM      6  N   UNL     1      14.200   8.158  20.145  0.00  0.00    -0.312 N 
ATOM      7  C   UNL     1      11.755   8.579  19.510  0.00  0.00    +0.025 C 
ATOM      8  C   UNL     1      13.315  10.468  19.669  0.00  0.00    +0.052 C 
ATOM      9  C   UNL     1      11.969   9.941  20.157  0.00  0.00    +0.017 C 
ATOM     10  C   UNL     1      11.735   8.705  17.977  0.00  0.00    +0.114 C 
ATOM     11  C   UNL     1      13.276  10.648  18.141  0.00  0.00    +0.118 C 
ATOM     12  C   UNL     1      12.842   7.616  20.004  0.00  0.00    +0.130 C 
ATOM     13  C   UNL     1      14.443   9.531  20.062  0.00  0.00    +0.026 A 
ATOM     15  C   UNL     1      16.586   7.807  20.709  0.00  0.00    +0.020 A 
ATOM     16  C   UNL     1      15.217   7.238  20.467  0.00  0.00    +0.255 A 
ATOM     17  C   UNL     1      15.672  10.013  20.306  0.00  0.00    +0.022 A 
ATOM     20  C   UNL     1      16.757   9.134  20.633  0.00  0.00    +0.011 A 
ENDROOT
BRANCH  15  14
ATOM     14  C   UNL     1      17.694   6.852  21.038  0.00  0.00    +0.024 C 
ATOM     18  C   UNL     1      18.839   7.572  21.765  0.00  0.00    +0.008 C 
ATOM     19  C   UNL     1      18.209   6.155  19.770  0.00  0.00    +0.008 C 
ATOM     21  C   UNL     1      19.999   6.627  22.067  0.00  0.00    +0.001 C 
ATOM     22  C   UNL     1      19.372   5.213  20.075  0.00  0.00    +0.001 C 
ATOM     24  C   UNL     1      20.501   5.932  20.805  0.00  0.00    +0.000 C 
ENDBRANCH  15  14
BRANCH   5   1
ATOM      1  S   UNL     1      13.207   9.310  15.781  0.00  0.00    +0.032 S 
ATOM      2  O   UNL     1      11.909   9.334  15.142  0.00  0.00    -0.158 OA
ATOM      3  O   UNL     1      14.193   8.301  15.457  0.00  0.00    -0.158 OA
BRANCH   1  23
ATOM     23  C   UNL     1      13.957  10.902  15.560  0.00  0.00    +0.185 C 
BRANCH  23  25
ATOM     25  C   UNL     1      15.301  10.787  14.859  0.00  0.00    +0.021 C 
ATOM     26  C   UNL     1      16.248  11.896  15.289  0.00  0.00    +0.005 C 
ENDBRANCH  23  25
ENDBRANCH   1  23
ENDBRANCH   5   1
TORSDOF 4
ENDMDL
MODEL 3
REMARK VINA RESULT:      -6.1     16.296     19.625
REMARK  Name = 9421722
REMARK  5 active torsions:
REMARK  status: ('A' for Active; 'I' for Inactive)
REMARK    1  A    between atoms: S_1  and  N_5
REMARK    2  A    between atoms: S_1  and  C_23
REMARK    3  A    between atoms: C_14  and  C_15
REMARK    4  A    between atoms: C_23  and  C_25
REMARK    5  A    between atoms: C_25  and  C_26
REMARK                            x       y       z     vdW  Elec       q    Type
REMARK                         _______ _______ _______ _____ _____    ______ ____
ROOT
ATOM      4  O   UNL     1      12.500   7.455   3.400  0.00  0.00    -0.267 OA
ATOM      5  N   UNL     1      12.098   4.919  -0.868  0.00  0.00    -0.180 NA
ATOM      6  N   UNL     1      12.680   5.466   2.191  0.00  0.00    -0.312 N 
ATOM      7  C   UNL     1      14.319   5.172   0.244  0.00  0.00    +0.025 C 
ATOM      8  C   UNL     1      12.842   3.318   0.884  0.00  0.00    +0.052 C 
ATOM      9  C   UNL     1      14.297   3.700   0.634  0.00  0.00    +0.017 C 
ATOM     10  C   UNL     1      13.497   5.405  -1.035  0.00  0.00    +0.114 C 
ATOM     11  C   UNL     1      12.031   3.498  -0.412  0.00  0.00    +0.118 C 
ATOM     12  C   UNL     1      13.811   6.008   1.427  0.00  0.00    +0.130 C 
ATOM     13  C   UNL     1      12.242   4.153   2.001  0.00  0.00    +0.026 A 
ATOM     15  C   UNL     1      11.043   5.707   4.034  0.00  0.00    +0.020 A 
ATOM     16  C   UNL     1      12.132   6.299   3.186  0.00  0.00    +0.255 A 
ATOM     17  C   UNL     1      11.282   3.643   2.789  0.00  0.00    +0.022 A 
ATOM     20  C   UNL     1      10.676   4.437   3.818  0.00  0.00    +0.011 A 
ENDROOT
BRANCH  15  14
ATOM     14  C   UNL     1      10.429   6.574   5.091  0.00  0.00    +0.024 C 
ATOM     18  C   UNL     1      11.093   6.329   6.453  0.00  0.00    +0.008 C 
ATOM     19  C   UNL     1       8.913   6.341   5.176  0.00  0.00    +0.008 C 
ATOM     21  C   UNL     1      10.450   7.168   7.555  0.00  0.00    +0.001 C 
ATOM     22  C   UNL     1       8.274   7.180   6.282  0.00  0.00    +0.001 C 
ATOM     24  C   UNL     1       8.944   6.938   7.630  0.00  0.00    +0.000 C 
ENDBRANCH  15  14
BRANCH   5   1
ATOM      1  S   UNL     1      11.011   5.347  -2.118  0.00  0.00    +0.032 S 
ATOM      2  O   UNL     1      10.035   4.289  -2.269  0.00  0.00    -0.158 OA
ATOM      3  O   UNL     1      11.769   5.846  -3.245  0.00  0.00    -0.158 OA
BRANCH   1  23
ATOM     23  C   UNL     1      10.210   6.725  -1.340  0.00  0.00    +0.185 C 
BRANCH  23  25
ATOM     25  C   UNL     1       9.924   6.444   0.126  0.00  0.00    +0.021 C 
ATOM     26  C   UNL     1       9.745   7.732   0.914  0.00  0.00    +0.005 C 
ENDBRANCH  23  25
ENDBRANCH   1  23
ENDBRANCH   5   1
TORSDOF 4
ENDMDL
MODEL 4
REMARK VINA RESULT:      -5.8     27.023     29.567
REMARK  Name = 9421722
REMARK  5 active torsions:
REMARK  status: ('A' for Active; 'I' for Inactive)
REMARK    1  A    between atoms: S_1  and  N_5
REMARK    2  A    between atoms: S_1  and  C_23
REMARK    3  A    between atoms: C_14  and  C_15
REMARK    4  A    between atoms: C_23  and  C_25
REMARK    5  A    between atoms: C_25  and  C_26
REMARK                            x       y       z     vdW  Elec       q    Type
REMARK                         _______ _______ _______ _____ _____    ______ ____
ROOT
ATOM      4  O   UNL     1      -5.536 -13.265  15.768  0.00  0.00    -0.267 OA
ATOM      5  N   UNL     1      -9.512 -11.163  17.907  0.00  0.00    -0.180 NA
ATOM      6  N   UNL     1      -6.669 -12.525  17.670  0.00  0.00    -0.312 N 
ATOM      7  C   UNL     1      -8.901 -13.527  18.429  0.00  0.00    +0.025 C 
ATOM      8  C   UNL     1      -7.888 -11.696  19.713  0.00  0.00    +0.052 C 
ATOM      9  C   UNL     1      -8.452 -13.109  19.823  0.00  0.00    +0.017 C 
ATOM     10  C   UNL     1      -9.989 -12.575  17.903  0.00  0.00    +0.114 C 
ATOM     11  C   UNL     1      -8.992 -10.733  19.240  0.00  0.00    +0.118 C 
ATOM     12  C   UNL     1      -7.676 -13.582  17.507  0.00  0.00    +0.130 C 
ATOM     13  C   UNL     1      -6.707 -11.653  18.760  0.00  0.00    +0.026 A 
ATOM     15  C   UNL     1      -4.537 -11.485  16.958  0.00  0.00    +0.020 A 
ATOM     16  C   UNL     1      -5.618 -12.503  16.732  0.00  0.00    +0.255 A 
ATOM     17  C   UNL     1      -5.714 -10.769  18.949  0.00  0.00    +0.022 A 
ATOM     20  C   UNL     1      -4.616 -10.687  18.030  0.00  0.00    +0.011 A 
ENDROOT
BRANCH  15  14
ATOM     14  C   UNL     1      -3.413 -11.426  15.968  0.00  0.00    +0.024 C 
ATOM     18  C   UNL     1      -2.168 -10.780  16.592  0.00  0.00    +0.008 C 
ATOM     19  C   UNL     1      -3.840 -10.672  14.701  0.00  0.00    +0.008 C 
ATOM     21  C   UNL     1      -1.026 -10.666  15.586  0.00  0.00    +0.001 C 
ATOM     22  C   UNL     1      -2.693 -10.557  13.698  0.00  0.00    +0.001 C 
ATOM     24  C   UNL     1      -1.457  -9.922  14.326  0.00  0.00    +0.000 C 
ENDBRANCH  15  14
BRANCH   5   1
ATOM      1  S   UNL     1     -10.525 -10.037  17.111  0.00  0.00    +0.032 S 
ATOM      2  O   UNL     1     -10.414  -8.758  17.778  0.00  0.00    -0.158 OA
ATOM      3  O   UNL     1     -11.809 -10.657  16.866  0.00  0.00    -0.158 OA
BRANCH   1  23
ATOM     23  C   UNL     1      -9.664  -9.925  15.563  0.00  0.00    +0.185 C 
BRANCH  23  25
ATOM     25  C   UNL     1      -8.162  -9.825  15.772  0.00  0.00    +0.021 C 
ATOM     26  C   UNL     1      -7.399 -10.293  14.544  0.00  0.00    +0.005 C 
ENDBRANCH  23  25
ENDBRANCH   1  23
ENDBRANCH   5   1
TORSDOF 4
ENDMDL
MODEL 5
REMARK VINA RESULT:      -5.8     15.493     19.486
REMARK  Name = 9421722
REMARK  5 active torsions:
REMARK  status: ('A' for Active; 'I' for Inactive)
REMARK    1  A    between atoms: S_1  and  N_5
REMARK    2  A    between atoms: S_1  and  C_23
REMARK    3  A    between atoms: C_14  and  C_15
REMARK    4  A    between atoms: C_23  and  C_25
REMARK    5  A    between atoms: C_25  and  C_26
REMARK                            x       y       z     vdW  Elec       q    Type
REMARK                         _______ _______ _______ _____ _____    ______ ____
ROOT
ATOM      4  O   UNL     1      10.279   6.997   0.953  0.00  0.00    -0.267 OA
ATOM      5  N   UNL     1      10.932   7.372   5.876  0.00  0.00    -0.180 NA
ATOM      6  N   UNL     1       9.922   6.201   3.119  0.00  0.00    -0.312 N 
ATOM      7  C   UNL     1       8.643   7.538   4.891  0.00  0.00    +0.025 C 
ATOM      8  C   UNL     1       9.569   5.335   5.458  0.00  0.00    +0.052 C 
ATOM      9  C   UNL     1       8.293   6.171   5.464  0.00  0.00    +0.017 C 
ATOM     10  C   UNL     1       9.716   8.226   5.752  0.00  0.00    +0.114 C 
ATOM     11  C   UNL     1      10.623   5.995   6.365  0.00  0.00    +0.118 C 
ATOM     12  C   UNL     1       9.085   7.368   3.432  0.00  0.00    +0.130 C 
ATOM     13  C   UNL     1      10.110   5.176   4.049  0.00  0.00    +0.026 A 
ATOM     15  C   UNL     1      11.208   4.885   1.461  0.00  0.00    +0.020 A 
ATOM     16  C   UNL     1      10.436   6.125   1.810  0.00  0.00    +0.255 A 
ATOM     17  C   UNL     1      10.785   4.069   3.702  0.00  0.00    +0.022 A 
ATOM     20  C   UNL     1      11.341   3.927   2.388  0.00  0.00    +0.011 A 
ENDROOT
BRANCH  15  14
ATOM     14  C   UNL     1      11.781   4.781   0.080  0.00  0.00    +0.024 C 
ATOM     18  C   UNL     1      10.830   4.015  -0.850  0.00  0.00    +0.008 C 
ATOM     19  C   UNL     1      13.165   4.116   0.111  0.00  0.00    +0.008 C 
ATOM     21  C   UNL     1      11.417   3.855  -2.251  0.00  0.00    +0.001 C 
ATOM     22  C   UNL     1      13.747   3.955  -1.292  0.00  0.00    +0.001 C 
ATOM     24  C   UNL     1      12.794   3.201  -2.213  0.00  0.00    +0.000 C 
ENDBRANCH  15  14
BRANCH   5   1
ATOM      1  S   UNL     1      12.293   8.122   6.590  0.00  0.00    +0.032 S 
ATOM      2  O   UNL     1      13.033   7.129   7.339  0.00  0.00    -0.158 OA
ATOM      3  O   UNL     1      11.877   9.371   7.193  0.00  0.00    -0.158 OA
BRANCH   1  23
ATOM     23  C   UNL     1      13.214   8.501   5.122  0.00  0.00    +0.185 C 
BRANCH  23  25
ATOM     25  C   UNL     1      13.223   7.327   4.157  0.00  0.00    +0.021 C 
ATOM     26  C   UNL     1      13.553   7.774   2.742  0.00  0.00    +0.005 C 
ENDBRANCH  23  25
ENDBRANCH   1  23
ENDBRANCH   5   1
TORSDOF 4
ENDMDL
MODEL 6
REMARK VINA RESULT:      -5.7     16.907     20.189
REMARK  Name = 9421722
REMARK  5 active torsions:
REMARK  status: ('A' for Active; 'I' for Inactive)
REMARK    1  A    between atoms: S_1  and  N_5
REMARK    2  A    between atoms: S_1  and  C_23
REMARK    3  A    between atoms: C_14  and  C_15
REMARK    4  A    between atoms: C_23  and  C_25
REMARK    5  A    between atoms: C_25  and  C_26
REMARK                            x       y       z     vdW  Elec       q    Type
REMARK                         _______ _______ _______ _____ _____    ______ ____
ROOT
ATOM      4  O   UNL     1      12.301   7.606   3.211  0.00  0.00    -0.267 OA
ATOM      5  N   UNL     1      11.895   4.836  -0.908  0.00  0.00    -0.180 NA
ATOM      6  N   UNL     1      12.558   5.572   2.094  0.00  0.00    -0.312 N 
ATOM      7  C   UNL     1      14.137   5.279   0.099  0.00  0.00    +0.025 C 
ATOM      8  C   UNL     1      12.803   3.374   0.888  0.00  0.00    +0.052 C 
ATOM      9  C   UNL     1      14.221   3.831   0.560  0.00  0.00    +0.017 C 
ATOM     10  C   UNL     1      13.254   5.396  -1.155  0.00  0.00    +0.114 C 
ATOM     11  C   UNL     1      11.934   3.438  -0.381  0.00  0.00    +0.118 C 
ATOM     12  C   UNL     1      13.623   6.142   1.259  0.00  0.00    +0.130 C 
ATOM     13  C   UNL     1      12.196   4.227   1.987  0.00  0.00    +0.026 A 
ATOM     15  C   UNL     1      10.980   5.808   3.989  0.00  0.00    +0.020 A 
ATOM     16  C   UNL     1      11.998   6.421   3.069  0.00  0.00    +0.255 A 
ATOM     17  C   UNL     1      11.300   3.702   2.838  0.00  0.00    +0.022 A 
ATOM     20  C   UNL     1      10.685   4.509   3.851  0.00  0.00    +0.011 A 
ENDROOT
BRANCH  15  14
ATOM     14  C   UNL     1      10.353   6.690   5.027  0.00  0.00    +0.024 C 
ATOM     18  C   UNL     1      11.049   6.515   6.384  0.00  0.00    +0.008 C 
ATOM     19  C   UNL     1       8.849   6.408   5.147  0.00  0.00    +0.008 C 
ATOM     21  C   UNL     1      10.396   7.369   7.468  0.00  0.00    +0.001 C 
ATOM     22  C   UNL     1       8.199   7.261   6.235  0.00  0.00    +0.001 C 
ATOM     24  C   UNL     1       8.900   7.090   7.578  0.00  0.00    +0.000 C 
ENDBRANCH  15  14
BRANCH   5   1
ATOM      1  S   UNL     1      10.737   5.133  -2.131  0.00  0.00    +0.032 S 
ATOM      2  O   UNL     1      11.099   6.347  -2.831  0.00  0.00    -0.158 OA
ATOM      3  O   UNL     1       9.413   4.943  -1.577  0.00  0.00    -0.158 OA
BRANCH   1  23
ATOM     23  C   UNL     1      11.089   3.759  -3.197  0.00  0.00    +0.185 C 
BRANCH  23  25
ATOM     25  C   UNL     1       9.812   3.111  -3.705  0.00  0.00    +0.021 C 
ATOM     26  C   UNL     1       9.305   3.795  -4.964  0.00  0.00    +0.005 C 
ENDBRANCH  23  25
ENDBRANCH   1  23
ENDBRANCH   5   1
TORSDOF 4
ENDMDL
MODEL 7
REMARK VINA RESULT:      -5.7     22.050     24.165
REMARK  Name = 9421722
REMARK  5 active torsions:
REMARK  status: ('A' for Active; 'I' for Inactive)
REMARK    1  A    between atoms: S_1  and  N_5
REMARK    2  A    between atoms: S_1  and  C_23
REMARK    3  A    between atoms: C_14  and  C_15
REMARK    4  A    between atoms: C_23  and  C_25
REMARK    5  A    between atoms: C_25  and  C_26
REMARK                            x       y       z     vdW  Elec       q    Type
REMARK                         _______ _______ _______ _____ _____    ______ ____
ROOT
ATOM      4  O   UNL     1      -6.389  10.034   5.590  0.00  0.00    -0.267 OA
ATOM      5  N   UNL     1      -1.751  10.599   3.864  0.00  0.00    -0.180 NA
ATOM      6  N   UNL     1      -4.114   9.516   5.664  0.00  0.00    -0.312 N 
ATOM      7  C   UNL     1      -2.314  11.256   6.206  0.00  0.00    +0.025 C 
ATOM      8  C   UNL     1      -1.662   8.940   5.715  0.00  0.00    +0.052 C 
ATOM      9  C   UNL     1      -1.524  10.066   6.734  0.00  0.00    +0.017 C 
ATOM     10  C   UNL     1      -1.754  11.717   4.849  0.00  0.00    +0.114 C 
ATOM     11  C   UNL     1      -1.050   9.382   4.373  0.00  0.00    +0.118 C 
ATOM     12  C   UNL     1      -3.798  10.873   6.127  0.00  0.00    +0.130 C 
ATOM     13  C   UNL     1      -3.116   8.547   5.528  0.00  0.00    +0.026 A 
ATOM     15  C   UNL     1      -5.805   7.801   5.087  0.00  0.00    +0.020 A 
ATOM     16  C   UNL     1      -5.476   9.217   5.464  0.00  0.00    +0.255 A 
ATOM     17  C   UNL     1      -3.443   7.284   5.212  0.00  0.00    +0.022 A 
ATOM     20  C   UNL     1      -4.809   6.911   4.988  0.00  0.00    +0.011 A 
ENDROOT
BRANCH  15  14
ATOM     14  C   UNL     1      -7.245   7.456   4.852  0.00  0.00    +0.024 C 
ATOM     18  C   UNL     1      -7.532   6.004   5.260  0.00  0.00    +0.008 C 
ATOM     19  C   UNL     1      -7.631   7.694   3.385  0.00  0.00    +0.008 C 
ATOM     21  C   UNL     1      -8.983   5.616   4.983  0.00  0.00    +0.001 C 
ATOM     22  C   UNL     1      -9.082   7.302   3.111  0.00  0.00    +0.001 C 
ATOM     24  C   UNL     1      -9.363   5.862   3.527  0.00  0.00    +0.000 C 
ENDBRANCH  15  14
BRANCH   5   1
ATOM      1  S   UNL     1      -1.395  11.036   2.249  0.00  0.00    +0.032 S 
ATOM      2  O   UNL     1      -0.725   9.928   1.603  0.00  0.00    -0.158 OA
ATOM      3  O   UNL     1      -0.836  12.371   2.239  0.00  0.00    -0.158 OA
BRANCH   1  23
ATOM     23  C   UNL     1      -3.047  11.127   1.607  0.00  0.00    +0.185 C 
BRANCH  23  25
ATOM     25  C   UNL     1      -3.913  10.002   2.148  0.00  0.00    +0.021 C 
ATOM     26  C   UNL     1      -5.389  10.270   1.901  0.00  0.00    +0.005 C 
ENDBRANCH  23  25
ENDBRANCH   1  23
ENDBRANCH   5   1
TORSDOF 4
ENDMDL
MODEL 8
REMARK VINA RESULT:      -5.7     27.058     29.320
REMARK  Name = 9421722
REMARK  5 active torsions:
REMARK  status: ('A' for Active; 'I' for Inactive)
REMARK    1  A    between atoms: S_1  and  N_5
REMARK    2  A    between atoms: S_1  and  C_23
REMARK    3  A    between atoms: C_14  and  C_15
REMARK    4  A    between atoms: C_23  and  C_25
REMARK    5  A    between atoms: C_25  and  C_26
REMARK                            x       y       z     vdW  Elec       q    Type
REMARK                         _______ _______ _______ _____ _____    ______ ____
ROOT
ATOM      4  O   UNL     1      -5.425 -12.924  10.006  0.00  0.00    -0.267 OA
ATOM      5  N   UNL     1      -3.860 -11.533  14.525  0.00  0.00    -0.180 NA
ATOM      6  N   UNL     1      -3.754 -12.110  11.419  0.00  0.00    -0.312 N 
ATOM      7  C   UNL     1      -2.802 -13.475  13.366  0.00  0.00    +0.025 C 
ATOM      8  C   UNL     1      -1.968 -11.204  12.946  0.00  0.00    +0.052 C 
ATOM      9  C   UNL     1      -1.539 -12.656  13.137  0.00  0.00    +0.017 C 
ATOM     10  C   UNL     1      -3.543 -12.986  14.623  0.00  0.00    +0.114 C 
ATOM     11  C   UNL     1      -2.659 -10.698  14.225  0.00  0.00    +0.118 C 
ATOM     12  C   UNL     1      -3.677 -13.406  12.107  0.00  0.00    +0.130 C 
ATOM     13  C   UNL     1      -2.895 -11.061  11.753  0.00  0.00    +0.026 A 
ATOM     15  C   UNL     1      -4.670 -10.727   9.580  0.00  0.00    +0.020 A 
ATOM     16  C   UNL     1      -4.663 -12.018  10.347  0.00  0.00    +0.255 A 
ATOM     17  C   UNL     1      -2.908  -9.926  11.036  0.00  0.00    +0.022 A 
ATOM     20  C   UNL     1      -3.812  -9.761   9.935  0.00  0.00    +0.011 A 
ENDROOT
BRANCH  15  14
ATOM     14  C   UNL     1      -5.638 -10.592   8.444  0.00  0.00    +0.024 C 
ATOM     18  C   UNL     1      -4.936 -10.824   7.098  0.00  0.00    +0.008 C 
ATOM     19  C   UNL     1      -6.323  -9.218   8.469  0.00  0.00    +0.008 C 
ATOM     21  C   UNL     1      -5.894 -10.644   5.923  0.00  0.00    +0.001 C 
ATOM     22  C   UNL     1      -7.278  -9.040   7.290  0.00  0.00    +0.001 C 
ATOM     24  C   UNL     1      -6.577  -9.280   5.957  0.00  0.00    +0.000 C 
ENDBRANCH  15  14
BRANCH   5   1
ATOM      1  S   UNL     1      -4.903 -10.920  15.735  0.00  0.00    +0.032 S 
ATOM      2  O   UNL     1      -4.126 -10.125  16.661  0.00  0.00    -0.158 OA
ATOM      3  O   UNL     1      -5.767 -11.988  16.192  0.00  0.00    -0.158 OA
BRANCH   1  23
ATOM     23  C   UNL     1      -5.874  -9.815  14.742  0.00  0.00    +0.185 C 
BRANCH  23  25
ATOM     25  C   UNL     1      -6.184 -10.421  13.384  0.00  0.00    +0.021 C 
ATOM     26  C   UNL     1      -6.568  -9.352  12.374  0.00  0.00    +0.005 C 
ENDBRANCH  23  25
ENDBRANCH   1  23
ENDBRANCH   5   1
TORSDOF 4
ENDMDL
MODEL 9
REMARK VINA RESULT:      -5.6      3.462      6.449
REMARK  Name = 9421722
REMARK  5 active torsions:
REMARK  status: ('A' for Active; 'I' for Inactive)
REMARK    1  A    between atoms: S_1  and  N_5
REMARK    2  A    between atoms: S_1  and  C_23
REMARK    3  A    between atoms: C_14  and  C_15
REMARK    4  A    between atoms: C_23  and  C_25
REMARK    5  A    between atoms: C_25  and  C_26
REMARK                            x       y       z     vdW  Elec       q    Type
REMARK                         _______ _______ _______ _____ _____    ______ ____
ROOT
ATOM      4  O   UNL     1      17.549   6.391  20.898  0.00  0.00    -0.267 OA
ATOM      5  N   UNL     1      13.533   8.493  18.836  0.00  0.00    -0.180 NA
ATOM      6  N   UNL     1      15.639   7.722  21.064  0.00  0.00    -0.312 N 
ATOM      7  C   UNL     1      13.278   6.812  20.664  0.00  0.00    +0.025 C 
ATOM      8  C   UNL     1      13.592   9.182  21.225  0.00  0.00    +0.052 C 
ATOM      9  C   UNL     1      12.845   7.913  21.623  0.00  0.00    +0.017 C 
ATOM     10  C   UNL     1      12.924   7.186  19.215  0.00  0.00    +0.114 C 
ATOM     11  C   UNL     1      13.194   9.588  19.794  0.00  0.00    +0.118 C 
ATOM     12  C   UNL     1      14.779   6.551  20.851  0.00  0.00    +0.130 C 
ATOM     13  C   UNL     1      15.094   8.983  21.319  0.00  0.00    +0.026 A 
ATOM     15  C   UNL     1      17.900   8.669  21.415  0.00  0.00    +0.020 A 
ATOM     16  C   UNL     1      17.027   7.489  21.098  0.00  0.00    +0.255 A 
ATOM     17  C   UNL     1      15.897  10.015  21.622  0.00  0.00    +0.022 A 
ATOM     20  C   UNL     1      17.321   9.850  21.668  0.00  0.00    +0.011 A 
ENDROOT
BRANCH  15  14
ATOM     14  C   UNL     1      19.384   8.456  21.443  0.00  0.00    +0.024 C 
ATOM     18  C   UNL     1      19.836   7.940  22.816  0.00  0.00    +0.008 C 
ATOM     19  C   UNL     1      20.128   9.748  21.076  0.00  0.00    +0.008 C 
ATOM     21  C   UNL     1      21.351   7.762  22.882  0.00  0.00    +0.001 C 
ATOM     22  C   UNL     1      21.643   9.567  21.146  0.00  0.00    +0.001 C 
ATOM     24  C   UNL     1      22.085   9.046  22.509  0.00  0.00    +0.000 C 
ENDBRANCH  15  14
BRANCH   5   1
ATOM      1  S   UNL     1      13.432   8.904  17.178  0.00  0.00    +0.032 S 
ATOM      2  O   UNL     1      12.098   9.389  16.899  0.00  0.00    -0.158 OA
ATOM      3  O   UNL     1      14.033   7.844  16.397  0.00  0.00    -0.158 OA
BRANCH   1  23
ATOM     23  C   UNL     1      14.536  10.293  17.161  0.00  0.00    +0.185 C 
BRANCH  23  25
ATOM     25  C   UNL     1      14.352  11.129  15.905  0.00  0.00    +0.021 C 
ATOM     26  C   UNL     1      15.415  10.811  14.866  0.00  0.00    +0.005 C 
ENDBRANCH  23  25
ENDBRANCH   1  23
ENDBRANCH   5   1
TORSDOF 4
ENDMDL
MODEL 10
REMARK VINA RESULT:      -5.5     21.522     23.969
REMARK  Name = 9421722
REMARK  5 active torsions:
REMARK  status: ('A' for Active; 'I' for Inactive)
REMARK    1  A    between atoms: S_1  and  N_5
REMARK    2  A    between atoms: S_1  and  C_23
REMARK    3  A    between atoms: C_14  and  C_15
REMARK    4  A    between atoms: C_23  and  C_25
REMARK    5  A    between atoms: C_25  and  C_26
REMARK                            x       y       z     vdW  Elec       q    Type
REMARK                         _______ _______ _______ _____ _____    ______ ____
ROOT
ATOM      4  O   UNL     1       9.526  -9.573  33.313  0.00  0.00    -0.267 OA
ATOM      5  N   UNL     1       8.079  -5.865  36.306  0.00  0.00    -0.180 NA
ATOM      6  N   UNL     1       8.707  -7.408  33.620  0.00  0.00    -0.312 N 
ATOM      7  C   UNL     1      10.050  -5.575  34.801  0.00  0.00    +0.025 C 
ATOM      8  C   UNL     1       7.795  -5.085  33.961  0.00  0.00    +0.052 C 
ATOM      9  C   UNL     1       9.248  -4.622  33.926  0.00  0.00    +0.017 C 
ATOM     10  C   UNL     1       9.533  -5.544  36.249  0.00  0.00    +0.114 C 
ATOM     11  C   UNL     1       7.261  -5.000  35.403  0.00  0.00    +0.118 C 
ATOM     12  C   UNL     1       9.992  -6.981  34.189  0.00  0.00    +0.130 C 
ATOM     13  C   UNL     1       7.661  -6.502  33.432  0.00  0.00    +0.026 A 
ATOM     15  C   UNL     1       7.344  -9.154  32.511  0.00  0.00    +0.020 A 
ATOM     16  C   UNL     1       8.623  -8.746  33.184  0.00  0.00    +0.255 A 
ATOM     17  C   UNL     1       6.538  -6.889  32.807  0.00  0.00    +0.022 A 
ATOM     20  C   UNL     1       6.382  -8.237  32.343  0.00  0.00    +0.011 A 
ENDROOT
BRANCH  15  14
ATOM     14  C   UNL     1       7.217 -10.575  32.051  0.00  0.00    +0.024 C 
ATOM     18  C   UNL     1       6.786 -10.636  30.579  0.00  0.00    +0.008 C 
ATOM     19  C   UNL     1       6.233 -11.351  32.938  0.00  0.00    +0.008 C 
ATOM     21  C   UNL     1       6.605 -12.076  30.102  0.00  0.00    +0.001 C 
ATOM     22  C   UNL     1       6.051 -12.790  32.456  0.00  0.00    +0.001 C 
ATOM     24  C   UNL     1       5.632 -12.844  30.991  0.00  0.00    +0.000 C 
ENDBRANCH  15  14
BRANCH   5   1
ATOM      1  S   UNL     1       7.436  -6.115  37.871  0.00  0.00    +0.032 S 
ATOM      2  O   UNL     1       6.842  -4.880  38.334  0.00  0.00    -0.158 OA
ATOM      3  O   UNL     1       8.409  -6.834  38.666  0.00  0.00    -0.158 OA
BRANCH   1  23
ATOM     23  C   UNL     1       6.123  -7.237  37.464  0.00  0.00    +0.185 C 
BRANCH  23  25
ATOM     25  C   UNL     1       6.599  -8.325  36.516  0.00  0.00    +0.021 C 
ATOM     26  C   UNL     1       5.435  -8.960  35.772  0.00  0.00    +0.005 C 
ENDBRANCH  23  25
ENDBRANCH   1  23
ENDBRANCH   5   1
TORSDOF 4
ENDMDL
