MODEL 1
REMARK VINA RESULT:      -5.8      0.000      0.000
REMARK  Name = 75367746
REMARK  8 active torsions:
REMARK  status: ('A' for Active; 'I' for Inactive)
REMARK    1  A    between atoms: S_1  and  N_8
REMARK    2  A    between atoms: S_1  and  C_14
REMARK    3  A    between atoms: O_3  and  C_10
REMARK    4  A    between atoms: O_3  and  C_15
REMARK    5  A    between atoms: O_6  and  C_20
REMARK    6  A    between atoms: O_6  and  C_26
REMARK    7  A    between atoms: O_7  and  C_25
REMARK    8  A    between atoms: O_7  and  C_27
REMARK                            x       y       z     vdW  Elec       q    Type
REMARK                         _______ _______ _______ _____ _____    ______ ____
ROOT
ATOM      2  O   UNL     1     -18.238   6.499  32.217  0.00  0.00    -0.375 OA
ATOM      8  N   UNL     1     -15.628   4.895  32.281  0.00  0.00    -0.171 NA
ATOM      9  C   UNL     1     -16.790   4.019  31.942  0.00  0.00    +0.156 C 
ATOM     10  C   UNL     1     -17.537   4.602  30.745  0.00  0.00    +0.215 C 
ATOM     11  C   UNL     1     -15.998   6.140  33.017  0.00  0.00    +0.137 C 
ATOM     12  C   UNL     1     -18.578   5.660  31.121  0.00  0.00    +0.205 C 
ATOM     13  C   UNL     1     -16.918   7.026  32.187  0.00  0.00    +0.177 C 
ENDROOT
BRANCH   8   1
ATOM      1  S   UNL     1     -14.249   4.077  32.895  0.00  0.00    +0.061 S 
ATOM      4  O   UNL     1     -14.497   3.709  34.270  0.00  0.00    -0.153 OA
ATOM      5  O   UNL     1     -13.065   4.816  32.518  0.00  0.00    -0.153 OA
BRANCH   1  14
ATOM     14  C   UNL     1     -14.308   2.607  31.920  0.00  0.00    +0.106 A 
ATOM     16  C   UNL     1     -14.743   1.411  32.487  0.00  0.00    +0.032 A 
ATOM     17  C   UNL     1     -13.920   2.644  30.580  0.00  0.00    +0.032 A 
ATOM     18  C   UNL     1     -14.792   0.249  31.715  0.00  0.00    +0.047 A 
ATOM     19  C   UNL     1     -13.968   1.483  29.807  0.00  0.00    +0.047 A 
ATOM     20  C   UNL     1     -14.404   0.286  30.375  0.00  0.00    +0.120 A 
BRANCH  20   6
ATOM      6  O   UNL     1     -14.452  -0.847  29.622  0.00  0.00    -0.495 OA
ATOM     26  C   UNL     1     -13.211  -1.346  29.124  0.00  0.00    +0.277 C 
ENDBRANCH  20   6
ENDBRANCH   1  14
ENDBRANCH   8   1
BRANCH  10   3
ATOM      3  O   UNL     1     -18.194   3.542  30.052  0.00  0.00    -0.485 OA
BRANCH   3  15
ATOM     15  C   UNL     1     -17.667   3.186  28.840  0.00  0.00    +0.121 A 
ATOM     21  C   UNL     1     -17.744   1.862  28.409  0.00  0.00    +0.049 A 
ATOM     22  C   UNL     1     -17.054   4.148  28.037  0.00  0.00    +0.049 A 
ATOM     23  C   UNL     1     -17.207   1.500  27.173  0.00  0.00    +0.049 A 
ATOM     24  C   UNL     1     -16.517   3.785  26.801  0.00  0.00    +0.049 A 
ATOM     25  C   UNL     1     -16.594   2.461  26.370  0.00  0.00    +0.120 A 
BRANCH  25   7
ATOM      7  O   UNL     1     -16.069   2.107  25.164  0.00  0.00    -0.495 OA
ATOM     27  C   UNL     1     -16.911   2.256  24.021  0.00  0.00    +0.277 C 
ENDBRANCH  25   7
ENDBRANCH   3  15
ENDBRANCH  10   3
TORSDOF 6
ENDMDL
MODEL 2
REMARK VINA RESULT:      -5.8     11.203     15.357
REMARK  Name = 75367746
REMARK  8 active torsions:
REMARK  status: ('A' for Active; 'I' for Inactive)
REMARK    1  A    between atoms: S_1  and  N_8
REMARK    2  A    between atoms: S_1  and  C_14
REMARK    3  A    between atoms: O_3  and  C_10
REMARK    4  A    between atoms: O_3  and  C_15
REMARK    5  A    between atoms: O_6  and  C_20
REMARK    6  A    between atoms: O_6  and  C_26
REMARK    7  A    between atoms: O_7  and  C_25
REMARK    8  A    between atoms: O_7  and  C_27
REMARK                            x       y       z     vdW  Elec       q    Type
REMARK                         _______ _______ _______ _____ _____    ______ ____
ROOT
ATOM      2  O   UNL     1     -10.062  11.160  18.026  0.00  0.00    -0.375 OA
ATOM      8  N   UNL     1     -11.212   9.405  15.792  0.00  0.00    -0.171 NA
ATOM      9  C   UNL     1     -10.542   8.575  16.838  0.00  0.00    +0.156 C 
ATOM     10  C   UNL     1     -11.132   8.906  18.207  0.00  0.00    +0.215 C 
ATOM     11  C   UNL     1     -10.738  10.821  15.742  0.00  0.00    +0.137 C 
ATOM     12  C   UNL     1     -10.475  10.109  18.889  0.00  0.00    +0.205 C 
ATOM     13  C   UNL     1     -11.021  11.549  17.050  0.00  0.00    +0.177 C 
ENDROOT
BRANCH   8   1
ATOM      1  S   UNL     1     -11.389   8.651  14.261  0.00  0.00    +0.061 S 
ATOM      4  O   UNL     1     -10.483   7.527  14.184  0.00  0.00    -0.153 OA
ATOM      5  O   UNL     1     -11.405   9.672  13.238  0.00  0.00    -0.153 OA
BRANCH   1  14
ATOM     14  C   UNL     1     -13.029   8.017  14.422  0.00  0.00    +0.106 A 
ATOM     16  C   UNL     1     -13.768   8.280  15.574  0.00  0.00    +0.032 A 
ATOM     17  C   UNL     1     -13.584   7.253  13.395  0.00  0.00    +0.032 A 
ATOM     18  C   UNL     1     -15.066   7.781  15.699  0.00  0.00    +0.047 A 
ATOM     19  C   UNL     1     -14.881   6.753  13.521  0.00  0.00    +0.047 A 
ATOM     20  C   UNL     1     -15.621   7.018  14.673  0.00  0.00    +0.120 A 
BRANCH  20   6
ATOM      6  O   UNL     1     -16.886   6.531  14.796  0.00  0.00    -0.495 OA
ATOM     26  C   UNL     1     -17.028   5.237  15.382  0.00  0.00    +0.277 C 
ENDBRANCH  20   6
ENDBRANCH   1  14
ENDBRANCH   8   1
BRANCH  10   3
ATOM      3  O   UNL     1     -10.993   7.768  19.056  0.00  0.00    -0.485 OA
BRANCH   3  15
ATOM     15  C   UNL     1     -12.111   7.375  19.740  0.00  0.00    +0.121 A 
ATOM     21  C   UNL     1     -13.375   7.736  19.277  0.00  0.00    +0.049 A 
ATOM     22  C   UNL     1     -11.984   6.614  20.903  0.00  0.00    +0.049 A 
ATOM     23  C   UNL     1     -14.514   7.334  19.975  0.00  0.00    +0.049 A 
ATOM     24  C   UNL     1     -13.123   6.213  21.601  0.00  0.00    +0.049 A 
ATOM     25  C   UNL     1     -14.388   6.573  21.137  0.00  0.00    +0.120 A 
BRANCH  25   7
ATOM      7  O   UNL     1     -15.500   6.183  21.819  0.00  0.00    -0.495 OA
ATOM     27  C   UNL     1     -15.302   5.346  22.958  0.00  0.00    +0.277 C 
ENDBRANCH  25   7
ENDBRANCH   3  15
ENDBRANCH  10   3
TORSDOF 6
ENDMDL
MODEL 3
REMARK VINA RESULT:      -5.7     20.000     23.926
REMARK  Name = 75367746
REMARK  8 active torsions:
REMARK  status: ('A' for Active; 'I' for Inactive)
REMARK    1  A    between atoms: S_1  and  N_8
REMARK    2  A    between atoms: S_1  and  C_14
REMARK    3  A    between atoms: O_3  and  C_10
REMARK    4  A    between atoms: O_3  and  C_15
REMARK    5  A    between atoms: O_6  and  C_20
REMARK    6  A    between atoms: O_6  and  C_26
REMARK    7  A    between atoms: O_7  and  C_25
REMARK    8  A    between atoms: O_7  and  C_27
REMARK                            x       y       z     vdW  Elec       q    Type
REMARK                         _______ _______ _______ _____ _____    ______ ____
ROOT
ATOM      2  O   UNL     1      -3.626 -14.533  14.983  0.00  0.00    -0.375 OA
ATOM      8  N   UNL     1      -5.150 -12.411  16.584  0.00  0.00    -0.171 NA
ATOM      9  C   UNL     1      -3.817 -11.898  16.144  0.00  0.00    +0.156 C 
ATOM     10  C   UNL     1      -3.684 -12.057  14.631  0.00  0.00    +0.215 C 
ATOM     11  C   UNL     1      -5.239 -13.900  16.652  0.00  0.00    +0.137 C 
ATOM     12  C   UNL     1      -3.182 -13.436  14.196  0.00  0.00    +0.205 C 
ATOM     13  C   UNL     1      -5.016 -14.534  15.285  0.00  0.00    +0.177 C 
ENDROOT
BRANCH   8   1
ATOM      1  S   UNL     1      -5.847 -11.586  17.918  0.00  0.00    +0.061 S 
ATOM      4  O   UNL     1      -4.862 -10.692  18.483  0.00  0.00    -0.153 OA
ATOM      5  O   UNL     1      -6.550 -12.544  18.742  0.00  0.00    -0.153 OA
BRANCH   1  14
ATOM     14  C   UNL     1      -7.049 -10.606  17.075  0.00  0.00    +0.106 A 
ATOM     16  C   UNL     1      -7.225 -10.748  15.700  0.00  0.00    +0.032 A 
ATOM     17  C   UNL     1      -7.824  -9.690  17.787  0.00  0.00    +0.032 A 
ATOM     18  C   UNL     1      -8.178  -9.975  15.035  0.00  0.00    +0.047 A 
ATOM     19  C   UNL     1      -8.777  -8.916  17.122  0.00  0.00    +0.047 A 
ATOM     20  C   UNL     1      -8.953  -9.059  15.747  0.00  0.00    +0.120 A 
BRANCH  20   6
ATOM      6  O   UNL     1      -9.882  -8.305  15.097  0.00  0.00    -0.495 OA
ATOM     26  C   UNL     1     -10.268  -7.078  15.716  0.00  0.00    +0.277 C 
ENDBRANCH  20   6
ENDBRANCH   1  14
ENDBRANCH   8   1
BRANCH  10   3
ATOM      3  O   UNL     1      -2.780 -11.067  14.143  0.00  0.00    -0.485 OA
BRANCH   3  15
ATOM     15  C   UNL     1      -3.073 -10.520  12.923  0.00  0.00    +0.121 A 
ATOM     21  C   UNL     1      -2.044 -10.188  12.043  0.00  0.00    +0.049 A 
ATOM     22  C   UNL     1      -4.401 -10.293  12.563  0.00  0.00    +0.049 A 
ATOM     23  C   UNL     1      -2.344  -9.631  10.799  0.00  0.00    +0.049 A 
ATOM     24  C   UNL     1      -4.701  -9.735  11.319  0.00  0.00    +0.049 A 
ATOM     25  C   UNL     1      -3.672  -9.404  10.438  0.00  0.00    +0.120 A 
BRANCH  25   7
ATOM      7  O   UNL     1      -3.964  -8.859   9.225  0.00  0.00    -0.495 OA
ATOM     27  C   UNL     1      -4.917  -9.547   8.417  0.00  0.00    +0.277 C 
ENDBRANCH  25   7
ENDBRANCH   3  15
ENDBRANCH  10   3
TORSDOF 6
ENDMDL
MODEL 4
REMARK VINA RESULT:      -5.6     24.538     27.872
REMARK  Name = 75367746
REMARK  8 active torsions:
REMARK  status: ('A' for Active; 'I' for Inactive)
REMARK    1  A    between atoms: S_1  and  N_8
REMARK    2  A    between atoms: S_1  and  C_14
REMARK    3  A    between atoms: O_3  and  C_10
REMARK    4  A    between atoms: O_3  and  C_15
REMARK    5  A    between atoms: O_6  and  C_20
REMARK    6  A    between atoms: O_6  and  C_26
REMARK    7  A    between atoms: O_7  and  C_25
REMARK    8  A    between atoms: O_7  and  C_27
REMARK                            x       y       z     vdW  Elec       q    Type
REMARK                         _______ _______ _______ _____ _____    ______ ____
ROOT
ATOM      2  O   UNL     1      -9.640   8.901   7.775  0.00  0.00    -0.375 OA
ATOM      8  N   UNL     1      -7.643   8.194   5.561  0.00  0.00    -0.171 NA
ATOM      9  C   UNL     1      -7.729   9.673   5.756  0.00  0.00    +0.156 C 
ATOM     10  C   UNL     1      -7.467  10.010   7.222  0.00  0.00    +0.215 C 
ATOM     11  C   UNL     1      -8.847   7.446   6.031  0.00  0.00    +0.137 C 
ATOM     12  C   UNL     1      -8.713   9.926   8.108  0.00  0.00    +0.205 C 
ATOM     13  C   UNL     1      -9.064   7.624   7.528  0.00  0.00    +0.177 C 
ENDROOT
BRANCH   8   1
ATOM      1  S   UNL     1      -7.030   7.690   4.039  0.00  0.00    +0.061 S 
ATOM      4  O   UNL     1      -7.587   8.535   3.007  0.00  0.00    -0.153 OA
ATOM      5  O   UNL     1      -7.118   6.249   3.956  0.00  0.00    -0.153 OA
BRANCH   1  14
ATOM     14  C   UNL     1      -5.331   8.122   4.237  0.00  0.00    +0.106 A 
ATOM     16  C   UNL     1      -4.815   9.241   3.586  0.00  0.00    +0.032 A 
ATOM     17  C   UNL     1      -4.504   7.343   5.047  0.00  0.00    +0.032 A 
ATOM     18  C   UNL     1      -3.471   9.584   3.745  0.00  0.00    +0.047 A 
ATOM     19  C   UNL     1      -3.160   7.685   5.205  0.00  0.00    +0.047 A 
ATOM     20  C   UNL     1      -2.644   8.805   4.555  0.00  0.00    +0.120 A 
BRANCH  20   6
ATOM      6  O   UNL     1      -1.334   9.139   4.709  0.00  0.00    -0.495 OA
ATOM     26  C   UNL     1      -0.660   9.662   3.565  0.00  0.00    +0.277 C 
ENDBRANCH  20   6
ENDBRANCH   1  14
ENDBRANCH   8   1
BRANCH  10   3
ATOM      3  O   UNL     1      -6.939  11.333   7.302  0.00  0.00    -0.485 OA
BRANCH   3  15
ATOM     15  C   UNL     1      -5.589  11.465   7.115  0.00  0.00    +0.121 A 
ATOM     21  C   UNL     1      -5.101  12.384   6.188  0.00  0.00    +0.049 A 
ATOM     22  C   UNL     1      -4.704  10.678   7.852  0.00  0.00    +0.049 A 
ATOM     23  C   UNL     1      -3.725  12.518   5.998  0.00  0.00    +0.049 A 
ATOM     24  C   UNL     1      -3.328  10.812   7.662  0.00  0.00    +0.049 A 
ATOM     25  C   UNL     1      -2.840  11.733   6.735  0.00  0.00    +0.120 A 
BRANCH  25   7
ATOM      7  O   UNL     1      -1.497  11.863   6.548  0.00  0.00    -0.495 OA
ATOM     27  C   UNL     1      -0.648  11.045   7.353  0.00  0.00    +0.277 C 
ENDBRANCH  25   7
ENDBRANCH   3  15
ENDBRANCH  10   3
TORSDOF 6
ENDMDL
MODEL 5
REMARK VINA RESULT:      -5.5     18.597     22.566
REMARK  Name = 75367746
REMARK  8 active torsions:
REMARK  status: ('A' for Active; 'I' for Inactive)
REMARK    1  A    between atoms: S_1  and  N_8
REMARK    2  A    between atoms: S_1  and  C_14
REMARK    3  A    between atoms: O_3  and  C_10
REMARK    4  A    between atoms: O_3  and  C_15
REMARK    5  A    between atoms: O_6  and  C_20
REMARK    6  A    between atoms: O_6  and  C_26
REMARK    7  A    between atoms: O_7  and  C_25
REMARK    8  A    between atoms: O_7  and  C_27
REMARK                            x       y       z     vdW  Elec       q    Type
REMARK                         _______ _______ _______ _____ _____    ______ ____
ROOT
ATOM      2  O   UNL     1      -5.280 -14.201  16.625  0.00  0.00    -0.375 OA
ATOM      8  N   UNL     1      -6.808 -11.939  18.018  0.00  0.00    -0.171 NA
ATOM      9  C   UNL     1      -5.383 -11.557  17.777  0.00  0.00    +0.156 C 
ATOM     10  C   UNL     1      -5.053 -11.732  16.297  0.00  0.00    +0.215 C 
ATOM     11  C   UNL     1      -7.046 -13.413  18.056  0.00  0.00    +0.137 C 
ATOM     12  C   UNL     1      -4.627 -13.153  15.921  0.00  0.00    +0.205 C 
ATOM     13  C   UNL     1      -6.692 -14.068  16.728  0.00  0.00    +0.177 C 
ENDROOT
BRANCH   8   1
ATOM      1  S   UNL     1      -7.606 -11.048  19.249  0.00  0.00    +0.061 S 
ATOM      4  O   UNL     1      -6.650 -10.173  19.889  0.00  0.00    -0.153 OA
ATOM      5  O   UNL     1      -8.427 -11.954  20.021  0.00  0.00    -0.153 OA
BRANCH   1  14
ATOM     14  C   UNL     1      -8.676 -10.052  18.260  0.00  0.00    +0.106 A 
ATOM     16  C   UNL     1     -10.047 -10.037  18.512  0.00  0.00    +0.032 A 
ATOM     17  C   UNL     1      -8.148  -9.279  17.225  0.00  0.00    +0.032 A 
ATOM     18  C   UNL     1     -10.891  -9.247  17.731  0.00  0.00    +0.047 A 
ATOM     19  C   UNL     1      -8.992  -8.490  16.443  0.00  0.00    +0.047 A 
ATOM     20  C   UNL     1     -10.363  -8.474  16.696  0.00  0.00    +0.120 A 
BRANCH  20   6
ATOM      6  O   UNL     1     -11.188  -7.704  15.934  0.00  0.00    -0.495 OA
ATOM     26  C   UNL     1     -10.865  -6.318  15.827  0.00  0.00    +0.277 C 
ENDBRANCH  20   6
ENDBRANCH   1  14
ENDBRANCH   8   1
BRANCH  10   3
ATOM      3  O   UNL     1      -3.999 -10.833  15.953  0.00  0.00    -0.485 OA
BRANCH   3  15
ATOM     15  C   UNL     1      -3.734 -10.684  14.618  0.00  0.00    +0.121 A 
ATOM     21  C   UNL     1      -4.780 -10.492  13.717  0.00  0.00    +0.049 A 
ATOM     22  C   UNL     1      -2.416 -10.724  14.161  0.00  0.00    +0.049 A 
ATOM     23  C   UNL     1      -4.509 -10.340  12.357  0.00  0.00    +0.049 A 
ATOM     24  C   UNL     1      -2.145 -10.571  12.801  0.00  0.00    +0.049 A 
ATOM     25  C   UNL     1      -3.192 -10.379  11.899  0.00  0.00    +0.120 A 
BRANCH  25   7
ATOM      7  O   UNL     1      -2.928 -10.231  10.572  0.00  0.00    -0.495 OA
ATOM     27  C   UNL     1      -3.477  -9.084   9.925  0.00  0.00    +0.277 C 
ENDBRANCH  25   7
ENDBRANCH   3  15
ENDBRANCH  10   3
TORSDOF 6
ENDMDL
MODEL 6
REMARK VINA RESULT:      -5.5     19.011     22.502
REMARK  Name = 75367746
REMARK  8 active torsions:
REMARK  status: ('A' for Active; 'I' for Inactive)
REMARK    1  A    between atoms: S_1  and  N_8
REMARK    2  A    between atoms: S_1  and  C_14
REMARK    3  A    between atoms: O_3  and  C_10
REMARK    4  A    between atoms: O_3  and  C_15
REMARK    5  A    between atoms: O_6  and  C_20
REMARK    6  A    between atoms: O_6  and  C_26
REMARK    7  A    between atoms: O_7  and  C_25
REMARK    8  A    between atoms: O_7  and  C_27
REMARK                            x       y       z     vdW  Elec       q    Type
REMARK                         _______ _______ _______ _____ _____    ______ ____
ROOT
ATOM      2  O   UNL     1     -10.500  -8.540  16.002  0.00  0.00    -0.375 OA
ATOM      8  N   UNL     1      -8.230 -10.250  17.148  0.00  0.00    -0.171 NA
ATOM      9  C   UNL     1      -8.692 -10.782  15.830  0.00  0.00    +0.156 C 
ATOM     10  C   UNL     1      -8.632  -9.672  14.783  0.00  0.00    +0.215 C 
ATOM     11  C   UNL     1      -9.245  -9.415  17.858  0.00  0.00    +0.137 C 
ATOM     12  C   UNL     1      -9.881  -8.788  14.747  0.00  0.00    +0.205 C 
ATOM     13  C   UNL     1      -9.611  -8.176  17.050  0.00  0.00    +0.177 C 
ENDROOT
BRANCH   8   1
ATOM      1  S   UNL     1      -7.400 -11.376  18.142  0.00  0.00    +0.061 S 
ATOM      4  O   UNL     1      -8.008 -12.678  17.983  0.00  0.00    -0.153 OA
ATOM      5  O   UNL     1      -7.213 -10.792  19.451  0.00  0.00    -0.153 OA
BRANCH   1  14
ATOM     14  C   UNL     1      -5.834 -11.405  17.329  0.00  0.00    +0.106 A 
ATOM     16  C   UNL     1      -5.415 -12.554  16.662  0.00  0.00    +0.032 A 
ATOM     17  C   UNL     1      -5.017 -10.274  17.352  0.00  0.00    +0.032 A 
ATOM     18  C   UNL     1      -4.178 -12.575  16.016  0.00  0.00    +0.047 A 
ATOM     19  C   UNL     1      -3.779 -10.295  16.708  0.00  0.00    +0.047 A 
ATOM     20  C   UNL     1      -3.360 -11.445  16.040  0.00  0.00    +0.120 A 
BRANCH  20   6
ATOM      6  O   UNL     1      -2.154 -11.465  15.410  0.00  0.00    -0.495 OA
ATOM     26  C   UNL     1      -1.342 -10.297  15.526  0.00  0.00    +0.277 C 
ENDBRANCH  20   6
ENDBRANCH   1  14
ENDBRANCH   8   1
BRANCH  10   3
ATOM      3  O   UNL     1      -8.453 -10.263  13.497  0.00  0.00    -0.485 OA
BRANCH   3  15
ATOM     15  C   UNL     1      -7.218 -10.120  12.924  0.00  0.00    +0.121 A 
ATOM     21  C   UNL     1      -6.157 -10.920  13.346  0.00  0.00    +0.049 A 
ATOM     22  C   UNL     1      -7.023  -9.172  11.919  0.00  0.00    +0.049 A 
ATOM     23  C   UNL     1      -4.899 -10.773  12.761  0.00  0.00    +0.049 A 
ATOM     24  C   UNL     1      -5.765  -9.026  11.335  0.00  0.00    +0.049 A 
ATOM     25  C   UNL     1      -4.703  -9.826  11.756  0.00  0.00    +0.120 A 
BRANCH  25   7
ATOM      7  O   UNL     1      -3.475  -9.683  11.186  0.00  0.00    -0.495 OA
ATOM     27  C   UNL     1      -2.374 -10.298  11.854  0.00  0.00    +0.277 C 
ENDBRANCH  25   7
ENDBRANCH   3  15
ENDBRANCH  10   3
TORSDOF 6
ENDMDL
MODEL 7
REMARK VINA RESULT:      -5.5     32.626     34.616
REMARK  Name = 75367746
REMARK  8 active torsions:
REMARK  status: ('A' for Active; 'I' for Inactive)
REMARK    1  A    between atoms: S_1  and  N_8
REMARK    2  A    between atoms: S_1  and  C_14
REMARK    3  A    between atoms: O_3  and  C_10
REMARK    4  A    between atoms: O_3  and  C_15
REMARK    5  A    between atoms: O_6  and  C_20
REMARK    6  A    between atoms: O_6  and  C_26
REMARK    7  A    between atoms: O_7  and  C_25
REMARK    8  A    between atoms: O_7  and  C_27
REMARK                            x       y       z     vdW  Elec       q    Type
REMARK                         _______ _______ _______ _____ _____    ______ ____
ROOT
ATOM      2  O   UNL     1      20.894   7.432  23.200  0.00  0.00    -0.375 OA
ATOM      8  N   UNL     1      19.024   9.654  22.222  0.00  0.00    -0.171 NA
ATOM      9  C   UNL     1      19.133   8.560  21.211  0.00  0.00    +0.156 C 
ATOM     10  C   UNL     1      18.787   7.224  21.867  0.00  0.00    +0.215 C 
ATOM     11  C   UNL     1      20.178   9.729  23.167  0.00  0.00    +0.137 C 
ATOM     12  C   UNL     1      19.972   6.554  22.567  0.00  0.00    +0.205 C 
ATOM     13  C   UNL     1      20.304   8.455  23.993  0.00  0.00    +0.177 C 
ENDROOT
BRANCH   8   1
ATOM      1  S   UNL     1      18.497  11.168  21.608  0.00  0.00    +0.061 S 
ATOM      4  O   UNL     1      19.085  11.375  20.303  0.00  0.00    -0.153 OA
ATOM      5  O   UNL     1      18.619  12.162  22.651  0.00  0.00    -0.153 OA
BRANCH   1  14
ATOM     14  C   UNL     1      16.781  10.824  21.381  0.00  0.00    +0.106 A 
ATOM     16  C   UNL     1      15.938  10.719  22.487  0.00  0.00    +0.032 A 
ATOM     17  C   UNL     1      16.267  10.660  20.095  0.00  0.00    +0.032 A 
ATOM     18  C   UNL     1      14.581  10.450  22.307  0.00  0.00    +0.047 A 
ATOM     19  C   UNL     1      14.910  10.390  19.914  0.00  0.00    +0.047 A 
ATOM     20  C   UNL     1      14.067  10.285  21.020  0.00  0.00    +0.120 A 
BRANCH  20   6
ATOM      6  O   UNL     1      12.744  10.022  20.845  0.00  0.00    -0.495 OA
ATOM     26  C   UNL     1      11.820  11.003  21.317  0.00  0.00    +0.277 C 
ENDBRANCH  20   6
ENDBRANCH   1  14
ENDBRANCH   8   1
BRANCH  10   3
ATOM      3  O   UNL     1      18.287   6.338  20.867  0.00  0.00    -0.485 OA
BRANCH   3  15
ATOM     15  C   UNL     1      16.979   6.504  20.501  0.00  0.00    +0.121 A 
ATOM     21  C   UNL     1      16.630   6.536  19.152  0.00  0.00    +0.049 A 
ATOM     22  C   UNL     1      15.994   6.642  21.481  0.00  0.00    +0.049 A 
ATOM     23  C   UNL     1      15.296   6.705  18.780  0.00  0.00    +0.049 A 
ATOM     24  C   UNL     1      14.660   6.811  21.109  0.00  0.00    +0.049 A 
ATOM     25  C   UNL     1      14.312   6.842  19.759  0.00  0.00    +0.120 A 
BRANCH  25   7
ATOM      7  O   UNL     1      13.010   7.009  19.396  0.00  0.00    -0.495 OA
ATOM     27  C   UNL     1      12.760   7.477  18.071  0.00  0.00    +0.277 C 
ENDBRANCH  25   7
ENDBRANCH   3  15
ENDBRANCH  10   3
TORSDOF 6
ENDMDL
MODEL 8
REMARK VINA RESULT:      -5.4     21.623     25.510
REMARK  Name = 75367746
REMARK  8 active torsions:
REMARK  status: ('A' for Active; 'I' for Inactive)
REMARK    1  A    between atoms: S_1  and  N_8
REMARK    2  A    between atoms: S_1  and  C_14
REMARK    3  A    between atoms: O_3  and  C_10
REMARK    4  A    between atoms: O_3  and  C_15
REMARK    5  A    between atoms: O_6  and  C_20
REMARK    6  A    between atoms: O_6  and  C_26
REMARK    7  A    between atoms: O_7  and  C_25
REMARK    8  A    between atoms: O_7  and  C_27
REMARK                            x       y       z     vdW  Elec       q    Type
REMARK                         _______ _______ _______ _____ _____    ______ ____
ROOT
ATOM      2  O   UNL     1      -3.304 -14.789  11.794  0.00  0.00    -0.375 OA
ATOM      8  N   UNL     1      -2.936 -12.194  13.382  0.00  0.00    -0.171 NA
ATOM      9  C   UNL     1      -2.490 -12.026  11.966  0.00  0.00    +0.156 C 
ATOM     10  C   UNL     1      -3.622 -12.431  11.024  0.00  0.00    +0.215 C 
ATOM     11  C   UNL     1      -2.934 -13.609  13.858  0.00  0.00    +0.137 C 
ATOM     12  C   UNL     1      -3.668 -13.931  10.722  0.00  0.00    +0.205 C 
ATOM     13  C   UNL     1      -3.894 -14.471  13.048  0.00  0.00    +0.177 C 
ENDROOT
BRANCH   8   1
ATOM      1  S   UNL     1      -2.286 -11.058  14.494  0.00  0.00    +0.061 S 
ATOM      4  O   UNL     1      -1.921  -9.857  13.777  0.00  0.00    -0.153 OA
ATOM      5  O   UNL     1      -1.340 -11.736  15.351  0.00  0.00    -0.153 OA
BRANCH   1  14
ATOM     14  C   UNL     1      -3.729 -10.705  15.446  0.00  0.00    +0.106 A 
ATOM     16  C   UNL     1      -4.892 -10.267  14.815  0.00  0.00    +0.032 A 
ATOM     17  C   UNL     1      -3.706 -10.867  16.832  0.00  0.00    +0.032 A 
ATOM     18  C   UNL     1      -6.034  -9.991  15.569  0.00  0.00    +0.047 A 
ATOM     19  C   UNL     1      -4.847 -10.591  17.586  0.00  0.00    +0.047 A 
ATOM     20  C   UNL     1      -6.011 -10.153  16.954  0.00  0.00    +0.120 A 
BRANCH  20   6
ATOM      6  O   UNL     1      -7.124  -9.883  17.689  0.00  0.00    -0.495 OA
ATOM     26  C   UNL     1      -8.179  -9.179  17.033  0.00  0.00    +0.277 C 
ENDBRANCH  20   6
ENDBRANCH   1  14
ENDBRANCH   8   1
BRANCH  10   3
ATOM      3  O   UNL     1      -3.471 -11.722   9.794  0.00  0.00    -0.485 OA
BRANCH   3  15
ATOM     15  C   UNL     1      -4.390 -10.740   9.538  0.00  0.00    +0.121 A 
ATOM     21  C   UNL     1      -4.270  -9.495  10.155  0.00  0.00    +0.049 A 
ATOM     22  C   UNL     1      -5.446 -10.986   8.661  0.00  0.00    +0.049 A 
ATOM     23  C   UNL     1      -5.206  -8.495   9.893  0.00  0.00    +0.049 A 
ATOM     24  C   UNL     1      -6.382  -9.985   8.399  0.00  0.00    +0.049 A 
ATOM     25  C   UNL     1      -6.262  -8.740   9.016  0.00  0.00    +0.120 A 
BRANCH  25   7
ATOM      7  O   UNL     1      -7.176  -7.764   8.762  0.00  0.00    -0.495 OA
ATOM     27  C   UNL     1      -8.511  -7.991   9.213  0.00  0.00    +0.277 C 
ENDBRANCH  25   7
ENDBRANCH   3  15
ENDBRANCH  10   3
TORSDOF 6
ENDMDL
MODEL 9
REMARK VINA RESULT:      -5.4     18.123     20.697
REMARK  Name = 75367746
REMARK  8 active torsions:
REMARK  status: ('A' for Active; 'I' for Inactive)
REMARK    1  A    between atoms: S_1  and  N_8
REMARK    2  A    between atoms: S_1  and  C_14
REMARK    3  A    between atoms: O_3  and  C_10
REMARK    4  A    between atoms: O_3  and  C_15
REMARK    5  A    between atoms: O_6  and  C_20
REMARK    6  A    between atoms: O_6  and  C_26
REMARK    7  A    between atoms: O_7  and  C_25
REMARK    8  A    between atoms: O_7  and  C_27
REMARK                            x       y       z     vdW  Elec       q    Type
REMARK                         _______ _______ _______ _____ _____    ______ ____
ROOT
ATOM      2  O   UNL     1     -17.001  -6.508  12.593  0.00  0.00    -0.375 OA
ATOM      8  N   UNL     1     -14.444  -4.905  12.064  0.00  0.00    -0.171 NA
ATOM      9  C   UNL     1     -14.786  -4.908  13.518  0.00  0.00    +0.156 C 
ATOM     10  C   UNL     1     -14.941  -6.348  14.002  0.00  0.00    +0.215 C 
ATOM     11  C   UNL     1     -15.607  -5.167  11.164  0.00  0.00    +0.137 C 
ATOM     12  C   UNL     1     -16.340  -6.928  13.779  0.00  0.00    +0.205 C 
ATOM     13  C   UNL     1     -16.206  -6.545  11.415  0.00  0.00    +0.177 C 
ENDROOT
BRANCH   8   1
ATOM      1  S   UNL     1     -13.413  -3.630  11.556  0.00  0.00    +0.061 S 
ATOM      4  O   UNL     1     -12.697  -3.121  12.704  0.00  0.00    -0.153 OA
ATOM      5  O   UNL     1     -14.158  -2.747  10.687  0.00  0.00    -0.153 OA
BRANCH   1  14
ATOM     14  C   UNL     1     -12.272  -4.538  10.562  0.00  0.00    +0.106 A 
ATOM     16  C   UNL     1     -12.237  -5.930  10.635  0.00  0.00    +0.032 A 
ATOM     17  C   UNL     1     -11.406  -3.862   9.702  0.00  0.00    +0.032 A 
ATOM     18  C   UNL     1     -11.337  -6.647   9.846  0.00  0.00    +0.047 A 
ATOM     19  C   UNL     1     -10.505  -4.579   8.914  0.00  0.00    +0.047 A 
ATOM     20  C   UNL     1     -10.471  -5.971   8.986  0.00  0.00    +0.120 A 
BRANCH  20   6
ATOM      6  O   UNL     1      -9.592  -6.672   8.218  0.00  0.00    -0.495 OA
ATOM     26  C   UNL     1      -8.255  -6.178   8.150  0.00  0.00    +0.277 C 
ENDBRANCH  20   6
ENDBRANCH   1  14
ENDBRANCH   8   1
BRANCH  10   3
ATOM      3  O   UNL     1     -14.643  -6.398  15.397  0.00  0.00    -0.485 OA
BRANCH   3  15
ATOM     15  C   UNL     1     -13.370  -6.768  15.737  0.00  0.00    +0.121 A 
ATOM     21  C   UNL     1     -12.308  -5.892  15.520  0.00  0.00    +0.049 A 
ATOM     22  C   UNL     1     -13.137  -8.023  16.302  0.00  0.00    +0.049 A 
ATOM     23  C   UNL     1     -11.010  -6.270  15.867  0.00  0.00    +0.049 A 
ATOM     24  C   UNL     1     -11.840  -8.400  16.649  0.00  0.00    +0.049 A 
ATOM     25  C   UNL     1     -10.777  -7.524  16.432  0.00  0.00    +0.120 A 
BRANCH  25   7
ATOM      7  O   UNL     1      -9.511  -7.893  16.770  0.00  0.00    -0.495 OA
ATOM     27  C   UNL     1      -9.348  -9.178  17.369  0.00  0.00    +0.277 C 
ENDBRANCH  25   7
ENDBRANCH   3  15
ENDBRANCH  10   3
TORSDOF 6
ENDMDL
MODEL 10
REMARK VINA RESULT:      -5.3     17.780     20.275
REMARK  Name = 75367746
REMARK  8 active torsions:
REMARK  status: ('A' for Active; 'I' for Inactive)
REMARK    1  A    between atoms: S_1  and  N_8
REMARK    2  A    between atoms: S_1  and  C_14
REMARK    3  A    between atoms: O_3  and  C_10
REMARK    4  A    between atoms: O_3  and  C_15
REMARK    5  A    between atoms: O_6  and  C_20
REMARK    6  A    between atoms: O_6  and  C_26
REMARK    7  A    between atoms: O_7  and  C_25
REMARK    8  A    between atoms: O_7  and  C_27
REMARK                            x       y       z     vdW  Elec       q    Type
REMARK                         _______ _______ _______ _____ _____    ______ ____
ROOT
ATOM      2  O   UNL     1     -10.080 -14.470  19.535  0.00  0.00    -0.375 OA
ATOM      8  N   UNL     1     -11.456 -11.743  19.291  0.00  0.00    -0.171 NA
ATOM      9  C   UNL     1     -10.275 -11.670  20.204  0.00  0.00    +0.156 C 
ATOM     10  C   UNL     1      -9.038 -12.197  19.480  0.00  0.00    +0.215 C 
ATOM     11  C   UNL     1     -12.028 -13.114  19.143  0.00  0.00    +0.137 C 
ATOM     12  C   UNL     1      -8.875 -13.717  19.560  0.00  0.00    +0.205 C 
ATOM     13  C   UNL     1     -11.015 -14.078  18.538  0.00  0.00    +0.177 C 
ENDROOT
BRANCH   8   1
ATOM      1  S   UNL     1     -12.617 -10.496  19.496  0.00  0.00    +0.061 S 
ATOM      4  O   UNL     1     -12.320  -9.773  20.712  0.00  0.00    -0.153 OA
ATOM      5  O   UNL     1     -13.933 -11.041  19.251  0.00  0.00    -0.153 OA
BRANCH   1  14
ATOM     14  C   UNL     1     -12.194  -9.459  18.131  0.00  0.00    +0.106 A 
ATOM     16  C   UNL     1     -13.160  -9.127  17.182  0.00  0.00    +0.032 A 
ATOM     17  C   UNL     1     -10.894  -8.971  18.004  0.00  0.00    +0.032 A 
ATOM     18  C   UNL     1     -12.825  -8.305  16.105  0.00  0.00    +0.047 A 
ATOM     19  C   UNL     1     -10.559  -8.149  16.927  0.00  0.00    +0.047 A 
ATOM     20  C   UNL     1     -11.524  -7.817  15.978  0.00  0.00    +0.120 A 
BRANCH  20   6
ATOM      6  O   UNL     1     -11.199  -7.016  14.927  0.00  0.00    -0.495 OA
ATOM     26  C   UNL     1     -11.851  -5.748  14.852  0.00  0.00    +0.277 C 
ENDBRANCH  20   6
ENDBRANCH   1  14
ENDBRANCH   8   1
BRANCH  10   3
ATOM      3  O   UNL     1      -7.880 -11.583  20.044  0.00  0.00    -0.485 OA
BRANCH   3  15
ATOM     15  C   UNL     1      -6.883 -11.240  19.171  0.00  0.00    +0.121 A 
ATOM     21  C   UNL     1      -5.575 -11.660  19.406  0.00  0.00    +0.049 A 
ATOM     22  C   UNL     1      -7.178 -10.469  18.046  0.00  0.00    +0.049 A 
ATOM     23  C   UNL     1      -4.560 -11.310  18.515  0.00  0.00    +0.049 A 
ATOM     24  C   UNL     1      -6.163 -10.119  17.155  0.00  0.00    +0.049 A 
ATOM     25  C   UNL     1      -4.854 -10.539  17.390  0.00  0.00    +0.120 A 
BRANCH  25   7
ATOM      7  O   UNL     1      -3.863 -10.197  16.522  0.00  0.00    -0.495 OA
ATOM     27  C   UNL     1      -3.282 -11.249  15.752  0.00  0.00    +0.277 C 
ENDBRANCH  25   7
ENDBRANCH   3  15
ENDBRANCH  10   3
TORSDOF 6
ENDMDL
