MODEL 1
REMARK VINA RESULT:      -6.9      0.000      0.000
REMARK  Name = 38028898
REMARK  12 active torsions:
REMARK  status: ('A' for Active; 'I' for Inactive)
REMARK    1  A    between atoms: S_1  and  N_5
REMARK    2  A    between atoms: S_1  and  C_26
REMARK    3  A    between atoms: N_5  and  C_16
REMARK    4  A    between atoms: C_9  and  C_13
REMARK    5  A    between atoms: C_10  and  C_16
REMARK    6  A    between atoms: C_12  and  C_17
REMARK    7  A    between atoms: C_13  and  C_18
REMARK    8  A    between atoms: C_13  and  C_19
REMARK    9  A    between atoms: C_14  and  C_20
REMARK   10  A    between atoms: C_17  and  C_21
REMARK   11  A    between atoms: C_26  and  C_27
REMARK   12  A    between atoms: C_27  and  C_29
REMARK                            x       y       z     vdW  Elec       q    Type
REMARK                         _______ _______ _______ _____ _____    ______ ____
ROOT
ATOM      9  C   UNL     1      16.278   9.011  21.749  0.00  0.00    +0.000 C 
ATOM     10  C   UNL     1      15.424   7.956  21.002  0.00  0.00    +0.030 C 
ATOM     11  C   UNL     1      17.571   9.302  20.974  0.00  0.00    +0.012 C 
ATOM     12  C   UNL     1      18.427   8.036  20.772  0.00  0.00    +0.023 C 
ATOM     14  C   UNL     1      17.595   6.866  20.287  0.00  0.00    -0.073 C 
ATOM     15  C   UNL     1      16.253   6.854  20.385  0.00  0.00    -0.023 C 
ATOM     20  C   UNL     1      18.337   5.728  19.643  0.00  0.00    +0.039 C 
ENDROOT
BRANCH   9  13
ATOM     13  C   UNL     1      15.504  10.314  21.974  0.00  0.00    -0.013 C 
ATOM     18  C   UNL     1      16.409  11.369  22.601  0.00  0.00    +0.007 C 
ATOM     19  C   UNL     1      14.917  10.817  20.659  0.00  0.00    +0.007 C 
ENDBRANCH   9  13
BRANCH  10  16
ATOM     16  C   UNL     1      14.368   7.343  21.929  0.00  0.00    +0.113 C 
BRANCH  16   5
ATOM      5  N   UNL     1      13.544   6.398  21.161  0.00  0.00    -0.194 NA
ATOM     34  H   UNL     1      14.049   5.933  20.395  0.00  0.00    +0.148 HD
BRANCH   5   1
ATOM      1  S   UNL     1      11.912   6.785  20.836  0.00  0.00    +0.029 S 
ATOM      3  O   UNL     1      11.051   5.721  21.318  0.00  0.00    -0.158 OA
ATOM      4  O   UNL     1      11.812   7.257  19.469  0.00  0.00    -0.158 OA
BRANCH   1  26
ATOM     26  C   UNL     1      11.693   8.191  21.901  0.00  0.00    +0.185 C 
BRANCH  26  27
ATOM     27  C   UNL     1      11.435   9.457  21.100  0.00  0.00    +0.021 C 
ATOM     29  C   UNL     1      11.406  10.685  21.995  0.00  0.00    +0.005 C 
ENDBRANCH  26  27
ENDBRANCH   1  26
ENDBRANCH   5   1
ENDBRANCH  16   5
ENDBRANCH  10  16
BRANCH  12  17
ATOM     17  C   UNL     1      19.189   7.675  22.052  0.00  0.00    +0.103 C 
BRANCH  17  21
ATOM      2  O   UNL     1      21.165   8.938  21.683  0.00  0.00    -0.276 OA
ATOM      6  N   UNL     1      21.406   6.628  21.780  0.00  0.00    -0.298 N 
ATOM      7  N   UNL     1      23.051   4.249  21.890  0.00  0.00    -0.312 N 
ATOM      8  N   UNL     1      23.626   2.098  21.104  0.00  0.00    -0.240 NA
ATOM     21  C   UNL     1      20.674   7.815  21.823  0.00  0.00    +0.216 C 
ATOM     22  C   UNL     1      22.849   6.680  21.558  0.00  0.00    +0.126 C 
ATOM     23  C   UNL     1      20.821   5.297  21.958  0.00  0.00    +0.126 C 
ATOM     24  C   UNL     1      23.579   5.556  22.290  0.00  0.00    +0.125 C 
ATOM     25  C   UNL     1      21.687   4.187  21.360  0.00  0.00    +0.125 C 
ATOM     28  C   UNL     1      23.841   3.105  21.980  0.00  0.00    +0.121 A 
ATOM     30  C   UNL     1      24.806   3.078  22.974  0.00  0.00    +0.043 A 
ATOM     31  C   UNL     1      25.602   1.942  23.076  0.00  0.00    +0.005 A 
ATOM     32  C   UNL     1      24.419   1.011  21.235  0.00  0.00    +0.113 A 
ATOM     33  C   UNL     1      25.411   0.884  22.194  0.00  0.00    +0.020 A 
ENDBRANCH  17  21
ENDBRANCH  12  17
TORSDOF 8
ENDMDL
MODEL 2
REMARK VINA RESULT:      -6.5      6.299      9.396
REMARK  Name = 38028898
REMARK  12 active torsions:
REMARK  status: ('A' for Active; 'I' for Inactive)
REMARK    1  A    between atoms: S_1  and  N_5
REMARK    2  A    between atoms: S_1  and  C_26
REMARK    3  A    between atoms: N_5  and  C_16
REMARK    4  A    between atoms: C_9  and  C_13
REMARK    5  A    between atoms: C_10  and  C_16
REMARK    6  A    between atoms: C_12  and  C_17
REMARK    7  A    between atoms: C_13  and  C_18
REMARK    8  A    between atoms: C_13  and  C_19
REMARK    9  A    between atoms: C_14  and  C_20
REMARK   10  A    between atoms: C_17  and  C_21
REMARK   11  A    between atoms: C_26  and  C_27
REMARK   12  A    between atoms: C_27  and  C_29
REMARK                            x       y       z     vdW  Elec       q    Type
REMARK                         _______ _______ _______ _____ _____    ______ ____
ROOT
ATOM      9  C   UNL     1      14.395   8.185  20.085  0.00  0.00    +0.000 C 
ATOM     10  C   UNL     1      13.624   6.957  19.539  0.00  0.00    +0.030 C 
ATOM     11  C   UNL     1      14.172   8.330  21.598  0.00  0.00    +0.012 C 
ATOM     12  C   UNL     1      12.682   8.491  21.954  0.00  0.00    +0.023 C 
ATOM     14  C   UNL     1      11.818   7.474  21.237  0.00  0.00    -0.073 C 
ATOM     15  C   UNL     1      12.260   6.788  20.168  0.00  0.00    -0.023 C 
ATOM     20  C   UNL     1      10.447   7.229  21.805  0.00  0.00    +0.039 C 
ENDROOT
BRANCH   9  13
ATOM     13  C   UNL     1      15.895   8.093  19.788  0.00  0.00    -0.013 C 
ATOM     18  C   UNL     1      16.649   9.206  20.507  0.00  0.00    +0.007 C 
ATOM     19  C   UNL     1      16.434   6.725  20.194  0.00  0.00    +0.007 C 
ENDBRANCH   9  13
BRANCH  10  16
ATOM     16  C   UNL     1      13.478   7.029  18.015  0.00  0.00    +0.113 C 
BRANCH  16   5
ATOM      5  N   UNL     1      12.050   7.018  17.666  0.00  0.00    -0.194 NA
ATOM     34  H   UNL     1      11.756   6.184  17.142  0.00  0.00    +0.148 HD
BRANCH   5   1
ATOM      1  S   UNL     1      11.291   8.478  17.207  0.00  0.00    +0.029 S 
ATOM      3  O   UNL     1      10.225   8.792  18.139  0.00  0.00    -0.158 OA
ATOM      4  O   UNL     1      11.039   8.439  15.780  0.00  0.00    -0.158 OA
BRANCH   1  26
ATOM     26  C   UNL     1      12.615   9.633  17.481  0.00  0.00    +0.185 C 
BRANCH  26  27
ATOM     27  C   UNL     1      13.247  10.071  16.169  0.00  0.00    +0.021 C 
ATOM     29  C   UNL     1      14.704  10.461  16.358  0.00  0.00    +0.005 C 
ENDBRANCH  26  27
ENDBRANCH   1  26
ENDBRANCH   5   1
ENDBRANCH  16   5
ENDBRANCH  10  16
BRANCH  12  17
ATOM     17  C   UNL     1      12.199   9.918  21.672  0.00  0.00    +0.103 C 
BRANCH  17  21
ATOM      2  O   UNL     1      10.627  10.340  23.401  0.00  0.00    -0.276 OA
ATOM      6  N   UNL     1      12.675  11.425  23.566  0.00  0.00    -0.298 N 
ATOM      7  N   UNL     1      14.584  13.038  25.027  0.00  0.00    -0.312 N 
ATOM      8  N   UNL     1      16.052  14.883  25.165  0.00  0.00    -0.240 NA
ATOM     21  C   UNL     1      11.754  10.573  22.957  0.00  0.00    +0.216 C 
ATOM     22  C   UNL     1      12.318  12.100  24.812  0.00  0.00    +0.126 C 
ATOM     23  C   UNL     1      14.017  11.691  23.043  0.00  0.00    +0.126 C 
ATOM     24  C   UNL     1      13.528  12.296  25.722  0.00  0.00    +0.125 C 
ATOM     25  C   UNL     1      14.605  13.003  23.563  0.00  0.00    +0.125 C 
ATOM     28  C   UNL     1      15.519  13.783  25.743  0.00  0.00    +0.121 A 
ATOM     30  C   UNL     1      15.842  13.341  27.016  0.00  0.00    +0.043 A 
ATOM     31  C   UNL     1      16.774  14.074  27.742  0.00  0.00    +0.005 A 
ATOM     32  C   UNL     1      16.954  15.570  25.901  0.00  0.00    +0.113 A 
ATOM     33  C   UNL     1      17.345  15.211  27.181  0.00  0.00    +0.020 A 
ENDBRANCH  17  21
ENDBRANCH  12  17
TORSDOF 8
ENDMDL
MODEL 3
REMARK VINA RESULT:      -6.5     28.754     31.289
REMARK  Name = 38028898
REMARK  12 active torsions:
REMARK  status: ('A' for Active; 'I' for Inactive)
REMARK    1  A    between atoms: S_1  and  N_5
REMARK    2  A    between atoms: S_1  and  C_26
REMARK    3  A    between atoms: N_5  and  C_16
REMARK    4  A    between atoms: C_9  and  C_13
REMARK    5  A    between atoms: C_10  and  C_16
REMARK    6  A    between atoms: C_12  and  C_17
REMARK    7  A    between atoms: C_13  and  C_18
REMARK    8  A    between atoms: C_13  and  C_19
REMARK    9  A    between atoms: C_14  and  C_20
REMARK   10  A    between atoms: C_17  and  C_21
REMARK   11  A    between atoms: C_26  and  C_27
REMARK   12  A    between atoms: C_27  and  C_29
REMARK                            x       y       z     vdW  Elec       q    Type
REMARK                         _______ _______ _______ _____ _____    ______ ____
ROOT
ATOM      9  C   UNL     1      -6.713 -11.258  16.481  0.00  0.00    +0.000 C 
ATOM     10  C   UNL     1      -6.974 -11.429  17.999  0.00  0.00    +0.030 C 
ATOM     11  C   UNL     1      -5.576 -12.184  16.024  0.00  0.00    +0.012 C 
ATOM     12  C   UNL     1      -4.261 -11.909  16.780  0.00  0.00    +0.023 C 
ATOM     14  C   UNL     1      -4.484 -11.796  18.275  0.00  0.00    -0.073 C 
ATOM     15  C   UNL     1      -5.705 -11.595  18.802  0.00  0.00    -0.023 C 
ATOM     20  C   UNL     1      -3.276 -11.965  19.154  0.00  0.00    +0.039 C 
ENDROOT
BRANCH   9  13
ATOM     13  C   UNL     1      -7.971 -11.535  15.652  0.00  0.00    -0.013 C 
ATOM     18  C   UNL     1      -8.400 -10.279  14.900  0.00  0.00    +0.007 C 
ATOM     19  C   UNL     1      -7.727 -12.688  14.685  0.00  0.00    +0.007 C 
ENDBRANCH   9  13
BRANCH  10  16
ATOM     16  C   UNL     1      -7.781 -10.251  18.556  0.00  0.00    +0.113 C 
BRANCH  16   5
ATOM      5  N   UNL     1      -8.482 -10.682  19.775  0.00  0.00    -0.194 NA
ATOM     34  H   UNL     1      -7.956 -11.363  20.338  0.00  0.00    +0.148 HD
BRANCH   5   1
ATOM      1  S   UNL     1     -10.173 -10.918  19.727  0.00  0.00    +0.029 S 
ATOM      3  O   UNL     1     -10.831  -9.928  20.558  0.00  0.00    -0.158 OA
ATOM      4  O   UNL     1     -10.447 -12.331  19.902  0.00  0.00    -0.158 OA
BRANCH   1  26
ATOM     26  C   UNL     1     -10.509 -10.517  18.029  0.00  0.00    +0.185 C 
BRANCH  26  27
ATOM     27  C   UNL     1     -11.284  -9.215  17.911  0.00  0.00    +0.021 C 
ATOM     29  C   UNL     1     -10.409  -8.095  17.371  0.00  0.00    +0.005 C 
ENDBRANCH  26  27
ENDBRANCH   1  26
ENDBRANCH   5   1
ENDBRANCH  16   5
ENDBRANCH  10  16
BRANCH  12  17
ATOM     17  C   UNL     1      -3.562 -10.659  16.234  0.00  0.00    +0.103 C 
BRANCH  17  21
ATOM      2  O   UNL     1      -1.428 -11.435  15.540  0.00  0.00    -0.276 OA
ATOM      6  N   UNL     1      -2.958 -10.952  13.860  0.00  0.00    -0.298 N 
ATOM      7  N   UNL     1      -3.777 -10.986  11.084  0.00  0.00    -0.312 N 
ATOM      8  N   UNL     1      -4.609  -9.895   9.162  0.00  0.00    -0.240 NA
ATOM     21  C   UNL     1      -2.547 -11.054  15.189  0.00  0.00    +0.216 C 
ATOM     22  C   UNL     1      -2.032 -11.312  12.789  0.00  0.00    +0.126 C 
ATOM     23  C   UNL     1      -4.292 -10.510  13.446  0.00  0.00    +0.126 C 
ATOM     24  C   UNL     1      -2.756 -11.910  11.585  0.00  0.00    +0.125 C 
ATOM     25  C   UNL     1      -4.323  -9.990  12.008  0.00  0.00    +0.125 C 
ATOM     28  C   UNL     1      -4.188 -11.035   9.753  0.00  0.00    +0.121 A 
ATOM     30  C   UNL     1      -4.136 -12.266   9.118  0.00  0.00    +0.043 A 
ATOM     31  C   UNL     1      -4.543 -12.331   7.791  0.00  0.00    +0.005 A 
ATOM     32  C   UNL     1      -4.997  -9.997   7.871  0.00  0.00    +0.113 A 
ATOM     33  C   UNL     1      -4.984 -11.179   7.147  0.00  0.00    +0.020 A 
ENDBRANCH  17  21
ENDBRANCH  12  17
TORSDOF 8
ENDMDL
MODEL 4
REMARK VINA RESULT:      -6.3      2.757      5.045
REMARK  Name = 38028898
REMARK  12 active torsions:
REMARK  status: ('A' for Active; 'I' for Inactive)
REMARK    1  A    between atoms: S_1  and  N_5
REMARK    2  A    between atoms: S_1  and  C_26
REMARK    3  A    between atoms: N_5  and  C_16
REMARK    4  A    between atoms: C_9  and  C_13
REMARK    5  A    between atoms: C_10  and  C_16
REMARK    6  A    between atoms: C_12  and  C_17
REMARK    7  A    between atoms: C_13  and  C_18
REMARK    8  A    between atoms: C_13  and  C_19
REMARK    9  A    between atoms: C_14  and  C_20
REMARK   10  A    between atoms: C_17  and  C_21
REMARK   11  A    between atoms: C_26  and  C_27
REMARK   12  A    between atoms: C_27  and  C_29
REMARK                            x       y       z     vdW  Elec       q    Type
REMARK                         _______ _______ _______ _____ _____    ______ ____
ROOT
ATOM      9  C   UNL     1      12.078  11.402  22.638  0.00  0.00    +0.000 C 
ATOM     10  C   UNL     1      11.554  10.795  21.313  0.00  0.00    +0.030 C 
ATOM     11  C   UNL     1      13.095  12.518  22.352  0.00  0.00    +0.012 C 
ATOM     12  C   UNL     1      14.301  12.012  21.536  0.00  0.00    +0.023 C 
ATOM     14  C   UNL     1      13.867  11.172  20.353  0.00  0.00    -0.073 C 
ATOM     15  C   UNL     1      12.631  10.647  20.263  0.00  0.00    -0.023 C 
ATOM     20  C   UNL     1      14.872  10.985  19.250  0.00  0.00    +0.039 C 
ENDROOT
BRANCH   9  13
ATOM     13  C   UNL     1      10.938  11.949  23.504  0.00  0.00    -0.013 C 
ATOM     18  C   UNL     1      11.177  11.613  24.972  0.00  0.00    +0.007 C 
ATOM     19  C   UNL     1      10.799  13.455  23.308  0.00  0.00    +0.007 C 
ENDBRANCH   9  13
BRANCH  10  16
ATOM     16  C   UNL     1      10.886   9.436  21.554  0.00  0.00    +0.113 C 
BRANCH  16   5
ATOM      5  N   UNL     1      11.262   8.516  20.471  0.00  0.00    -0.194 NA
ATOM     34  H   UNL     1      10.539   8.407  19.748  0.00  0.00    +0.148 HD
BRANCH   5   1
ATOM      1  S   UNL     1      12.145   7.101  20.844  0.00  0.00    +0.029 S 
ATOM      3  O   UNL     1      11.241   5.970  20.937  0.00  0.00    -0.158 OA
ATOM      4  O   UNL     1      13.067   7.403  21.920  0.00  0.00    -0.158 OA
BRANCH   1  26
ATOM     26  C   UNL     1      13.103   6.915  19.359  0.00  0.00    +0.185 C 
BRANCH  26  27
ATOM     27  C   UNL     1      12.436   7.605  18.180  0.00  0.00    +0.021 C 
ATOM     29  C   UNL     1      13.463   8.166  17.210  0.00  0.00    +0.005 C 
ENDBRANCH  26  27
ENDBRANCH   1  26
ENDBRANCH   5   1
ENDBRANCH  16   5
ENDBRANCH  10  16
BRANCH  12  17
ATOM     17  C   UNL     1      15.284  11.243  22.425  0.00  0.00    +0.103 C 
BRANCH  17  21
ATOM      2  O   UNL     1      17.147  12.530  21.709  0.00  0.00    -0.276 OA
ATOM      6  N   UNL     1      17.385  10.219  21.637  0.00  0.00    -0.298 N 
ATOM      7  N   UNL     1      18.998   7.843  21.275  0.00  0.00    -0.312 N 
ATOM      8  N   UNL     1      19.378   5.736  20.278  0.00  0.00    -0.240 NA
ATOM     21  C   UNL     1      16.688  11.400  21.893  0.00  0.00    +0.216 C 
ATOM     22  C   UNL     1      18.749  10.287  21.116  0.00  0.00    +0.126 C 
ATOM     23  C   UNL     1      16.842   8.879  21.868  0.00  0.00    +0.126 C 
ATOM     24  C   UNL     1      19.610   9.130  21.619  0.00  0.00    +0.125 C 
ATOM     25  C   UNL     1      17.553   7.803  21.045  0.00  0.00    +0.125 C 
ATOM     28  C   UNL     1      19.782   6.698  21.138  0.00  0.00    +0.121 A 
ATOM     30  C   UNL     1      20.935   6.624  21.902  0.00  0.00    +0.043 A 
ATOM     31  C   UNL     1      21.726   5.487  21.776  0.00  0.00    +0.005 A 
ATOM     32  C   UNL     1      20.173   4.646  20.183  0.00  0.00    +0.113 A 
ATOM     33  C   UNL     1      21.345   4.475  20.902  0.00  0.00    +0.020 A 
ENDBRANCH  17  21
ENDBRANCH  12  17
TORSDOF 8
ENDMDL
MODEL 5
REMARK VINA RESULT:      -6.2     28.614     32.047
REMARK  Name = 38028898
REMARK  12 active torsions:
REMARK  status: ('A' for Active; 'I' for Inactive)
REMARK    1  A    between atoms: S_1  and  N_5
REMARK    2  A    between atoms: S_1  and  C_26
REMARK    3  A    between atoms: N_5  and  C_16
REMARK    4  A    between atoms: C_9  and  C_13
REMARK    5  A    between atoms: C_10  and  C_16
REMARK    6  A    between atoms: C_12  and  C_17
REMARK    7  A    between atoms: C_13  and  C_18
REMARK    8  A    between atoms: C_13  and  C_19
REMARK    9  A    between atoms: C_14  and  C_20
REMARK   10  A    between atoms: C_17  and  C_21
REMARK   11  A    between atoms: C_26  and  C_27
REMARK   12  A    between atoms: C_27  and  C_29
REMARK                            x       y       z     vdW  Elec       q    Type
REMARK                         _______ _______ _______ _____ _____    ______ ____
ROOT
ATOM      9  C   UNL     1      -5.552 -13.579  14.802  0.00  0.00    +0.000 C 
ATOM     10  C   UNL     1      -5.214 -13.496  16.312  0.00  0.00    +0.030 C 
ATOM     11  C   UNL     1      -4.300 -13.306  13.956  0.00  0.00    +0.012 C 
ATOM     12  C   UNL     1      -3.693 -11.919  14.245  0.00  0.00    +0.023 C 
ATOM     14  C   UNL     1      -3.576 -11.655  15.733  0.00  0.00    -0.073 C 
ATOM     15  C   UNL     1      -4.253 -12.379  16.642  0.00  0.00    -0.023 C 
ATOM     20  C   UNL     1      -2.627 -10.567  16.155  0.00  0.00    +0.039 C 
ENDROOT
BRANCH   9  13
ATOM     13  C   UNL     1      -6.146 -14.941  14.425  0.00  0.00    -0.013 C 
ATOM     18  C   UNL     1      -6.452 -14.993  12.932  0.00  0.00    +0.007 C 
ATOM     19  C   UNL     1      -5.192 -16.063  14.821  0.00  0.00    +0.007 C 
ENDBRANCH   9  13
BRANCH  10  16
ATOM     16  C   UNL     1      -6.486 -13.343  17.155  0.00  0.00    +0.113 C 
BRANCH  16   5
ATOM      5  N   UNL     1      -6.110 -13.001  18.535  0.00  0.00    -0.194 NA
ATOM     34  H   UNL     1      -5.644 -13.765  19.040  0.00  0.00    +0.148 HD
BRANCH   5   1
ATOM      1  S   UNL     1      -7.163 -12.035  19.472  0.00  0.00    +0.029 S 
ATOM      3  O   UNL     1      -6.390 -11.135  20.306  0.00  0.00    -0.158 OA
ATOM      4  O   UNL     1      -8.182 -12.888  20.050  0.00  0.00    -0.158 OA
BRANCH   1  26
ATOM     26  C   UNL     1      -7.939 -11.069  18.197  0.00  0.00    +0.185 C 
BRANCH  26  27
ATOM     27  C   UNL     1      -7.178  -9.777  17.942  0.00  0.00    +0.021 C 
ATOM     29  C   UNL     1      -6.697  -9.691  16.503  0.00  0.00    +0.005 C 
ENDBRANCH  26  27
ENDBRANCH   1  26
ENDBRANCH   5   1
ENDBRANCH  16   5
ENDBRANCH  10  16
BRANCH  12  17
ATOM     17  C   UNL     1      -4.493 -10.811  13.552  0.00  0.00    +0.103 C 
BRANCH  17  21
ATOM      2  O   UNL     1      -2.485 -10.211  12.436  0.00  0.00    -0.276 OA
ATOM      6  N   UNL     1      -4.467  -9.874  11.270  0.00  0.00    -0.298 N 
ATOM      7  N   UNL     1      -5.907  -9.217   8.847  0.00  0.00    -0.312 N 
ATOM      8  N   UNL     1      -7.558  -7.982   7.696  0.00  0.00    -0.240 NA
ATOM     21  C   UNL     1      -3.715 -10.275  12.375  0.00  0.00    +0.216 C 
ATOM     22  C   UNL     1      -3.787  -9.340  10.092  0.00  0.00    +0.126 C 
ATOM     23  C   UNL     1      -5.927  -9.962  11.196  0.00  0.00    +0.126 C 
ATOM     24  C   UNL     1      -4.522  -9.693   8.801  0.00  0.00    +0.125 C 
ATOM     25  C   UNL     1      -6.525  -9.010  10.159  0.00  0.00    +0.125 C 
ATOM     28  C   UNL     1      -6.602  -8.937   7.672  0.00  0.00    +0.121 A 
ATOM     30  C   UNL     1      -6.261  -9.667   6.544  0.00  0.00    +0.043 A 
ATOM     31  C   UNL     1      -6.946  -9.399   5.364  0.00  0.00    +0.005 A 
ATOM     32  C   UNL     1      -8.203  -7.750   6.530  0.00  0.00    +0.113 A 
ATOM     33  C   UNL     1      -7.937  -8.424   5.349  0.00  0.00    +0.020 A 
ENDBRANCH  17  21
ENDBRANCH  12  17
TORSDOF 8
ENDMDL
MODEL 6
REMARK VINA RESULT:      -6.1     28.626     32.091
REMARK  Name = 38028898
REMARK  12 active torsions:
REMARK  status: ('A' for Active; 'I' for Inactive)
REMARK    1  A    between atoms: S_1  and  N_5
REMARK    2  A    between atoms: S_1  and  C_26
REMARK    3  A    between atoms: N_5  and  C_16
REMARK    4  A    between atoms: C_9  and  C_13
REMARK    5  A    between atoms: C_10  and  C_16
REMARK    6  A    between atoms: C_12  and  C_17
REMARK    7  A    between atoms: C_13  and  C_18
REMARK    8  A    between atoms: C_13  and  C_19
REMARK    9  A    between atoms: C_14  and  C_20
REMARK   10  A    between atoms: C_17  and  C_21
REMARK   11  A    between atoms: C_26  and  C_27
REMARK   12  A    between atoms: C_27  and  C_29
REMARK                            x       y       z     vdW  Elec       q    Type
REMARK                         _______ _______ _______ _____ _____    ______ ____
ROOT
ATOM      9  C   UNL     1      -2.939 -12.819  13.662  0.00  0.00    +0.000 C 
ATOM     10  C   UNL     1      -2.043 -11.653  14.150  0.00  0.00    +0.030 C 
ATOM     11  C   UNL     1      -2.684 -13.106  12.175  0.00  0.00    +0.012 C 
ATOM     12  C   UNL     1      -2.958 -11.876  11.289  0.00  0.00    +0.023 C 
ATOM     14  C   UNL     1      -2.324 -10.621  11.855  0.00  0.00    -0.073 C 
ATOM     15  C   UNL     1      -1.909 -10.545  13.133  0.00  0.00    -0.023 C 
ATOM     20  C   UNL     1      -2.135  -9.470  10.907  0.00  0.00    +0.039 C 
ENDROOT
BRANCH   9  13
ATOM     13  C   UNL     1      -2.713 -14.093  14.483  0.00  0.00    -0.013 C 
ATOM     18  C   UNL     1      -4.014 -14.878  14.618  0.00  0.00    +0.007 C 
ATOM     19  C   UNL     1      -1.627 -14.952  13.841  0.00  0.00    +0.007 C 
ENDBRANCH   9  13
BRANCH  10  16
ATOM     16  C   UNL     1      -2.562 -11.074  15.472  0.00  0.00    +0.113 C 
BRANCH  16   5
ATOM      5  N   UNL     1      -3.831 -10.373  15.225  0.00  0.00    -0.194 NA
ATOM     34  H   UNL     1      -3.716  -9.385  14.964  0.00  0.00    +0.148 HD
BRANCH   5   1
ATOM      1  S   UNL     1      -5.183 -10.721  16.210  0.00  0.00    +0.029 S 
ATOM      3  O   UNL     1      -5.789 -11.969  15.787  0.00  0.00    -0.158 OA
ATOM      4  O   UNL     1      -5.980  -9.518  16.342  0.00  0.00    -0.158 OA
BRANCH   1  26
ATOM     26  C   UNL     1      -4.383 -11.003  17.772  0.00  0.00    +0.185 C 
BRANCH  26  27
ATOM     27  C   UNL     1      -5.271 -11.801  18.713  0.00  0.00    +0.021 C 
ATOM     29  C   UNL     1      -6.064 -10.889  19.635  0.00  0.00    +0.005 C 
ENDBRANCH  26  27
ENDBRANCH   1  26
ENDBRANCH   5   1
ENDBRANCH  16   5
ENDBRANCH  10  16
BRANCH  12  17
ATOM     17  C   UNL     1      -4.462 -11.679  11.068  0.00  0.00    +0.103 C 
BRANCH  17  21
ATOM      2  O   UNL     1      -4.146 -12.175   8.768  0.00  0.00    -0.276 OA
ATOM      6  N   UNL     1      -5.689 -10.513   9.274  0.00  0.00    -0.298 N 
ATOM      7  N   UNL     1      -7.785  -8.673   8.500  0.00  0.00    -0.312 N 
ATOM      8  N   UNL     1      -8.722  -6.505   8.464  0.00  0.00    -0.240 NA
ATOM     21  C   UNL     1      -4.744 -11.487   9.598  0.00  0.00    +0.216 C 
ATOM     22  C   UNL     1      -6.015 -10.265   7.871  0.00  0.00    +0.126 C 
ATOM     23  C   UNL     1      -6.407  -9.705  10.262  0.00  0.00    +0.126 C 
ATOM     24  C   UNL     1      -7.474  -9.854   7.689  0.00  0.00    +0.125 C 
ATOM     25  C   UNL     1      -6.956  -8.404   9.676  0.00  0.00    +0.125 C 
ATOM     28  C   UNL     1      -8.819  -7.813   8.135  0.00  0.00    +0.121 A 
ATOM     30  C   UNL     1      -9.892  -8.365   7.452  0.00  0.00    +0.043 A 
ATOM     31  C   UNL     1     -10.932  -7.519   7.083  0.00  0.00    +0.005 A 
ATOM     32  C   UNL     1      -9.752  -5.715   8.088  0.00  0.00    +0.113 A 
ATOM     33  C   UNL     1     -10.868  -6.167   7.403  0.00  0.00    +0.020 A 
ENDBRANCH  17  21
ENDBRANCH  12  17
TORSDOF 8
ENDMDL
MODEL 7
REMARK VINA RESULT:      -6.0      3.122      4.643
REMARK  Name = 38028898
REMARK  12 active torsions:
REMARK  status: ('A' for Active; 'I' for Inactive)
REMARK    1  A    between atoms: S_1  and  N_5
REMARK    2  A    between atoms: S_1  and  C_26
REMARK    3  A    between atoms: N_5  and  C_16
REMARK    4  A    between atoms: C_9  and  C_13
REMARK    5  A    between atoms: C_10  and  C_16
REMARK    6  A    between atoms: C_12  and  C_17
REMARK    7  A    between atoms: C_13  and  C_18
REMARK    8  A    between atoms: C_13  and  C_19
REMARK    9  A    between atoms: C_14  and  C_20
REMARK   10  A    between atoms: C_17  and  C_21
REMARK   11  A    between atoms: C_26  and  C_27
REMARK   12  A    between atoms: C_27  and  C_29
REMARK                            x       y       z     vdW  Elec       q    Type
REMARK                         _______ _______ _______ _____ _____    ______ ____
ROOT
ATOM      9  C   UNL     1      14.200  10.328  18.643  0.00  0.00    +0.000 C 
ATOM     10  C   UNL     1      12.882  10.324  19.456  0.00  0.00    +0.030 C 
ATOM     11  C   UNL     1      14.479   8.931  18.067  0.00  0.00    +0.012 C 
ATOM     12  C   UNL     1      14.587   7.858  19.168  0.00  0.00    +0.023 C 
ATOM     14  C   UNL     1      13.456   7.964  20.171  0.00  0.00    -0.073 C 
ATOM     15  C   UNL     1      12.696   9.069  20.276  0.00  0.00    -0.023 C 
ATOM     20  C   UNL     1      13.188   6.752  21.020  0.00  0.00    +0.039 C 
ENDROOT
BRANCH   9  13
ATOM     13  C   UNL     1      14.167  11.358  17.509  0.00  0.00    -0.013 C 
ATOM     18  C   UNL     1      15.426  12.218  17.535  0.00  0.00    +0.007 C 
ATOM     19  C   UNL     1      14.016  10.661  16.162  0.00  0.00    +0.007 C 
ENDBRANCH   9  13
BRANCH  10  16
ATOM     16  C   UNL     1      12.796  11.550  20.373  0.00  0.00    +0.113 C 
BRANCH  16   5
ATOM      5  N   UNL     1      11.649  11.394  21.280  0.00  0.00    -0.194 NA
ATOM     34  H   UNL     1      10.795  11.865  20.955  0.00  0.00    +0.148 HD
BRANCH   5   1
ATOM      1  S   UNL     1      11.908  11.426  22.968  0.00  0.00    +0.029 S 
ATOM      3  O   UNL     1      13.322  11.271  23.251  0.00  0.00    -0.158 OA
ATOM      4  O   UNL     1      10.927  10.568  23.603  0.00  0.00    -0.158 OA
BRANCH   1  26
ATOM     26  C   UNL     1      11.459  13.107  23.333  0.00  0.00    +0.185 C 
BRANCH  26  27
ATOM     27  C   UNL     1      10.234  13.170  24.232  0.00  0.00    +0.021 C 
ATOM     29  C   UNL     1      10.614  13.498  25.667  0.00  0.00    +0.005 C 
ENDBRANCH  26  27
ENDBRANCH   1  26
ENDBRANCH   5   1
ENDBRANCH  16   5
ENDBRANCH  10  16
BRANCH  12  17
ATOM     17  C   UNL     1      15.949   7.922  19.868  0.00  0.00    +0.103 C 
BRANCH  17  21
ATOM      2  O   UNL     1      16.361   5.916  18.666  0.00  0.00    -0.276 OA
ATOM      6  N   UNL     1      17.894   6.474  20.322  0.00  0.00    -0.298 N 
ATOM      7  N   UNL     1      20.405   6.062  21.701  0.00  0.00    -0.312 N 
ATOM      8  N   UNL     1      21.647   5.769  23.688  0.00  0.00    -0.240 NA
ATOM     21  C   UNL     1      16.746   6.679  19.556  0.00  0.00    +0.216 C 
ATOM     22  C   UNL     1      18.717   5.290  20.084  0.00  0.00    +0.126 C 
ATOM     23  C   UNL     1      18.355   7.387  21.370  0.00  0.00    +0.126 C 
ATOM     24  C   UNL     1      20.198   5.565  20.338  0.00  0.00    +0.125 C 
ATOM     25  C   UNL     1      19.281   6.709  22.380  0.00  0.00    +0.125 C 
ATOM     28  C   UNL     1      21.631   5.887  22.341  0.00  0.00    +0.121 A 
ATOM     30  C   UNL     1      22.763   5.847  21.544  0.00  0.00    +0.043 A 
ATOM     31  C   UNL     1      23.993   5.675  22.170  0.00  0.00    +0.005 A 
ATOM     32  C   UNL     1      22.861   5.603  24.260  0.00  0.00    +0.113 A 
ATOM     33  C   UNL     1      24.052   5.550  23.553  0.00  0.00    +0.020 A 
ENDBRANCH  17  21
ENDBRANCH  12  17
TORSDOF 8
ENDMDL
MODEL 8
REMARK VINA RESULT:      -6.0     29.946     32.836
REMARK  Name = 38028898
REMARK  12 active torsions:
REMARK  status: ('A' for Active; 'I' for Inactive)
REMARK    1  A    between atoms: S_1  and  N_5
REMARK    2  A    between atoms: S_1  and  C_26
REMARK    3  A    between atoms: N_5  and  C_16
REMARK    4  A    between atoms: C_9  and  C_13
REMARK    5  A    between atoms: C_10  and  C_16
REMARK    6  A    between atoms: C_12  and  C_17
REMARK    7  A    between atoms: C_13  and  C_18
REMARK    8  A    between atoms: C_13  and  C_19
REMARK    9  A    between atoms: C_14  and  C_20
REMARK   10  A    between atoms: C_17  and  C_21
REMARK   11  A    between atoms: C_26  and  C_27
REMARK   12  A    between atoms: C_27  and  C_29
REMARK                            x       y       z     vdW  Elec       q    Type
REMARK                         _______ _______ _______ _____ _____    ______ ____
ROOT
ATOM      9  C   UNL     1     -12.581   8.556  20.187  0.00  0.00    +0.000 C 
ATOM     10  C   UNL     1     -11.927   9.767  20.897  0.00  0.00    +0.030 C 
ATOM     11  C   UNL     1     -11.632   7.979  19.126  0.00  0.00    +0.012 C 
ATOM     12  C   UNL     1     -11.248   9.023  18.058  0.00  0.00    +0.023 C 
ATOM     14  C   UNL     1     -10.845  10.344  18.682  0.00  0.00    -0.073 C 
ATOM     15  C   UNL     1     -11.145  10.653  19.956  0.00  0.00    -0.023 C 
ATOM     20  C   UNL     1     -10.048  11.284  17.821  0.00  0.00    +0.039 C 
ENDROOT
BRANCH   9  13
ATOM     13  C   UNL     1     -12.976   7.458  21.180  0.00  0.00    -0.013 C 
ATOM     18  C   UNL     1     -14.404   6.991  20.917  0.00  0.00    +0.007 C 
ATOM     19  C   UNL     1     -12.000   6.289  21.095  0.00  0.00    +0.007 C 
ENDBRANCH   9  13
BRANCH  10  16
ATOM     16  C   UNL     1     -12.976  10.606  21.636  0.00  0.00    +0.113 C 
BRANCH  16   5
ATOM      5  N   UNL     1     -12.294  11.536  22.548  0.00  0.00    -0.194 NA
ATOM     34  H   UNL     1     -11.272  11.555  22.435  0.00  0.00    +0.148 HD
BRANCH   5   1
ATOM      1  S   UNL     1     -12.857  11.696  24.154  0.00  0.00    +0.029 S 
ATOM      3  O   UNL     1     -13.998  10.825  24.362  0.00  0.00    -0.158 OA
ATOM      4  O   UNL     1     -12.933  13.107  24.478  0.00  0.00    -0.158 OA
BRANCH   1  26
ATOM     26  C   UNL     1     -11.480  11.018  25.050  0.00  0.00    +0.185 C 
BRANCH  26  27
ATOM     27  C   UNL     1     -11.935  10.339  26.332  0.00  0.00    +0.021 C 
ATOM     29  C   UNL     1     -10.751   9.906  27.181  0.00  0.00    +0.005 C 
ENDBRANCH  26  27
ENDBRANCH   1  26
ENDBRANCH   5   1
ENDBRANCH  16   5
ENDBRANCH  10  16
BRANCH  12  17
ATOM     17  C   UNL     1     -12.381   9.217  17.045  0.00  0.00    +0.103 C 
BRANCH  17  21
ATOM      2  O   UNL     1     -10.740   9.068  15.335  0.00  0.00    -0.276 OA
ATOM      6  N   UNL     1     -12.850   8.234  14.832  0.00  0.00    -0.298 N 
ATOM      7  N   UNL     1     -14.661   6.785  13.100  0.00  0.00    -0.312 N 
ATOM      8  N   UNL     1     -16.697   6.619  11.915  0.00  0.00    -0.240 NA
ATOM     21  C   UNL     1     -11.906   8.836  15.664  0.00  0.00    +0.216 C 
ATOM     22  C   UNL     1     -12.469   7.840  13.478  0.00  0.00    +0.126 C 
ATOM     23  C   UNL     1     -14.231   7.950  15.229  0.00  0.00    +0.126 C 
ATOM     24  C   UNL     1     -13.211   6.587  13.018  0.00  0.00    +0.125 C 
ATOM     25  C   UNL     1     -15.170   7.794  14.032  0.00  0.00    +0.125 C 
ATOM     28  C   UNL     1     -15.525   6.056  12.285  0.00  0.00    +0.121 A 
ATOM     30  C   UNL     1     -15.119   4.787  11.905  0.00  0.00    +0.043 A 
ATOM     31  C   UNL     1     -15.972   4.048  11.093  0.00  0.00    +0.005 A 
ATOM     32  C   UNL     1     -17.499   5.870  11.126  0.00  0.00    +0.113 A 
ATOM     33  C   UNL     1     -17.186   4.592  10.691  0.00  0.00    +0.020 A 
ENDBRANCH  17  21
ENDBRANCH  12  17
TORSDOF 8
ENDMDL
MODEL 9
REMARK VINA RESULT:      -6.0     29.420     32.499
REMARK  Name = 38028898
REMARK  12 active torsions:
REMARK  status: ('A' for Active; 'I' for Inactive)
REMARK    1  A    between atoms: S_1  and  N_5
REMARK    2  A    between atoms: S_1  and  C_26
REMARK    3  A    between atoms: N_5  and  C_16
REMARK    4  A    between atoms: C_9  and  C_13
REMARK    5  A    between atoms: C_10  and  C_16
REMARK    6  A    between atoms: C_12  and  C_17
REMARK    7  A    between atoms: C_13  and  C_18
REMARK    8  A    between atoms: C_13  and  C_19
REMARK    9  A    between atoms: C_14  and  C_20
REMARK   10  A    between atoms: C_17  and  C_21
REMARK   11  A    between atoms: C_26  and  C_27
REMARK   12  A    between atoms: C_27  and  C_29
REMARK                            x       y       z     vdW  Elec       q    Type
REMARK                         _______ _______ _______ _____ _____    ______ ____
ROOT
ATOM      9  C   UNL     1     -11.222  10.927  17.528  0.00  0.00    +0.000 C 
ATOM     10  C   UNL     1     -10.475   9.810  16.757  0.00  0.00    +0.030 C 
ATOM     11  C   UNL     1     -11.131  10.687  19.042  0.00  0.00    +0.012 C 
ATOM     12  C   UNL     1     -11.728   9.326  19.453  0.00  0.00    +0.023 C 
ATOM     14  C   UNL     1     -11.240   8.205  18.558  0.00  0.00    -0.073 C 
ATOM     15  C   UNL     1     -10.670   8.441  17.363  0.00  0.00    -0.023 C 
ATOM     20  C   UNL     1     -11.381   6.805  19.090  0.00  0.00    +0.039 C 
ENDROOT
BRANCH   9  13
ATOM     13  C   UNL     1     -10.673  12.317  17.190  0.00  0.00    -0.013 C 
ATOM     18  C   UNL     1     -11.087  13.326  18.256  0.00  0.00    +0.007 C 
ATOM     19  C   UNL     1      -9.155  12.270  17.049  0.00  0.00    +0.007 C 
ENDBRANCH   9  13
BRANCH  10  16
ATOM     16  C   UNL     1     -10.895   9.781  15.282  0.00  0.00    +0.113 C 
BRANCH  16   5
ATOM      5  N   UNL     1     -10.892   8.390  14.808  0.00  0.00    -0.194 NA
ATOM     34  H   UNL     1     -10.010   7.892  14.985  0.00  0.00    +0.148 HD
BRANCH   5   1
ATOM      1  S   UNL     1     -11.669   8.007  13.335  0.00  0.00    +0.029 S 
ATOM      3  O   UNL     1     -11.804   6.568  13.211  0.00  0.00    -0.158 OA
ATOM      4  O   UNL     1     -11.061   8.788  12.276  0.00  0.00    -0.158 OA
BRANCH   1  26
ATOM     26  C   UNL     1     -13.285   8.684  13.635  0.00  0.00    +0.185 C 
BRANCH  26  27
ATOM     27  C   UNL     1     -14.138   7.734  14.460  0.00  0.00    +0.021 C 
ATOM     29  C   UNL     1     -14.139   8.123  15.930  0.00  0.00    +0.005 C 
ENDBRANCH  26  27
ENDBRANCH   1  26
ENDBRANCH   5   1
ENDBRANCH  16   5
ENDBRANCH  10  16
BRANCH  12  17
ATOM     17  C   UNL     1     -13.259   9.381  19.479  0.00  0.00    +0.103 C 
BRANCH  17  21
ATOM      2  O   UNL     1     -13.730  10.801  21.323  0.00  0.00    -0.276 OA
ATOM      6  N   UNL     1     -14.169   8.538  21.611  0.00  0.00    -0.298 N 
ATOM      7  N   UNL     1     -15.285   6.340  23.129  0.00  0.00    -0.312 N 
ATOM      8  N   UNL     1     -15.091   4.206  24.122  0.00  0.00    -0.240 NA
ATOM     21  C   UNL     1     -13.740   9.648  20.885  0.00  0.00    +0.216 C 
ATOM     22  C   UNL     1     -14.645   8.713  22.981  0.00  0.00    +0.126 C 
ATOM     23  C   UNL     1     -14.191   7.171  21.083  0.00  0.00    +0.126 C 
ATOM     24  C   UNL     1     -15.747   7.716  23.334  0.00  0.00    +0.125 C 
ATOM     25  C   UNL     1     -14.188   6.112  22.186  0.00  0.00    +0.125 C 
ATOM     28  C   UNL     1     -15.854   5.286  23.841  0.00  0.00    +0.121 A 
ATOM     30  C   UNL     1     -17.181   5.418  24.217  0.00  0.00    +0.043 A 
ATOM     31  C   UNL     1     -17.763   4.373  24.927  0.00  0.00    +0.005 A 
ATOM     32  C   UNL     1     -15.690   3.212  24.813  0.00  0.00    +0.113 A 
ATOM     33  C   UNL     1     -17.010   3.245  25.235  0.00  0.00    +0.020 A 
ENDBRANCH  17  21
ENDBRANCH  12  17
TORSDOF 8
ENDMDL
MODEL 10
REMARK VINA RESULT:      -6.0      3.134      4.796
REMARK  Name = 38028898
REMARK  12 active torsions:
REMARK  status: ('A' for Active; 'I' for Inactive)
REMARK    1  A    between atoms: S_1  and  N_5
REMARK    2  A    between atoms: S_1  and  C_26
REMARK    3  A    between atoms: N_5  and  C_16
REMARK    4  A    between atoms: C_9  and  C_13
REMARK    5  A    between atoms: C_10  and  C_16
REMARK    6  A    between atoms: C_12  and  C_17
REMARK    7  A    between atoms: C_13  and  C_18
REMARK    8  A    between atoms: C_13  and  C_19
REMARK    9  A    between atoms: C_14  and  C_20
REMARK   10  A    between atoms: C_17  and  C_21
REMARK   11  A    between atoms: C_26  and  C_27
REMARK   12  A    between atoms: C_27  and  C_29
REMARK                            x       y       z     vdW  Elec       q    Type
REMARK                         _______ _______ _______ _____ _____    ______ ____
ROOT
ATOM      9  C   UNL     1      14.184   9.444  18.008  0.00  0.00    +0.000 C 
ATOM     10  C   UNL     1      12.935   9.695  18.889  0.00  0.00    +0.030 C 
ATOM     11  C   UNL     1      14.462   7.938  17.887  0.00  0.00    +0.012 C 
ATOM     12  C   UNL     1      14.691   7.276  19.260  0.00  0.00    +0.023 C 
ATOM     14  C   UNL     1      13.639   7.692  20.268  0.00  0.00    -0.073 C 
ATOM     15  C   UNL     1      12.854   8.768  20.079  0.00  0.00    -0.023 C 
ATOM     20  C   UNL     1      13.479   6.815  21.479  0.00  0.00    +0.039 C 
ENDROOT
BRANCH   9  13
ATOM     13  C   UNL     1      14.029  10.056  16.612  0.00  0.00    -0.013 C 
ATOM     18  C   UNL     1      15.080  11.137  16.385  0.00  0.00    +0.007 C 
ATOM     19  C   UNL     1      14.127   8.973  15.543  0.00  0.00    +0.007 C 
ENDBRANCH   9  13
BRANCH  10  16
ATOM     16  C   UNL     1      12.881  11.150  19.370  0.00  0.00    +0.113 C 
BRANCH  16   5
ATOM      5  N   UNL     1      12.476  11.175  20.783  0.00  0.00    -0.194 NA
ATOM     34  H   UNL     1      11.493  11.439  20.929  0.00  0.00    +0.148 HD
BRANCH   5   1
ATOM      1  S   UNL     1      13.574  11.754  21.957  0.00  0.00    +0.029 S 
ATOM      3  O   UNL     1      13.862  10.707  22.918  0.00  0.00    -0.158 OA
ATOM      4  O   UNL     1      13.133  13.063  22.397  0.00  0.00    -0.158 OA
BRANCH   1  26
ATOM     26  C   UNL     1      15.024  11.991  20.956  0.00  0.00    +0.185 C 
BRANCH  26  27
ATOM     27  C   UNL     1      16.093  10.959  21.278  0.00  0.00    +0.021 C 
ATOM     29  C   UNL     1      17.275  11.070  20.329  0.00  0.00    +0.005 C 
ENDBRANCH  26  27
ENDBRANCH   1  26
ENDBRANCH   5   1
ENDBRANCH  16   5
ENDBRANCH  10  16
BRANCH  12  17
ATOM     17  C   UNL     1      16.101   7.568  19.785  0.00  0.00    +0.103 C 
BRANCH  17  21
ATOM      2  O   UNL     1      16.733   5.621  18.583  0.00  0.00    -0.276 OA
ATOM      6  N   UNL     1      18.123   6.266  20.330  0.00  0.00    -0.298 N 
ATOM      7  N   UNL     1      20.579   6.024  21.844  0.00  0.00    -0.312 N 
ATOM      8  N   UNL     1      21.727   5.794  23.894  0.00  0.00    -0.240 NA
ATOM     21  C   UNL     1      17.008   6.395  19.502  0.00  0.00    +0.216 C 
ATOM     22  C   UNL     1      19.048   5.153  20.124  0.00  0.00    +0.126 C 
ATOM     23  C   UNL     1      18.453   7.194  21.414  0.00  0.00    +0.126 C 
ATOM     24  C   UNL     1      20.486   5.536  20.465  0.00  0.00    +0.125 C 
ATOM     25  C   UNL     1      19.372   6.572  22.466  0.00  0.00    +0.125 C 
ATOM     28  C   UNL     1      21.776   5.933  22.551  0.00  0.00    +0.121 A 
ATOM     30  C   UNL     1      22.951   5.993  21.818  0.00  0.00    +0.043 A 
ATOM     31  C   UNL     1      24.154   5.905  22.511  0.00  0.00    +0.005 A 
ATOM     32  C   UNL     1      22.916   5.711  24.532  0.00  0.00    +0.113 A 
ATOM     33  C   UNL     1      24.145   5.761  23.894  0.00  0.00    +0.020 A 
ENDBRANCH  17  21
ENDBRANCH  12  17
TORSDOF 8
ENDMDL
