MODEL 1
REMARK VINA RESULT:      -7.8      0.000      0.000
REMARK  Name = 7051746
REMARK  8 active torsions:
REMARK  status: ('A' for Active; 'I' for Inactive)
REMARK    1  A    between atoms: N_2  and  C_13
REMARK    2  A    between atoms: N_4  and  C_27
REMARK    3  A    between atoms: N_5  and  C_28
REMARK    4  A    between atoms: N_5  and  C_34
REMARK    5  A    between atoms: N_5  and  C_35
REMARK    6  A    between atoms: C_13  and  C_16
REMARK    7  A    between atoms: C_17  and  C_21
REMARK    8  A    between atoms: C_23  and  C_28
REMARK                            x       y       z     vdW  Elec       q    Type
REMARK                         _______ _______ _______ _____ _____    ______ ____
ROOT
ATOM      1  O   UNL     1      -6.040 -11.786  10.618  0.00  0.00    -0.267 OA
ATOM      2  N   UNL     1      -3.273 -11.003  14.727  0.00  0.00    -0.297 NA
ATOM      3  N   UNL     1      -3.968 -11.587  11.670  0.00  0.00    -0.311 N 
ATOM      6  C   UNL     1      -3.189 -13.193  13.509  0.00  0.00    +0.024 C 
ATOM      7  C   UNL     1      -1.728 -11.362  12.797  0.00  0.00    +0.050 C 
ATOM      8  C   UNL     1      -1.792 -12.874  12.992  0.00  0.00    +0.017 C 
ATOM      9  C   UNL     1      -3.440 -12.457  14.843  0.00  0.00    +0.090 C 
ATOM     10  C   UNL     1      -1.965 -10.655  14.152  0.00  0.00    +0.094 C 
ATOM     11  C   UNL     1      -4.213 -12.822  12.429  0.00  0.00    +0.130 C 
ATOM     12  C   UNL     1      -2.753 -10.905  11.775  0.00  0.00    +0.026 A 
ATOM     14  C   UNL     1      -2.505  -9.845  10.990  0.00  0.00    +0.022 A 
ATOM     15  C   UNL     1      -4.970 -11.190  10.763  0.00  0.00    +0.259 A 
ATOM     17  C   UNL     1      -4.678  -9.978   9.921  0.00  0.00    +0.047 A 
ATOM     18  C   UNL     1      -3.488  -9.374  10.054  0.00  0.00    +0.015 A 
ENDROOT
BRANCH  17  21
ATOM     21  C   UNL     1      -5.674  -9.450   8.972  0.00  0.00    -0.008 A 
ATOM     23  C   UNL     1      -5.774  -9.945   7.670  0.00  0.00    -0.026 A 
ATOM     25  C   UNL     1      -6.531  -8.431   9.393  0.00  0.00    +0.009 A 
ATOM     30  C   UNL     1      -6.727  -9.425   6.795  0.00  0.00    +0.005 A 
ATOM     32  C   UNL     1      -7.483  -7.909   8.517  0.00  0.00    +0.001 A 
ATOM     33  C   UNL     1      -7.581  -8.407   7.218  0.00  0.00    +0.000 A 
BRANCH  23  28
ATOM     28  C   UNL     1      -4.876 -11.036   7.182  0.00  0.00    +0.119 C 
BRANCH  28   5
ATOM      5  N   UNL     1      -5.489 -11.756   6.088  0.00  0.00    -0.304 NA
ATOM     34  C   UNL     1      -5.972 -13.071   6.529  0.00  0.00    +0.104 C 
ATOM     35  C   UNL     1      -4.549 -11.920   4.972  0.00  0.00    +0.104 C 
ENDBRANCH  28   5
ENDBRANCH  23  28
ENDBRANCH  17  21
BRANCH   2  13
ATOM     13  C   UNL     1      -3.465 -10.349  16.019  0.00  0.00    +0.121 C 
BRANCH  13  16
ATOM      4  N   UNL     1      -7.084  -9.882  16.178  0.00  0.00    -0.349 N 
ATOM     16  C   UNL     1      -4.929 -10.259  16.353  0.00  0.00    -0.008 A 
ATOM     19  C   UNL     1      -5.514 -10.621  17.580  0.00  0.00    +0.004 A 
ATOM     20  C   UNL     1      -5.893  -9.810  15.505  0.00  0.00    +0.091 A 
ATOM     22  C   UNL     1      -6.882 -10.374  17.448  0.00  0.00    +0.049 A 
ATOM     24  C   UNL     1      -5.033 -11.136  18.800  0.00  0.00    +0.010 A 
ATOM     26  C   UNL     1      -7.796 -10.617  18.479  0.00  0.00    +0.026 A 
ATOM     27  C   UNL     1      -8.361  -9.495  15.620  0.00  0.00    +0.149 C 
ATOM     29  C   UNL     1      -5.935 -11.383  19.841  0.00  0.00    +0.001 A 
ATOM     31  C   UNL     1      -7.296 -11.127  19.680  0.00  0.00    +0.002 A 
ENDBRANCH  13  16
ENDBRANCH   2  13
TORSDOF 5
ENDMDL
MODEL 2
REMARK VINA RESULT:      -7.7     24.040     26.839
REMARK  Name = 7051746
REMARK  8 active torsions:
REMARK  status: ('A' for Active; 'I' for Inactive)
REMARK    1  A    between atoms: N_2  and  C_13
REMARK    2  A    between atoms: N_4  and  C_27
REMARK    3  A    between atoms: N_5  and  C_28
REMARK    4  A    between atoms: N_5  and  C_34
REMARK    5  A    between atoms: N_5  and  C_35
REMARK    6  A    between atoms: C_13  and  C_16
REMARK    7  A    between atoms: C_17  and  C_21
REMARK    8  A    between atoms: C_23  and  C_28
REMARK                            x       y       z     vdW  Elec       q    Type
REMARK                         _______ _______ _______ _____ _____    ______ ____
ROOT
ATOM      1  O   UNL     1      12.225   7.756   2.558  0.00  0.00    -0.267 OA
ATOM      2  N   UNL     1      13.808   4.458  -0.873  0.00  0.00    -0.297 NA
ATOM      3  N   UNL     1      12.786   5.580   1.932  0.00  0.00    -0.311 N 
ATOM      6  C   UNL     1      15.150   4.918   1.194  0.00  0.00    +0.024 C 
ATOM      7  C   UNL     1      13.380   3.228   1.259  0.00  0.00    +0.050 C 
ATOM      8  C   UNL     1      14.785   3.552   1.760  0.00  0.00    +0.017 C 
ATOM      9  C   UNL     1      15.112   4.880  -0.349  0.00  0.00    +0.090 C 
ATOM     10  C   UNL     1      13.380   3.179  -0.286  0.00  0.00    +0.094 C 
ATOM     11  C   UNL     1      14.196   5.968   1.781  0.00  0.00    +0.130 C 
ATOM     12  C   UNL     1      12.380   4.255   1.757  0.00  0.00    +0.026 A 
ATOM     14  C   UNL     1      11.110   3.901   2.010  0.00  0.00    +0.022 A 
ATOM     15  C   UNL     1      11.896   6.584   2.360  0.00  0.00    +0.259 A 
ATOM     17  C   UNL     1      10.471   6.165   2.602  0.00  0.00    +0.047 A 
ATOM     18  C   UNL     1      10.143   4.875   2.433  0.00  0.00    +0.015 A 
ENDROOT
BRANCH  17  21
ATOM     21  C   UNL     1       9.446   7.142   3.009  0.00  0.00    -0.008 A 
ATOM     23  C   UNL     1       9.003   7.226   4.331  0.00  0.00    -0.026 A 
ATOM     25  C   UNL     1       8.911   7.998   2.044  0.00  0.00    +0.009 A 
ATOM     30  C   UNL     1       8.032   8.161   4.686  0.00  0.00    +0.005 A 
ATOM     32  C   UNL     1       7.939   8.933   2.399  0.00  0.00    +0.001 A 
ATOM     33  C   UNL     1       7.499   9.014   3.720  0.00  0.00    +0.000 A 
BRANCH  23  28
ATOM     28  C   UNL     1       9.551   6.327   5.393  0.00  0.00    +0.119 C 
BRANCH  28   5
ATOM      5  N   UNL     1      10.398   7.065   6.304  0.00  0.00    -0.304 NA
ATOM     34  C   UNL     1      11.813   6.743   6.084  0.00  0.00    +0.104 C 
ATOM     35  C   UNL     1      10.036   6.790   7.701  0.00  0.00    +0.104 C 
ENDBRANCH  28   5
ENDBRANCH  23  28
ENDBRANCH  17  21
BRANCH   2  13
ATOM     13  C   UNL     1      13.829   4.382  -2.332  0.00  0.00    +0.121 C 
BRANCH  13  16
ATOM      4  N   UNL     1      10.721   3.605  -4.086  0.00  0.00    -0.349 N 
ATOM     16  C   UNL     1      12.432   4.253  -2.874  0.00  0.00    -0.008 A 
ATOM     19  C   UNL     1      11.305   4.959  -2.412  0.00  0.00    +0.004 A 
ATOM     20  C   UNL     1      12.066   3.432  -3.893  0.00  0.00    +0.091 A 
ATOM     22  C   UNL     1      10.230   4.533  -3.194  0.00  0.00    +0.049 A 
ATOM     24  C   UNL     1      11.074   5.920  -1.408  0.00  0.00    +0.010 A 
ATOM     26  C   UNL     1       8.931   5.022  -3.023  0.00  0.00    +0.026 A 
ATOM     27  C   UNL     1       9.943   2.906  -5.085  0.00  0.00    +0.149 C 
ATOM     29  C   UNL     1       9.779   6.419  -1.224  0.00  0.00    +0.001 A 
ATOM     31  C   UNL     1       8.725   5.975  -2.021  0.00  0.00    +0.002 A 
ENDBRANCH  13  16
ENDBRANCH   2  13
TORSDOF 5
ENDMDL
MODEL 3
REMARK VINA RESULT:      -7.2     20.826     23.575
REMARK  Name = 7051746
REMARK  8 active torsions:
REMARK  status: ('A' for Active; 'I' for Inactive)
REMARK    1  A    between atoms: N_2  and  C_13
REMARK    2  A    between atoms: N_4  and  C_27
REMARK    3  A    between atoms: N_5  and  C_28
REMARK    4  A    between atoms: N_5  and  C_34
REMARK    5  A    between atoms: N_5  and  C_35
REMARK    6  A    between atoms: C_13  and  C_16
REMARK    7  A    between atoms: C_17  and  C_21
REMARK    8  A    between atoms: C_23  and  C_28
REMARK                            x       y       z     vdW  Elec       q    Type
REMARK                         _______ _______ _______ _____ _____    ______ ____
ROOT
ATOM      1  O   UNL     1       8.877 -12.276  31.903  0.00  0.00    -0.267 OA
ATOM      2  N   UNL     1       7.230  -8.721  35.033  0.00  0.00    -0.297 NA
ATOM      3  N   UNL     1       8.450 -10.037  32.397  0.00  0.00    -0.311 N 
ATOM      6  C   UNL     1       9.628  -8.792  34.303  0.00  0.00    +0.024 C 
ATOM      7  C   UNL     1       7.982  -7.619  32.921  0.00  0.00    +0.050 C 
ATOM      8  C   UNL     1       9.419  -7.561  33.430  0.00  0.00    +0.017 C 
ATOM      9  C   UNL     1       8.627  -8.783  35.479  0.00  0.00    +0.090 C 
ATOM     10  C   UNL     1       7.006  -7.590  34.119  0.00  0.00    +0.094 C 
ATOM     11  C   UNL     1       9.498 -10.046  33.428  0.00  0.00    +0.130 C 
ATOM     12  C   UNL     1       7.756  -8.865  32.084  0.00  0.00    +0.026 A 
ATOM     14  C   UNL     1       6.885  -8.852  31.063  0.00  0.00    +0.022 A 
ATOM     15  C   UNL     1       8.259 -11.233  31.678  0.00  0.00    +0.259 A 
ATOM     17  C   UNL     1       7.251 -11.196  30.562  0.00  0.00    +0.047 A 
ATOM     18  C   UNL     1       6.627 -10.038  30.297  0.00  0.00    +0.015 A 
ENDROOT
BRANCH  17  21
ATOM     21  C   UNL     1       6.939 -12.401  29.774  0.00  0.00    -0.008 A 
ATOM     23  C   UNL     1       7.762 -12.819  28.725  0.00  0.00    -0.026 A 
ATOM     25  C   UNL     1       5.793 -13.134  30.089  0.00  0.00    +0.009 A 
ATOM     30  C   UNL     1       7.441 -13.965  27.998  0.00  0.00    +0.005 A 
ATOM     32  C   UNL     1       5.472 -14.280  29.360  0.00  0.00    +0.001 A 
ATOM     33  C   UNL     1       6.296 -14.694  28.314  0.00  0.00    +0.000 A 
BRANCH  23  28
ATOM     28  C   UNL     1       8.997 -12.062  28.357  0.00  0.00    +0.119 C 
BRANCH  28   5
ATOM      5  N   UNL     1      10.126 -12.955  28.217  0.00  0.00    -0.304 NA
ATOM     34  C   UNL     1      10.464 -13.582  29.501  0.00  0.00    +0.104 C 
ATOM     35  C   UNL     1      11.297 -12.247  27.685  0.00  0.00    +0.104 C 
ENDBRANCH  28   5
ENDBRANCH  23  28
ENDBRANCH  17  21
BRANCH   2  13
ATOM     13  C   UNL     1       6.319  -8.659  36.173  0.00  0.00    +0.121 C 
BRANCH  13  16
ATOM      4  N   UNL     1       2.980 -10.114  35.907  0.00  0.00    -0.349 N 
ATOM     16  C   UNL     1       5.073  -9.454  35.897  0.00  0.00    -0.008 A 
ATOM     19  C   UNL     1       5.000 -10.614  35.103  0.00  0.00    +0.004 A 
ATOM     20  C   UNL     1       3.837  -9.158  36.382  0.00  0.00    +0.091 A 
ATOM     22  C   UNL     1       3.664 -11.017  35.123  0.00  0.00    +0.049 A 
ATOM     24  C   UNL     1       5.927 -11.375  34.363  0.00  0.00    +0.010 A 
ATOM     26  C   UNL     1       3.205 -12.146  34.437  0.00  0.00    +0.026 A 
ATOM     27  C   UNL     1       1.563 -10.156  36.196  0.00  0.00    +0.149 C 
ATOM     29  C   UNL     1       5.483 -12.508  33.672  0.00  0.00    +0.001 A 
ATOM     31  C   UNL     1       4.142 -12.886  33.709  0.00  0.00    +0.002 A 
ENDBRANCH  13  16
ENDBRANCH   2  13
TORSDOF 5
ENDMDL
MODEL 4
REMARK VINA RESULT:      -7.2      0.732      2.095
REMARK  Name = 7051746
REMARK  8 active torsions:
REMARK  status: ('A' for Active; 'I' for Inactive)
REMARK    1  A    between atoms: N_2  and  C_13
REMARK    2  A    between atoms: N_4  and  C_27
REMARK    3  A    between atoms: N_5  and  C_28
REMARK    4  A    between atoms: N_5  and  C_34
REMARK    5  A    between atoms: N_5  and  C_35
REMARK    6  A    between atoms: C_13  and  C_16
REMARK    7  A    between atoms: C_17  and  C_21
REMARK    8  A    between atoms: C_23  and  C_28
REMARK                            x       y       z     vdW  Elec       q    Type
REMARK                         _______ _______ _______ _____ _____    ______ ____
ROOT
ATOM      1  O   UNL     1      -6.062 -11.873  10.378  0.00  0.00    -0.267 OA
ATOM      2  N   UNL     1      -3.471 -11.098  14.601  0.00  0.00    -0.297 NA
ATOM      3  N   UNL     1      -4.036 -11.634  11.508  0.00  0.00    -0.311 N 
ATOM      6  C   UNL     1      -3.274 -13.257  13.340  0.00  0.00    +0.024 C 
ATOM      7  C   UNL     1      -1.846 -11.366  12.721  0.00  0.00    +0.050 C 
ATOM      8  C   UNL     1      -1.870 -12.883  12.881  0.00  0.00    +0.017 C 
ATOM      9  C   UNL     1      -3.595 -12.559  14.679  0.00  0.00    +0.090 C 
ATOM     10  C   UNL     1      -2.154 -10.698  14.081  0.00  0.00    +0.094 C 
ATOM     11  C   UNL     1      -4.270 -12.893  12.231  0.00  0.00    +0.130 C 
ATOM     12  C   UNL     1      -2.848 -10.918  11.673  0.00  0.00    +0.026 A 
ATOM     14  C   UNL     1      -2.606  -9.834  10.920  0.00  0.00    +0.022 A 
ATOM     15  C   UNL     1      -5.018 -11.248  10.575  0.00  0.00    +0.259 A 
ATOM     17  C   UNL     1      -4.734 -10.009   9.770  0.00  0.00    +0.047 A 
ATOM     18  C   UNL     1      -3.569  -9.372   9.960  0.00  0.00    +0.015 A 
ENDROOT
BRANCH  17  21
ATOM     21  C   UNL     1      -5.711  -9.490   8.797  0.00  0.00    -0.008 A 
ATOM     23  C   UNL     1      -5.721  -9.927   7.470  0.00  0.00    -0.026 A 
ATOM     25  C   UNL     1      -6.643  -8.540   9.220  0.00  0.00    +0.009 A 
ATOM     30  C   UNL     1      -6.658  -9.417   6.572  0.00  0.00    +0.005 A 
ATOM     32  C   UNL     1      -7.580  -8.029   8.322  0.00  0.00    +0.001 A 
ATOM     33  C   UNL     1      -7.587  -8.468   6.998  0.00  0.00    +0.000 A 
BRANCH  23  28
ATOM     28  C   UNL     1      -4.740 -10.942   6.979  0.00  0.00    +0.119 C 
BRANCH  28   5
ATOM      5  N   UNL     1      -5.347 -11.809   5.994  0.00  0.00    -0.304 NA
ATOM     34  C   UNL     1      -5.702 -13.107   6.582  0.00  0.00    +0.104 C 
ATOM     35  C   UNL     1      -4.454 -12.011   4.846  0.00  0.00    +0.104 C 
ENDBRANCH  28   5
ENDBRANCH  23  28
ENDBRANCH  17  21
BRANCH   2  13
ATOM     13  C   UNL     1      -3.729 -10.480  15.899  0.00  0.00    +0.121 C 
BRANCH  13  16
ATOM      4  N   UNL     1      -7.157 -10.303  17.146  0.00  0.00    -0.349 N 
ATOM     16  C   UNL     1      -5.209 -10.354  16.138  0.00  0.00    -0.008 A 
ATOM     19  C   UNL     1      -6.178 -10.085  15.153  0.00  0.00    +0.004 A 
ATOM     20  C   UNL     1      -5.815 -10.485  17.348  0.00  0.00    +0.091 A 
ATOM     22  C   UNL     1      -7.407 -10.057  15.814  0.00  0.00    +0.049 A 
ATOM     24  C   UNL     1      -6.150  -9.861  13.763  0.00  0.00    +0.010 A 
ATOM     26  C   UNL     1      -8.615  -9.814  15.152  0.00  0.00    +0.026 A 
ATOM     27  C   UNL     1      -8.155 -10.362  18.192  0.00  0.00    +0.149 C 
ATOM     29  C   UNL     1      -7.350  -9.616  13.086  0.00  0.00    +0.001 A 
ATOM     31  C   UNL     1      -8.563  -9.594  13.772  0.00  0.00    +0.002 A 
ENDBRANCH  13  16
ENDBRANCH   2  13
TORSDOF 5
ENDMDL
MODEL 5
REMARK VINA RESULT:      -7.0      2.900      8.357
REMARK  Name = 7051746
REMARK  8 active torsions:
REMARK  status: ('A' for Active; 'I' for Inactive)
REMARK    1  A    between atoms: N_2  and  C_13
REMARK    2  A    between atoms: N_4  and  C_27
REMARK    3  A    between atoms: N_5  and  C_28
REMARK    4  A    between atoms: N_5  and  C_34
REMARK    5  A    between atoms: N_5  and  C_35
REMARK    6  A    between atoms: C_13  and  C_16
REMARK    7  A    between atoms: C_17  and  C_21
REMARK    8  A    between atoms: C_23  and  C_28
REMARK                            x       y       z     vdW  Elec       q    Type
REMARK                         _______ _______ _______ _____ _____    ______ ____
ROOT
ATOM      1  O   UNL     1      -8.087  -8.915  17.533  0.00  0.00    -0.267 OA
ATOM      2  N   UNL     1      -5.049 -11.980  14.978  0.00  0.00    -0.297 NA
ATOM      3  N   UNL     1      -6.537 -10.657  17.469  0.00  0.00    -0.311 N 
ATOM      6  C   UNL     1      -4.133 -10.339  16.638  0.00  0.00    +0.024 C 
ATOM      7  C   UNL     1      -4.872 -12.544  17.406  0.00  0.00    +0.050 C 
ATOM      8  C   UNL     1      -3.806 -11.470  17.605  0.00  0.00    +0.017 C 
ATOM      9  C   UNL     1      -4.118 -10.864  15.186  0.00  0.00    +0.090 C 
ATOM     10  C   UNL     1      -4.819 -13.060  15.949  0.00  0.00    +0.094 C 
ATOM     11  C   UNL     1      -5.484  -9.728  17.031  0.00  0.00    +0.130 C 
ATOM     12  C   UNL     1      -6.252 -12.000  17.725  0.00  0.00    +0.026 A 
ATOM     14  C   UNL     1      -7.199 -12.804  18.233  0.00  0.00    +0.022 A 
ATOM     15  C   UNL     1      -7.808 -10.102  17.715  0.00  0.00    +0.259 A 
ATOM     17  C   UNL     1      -8.859 -11.036  18.250  0.00  0.00    +0.047 A 
ATOM     18  C   UNL     1      -8.523 -12.312  18.493  0.00  0.00    +0.015 A 
ENDROOT
BRANCH  17  21
ATOM     21  C   UNL     1     -10.236 -10.573  18.501  0.00  0.00    -0.008 A 
ATOM     23  C   UNL     1     -11.154 -10.420  17.460  0.00  0.00    -0.026 A 
ATOM     25  C   UNL     1     -10.620 -10.283  19.812  0.00  0.00    +0.009 A 
ATOM     30  C   UNL     1     -12.450  -9.981  17.729  0.00  0.00    +0.005 A 
ATOM     32  C   UNL     1     -11.916  -9.843  20.081  0.00  0.00    +0.001 A 
ATOM     33  C   UNL     1     -12.831  -9.692  19.039  0.00  0.00    +0.000 A 
BRANCH  23  28
ATOM     28  C   UNL     1     -10.781 -10.720  16.044  0.00  0.00    +0.119 C 
BRANCH  28   5
ATOM      5  N   UNL     1     -11.250  -9.679  15.157  0.00  0.00    -0.304 NA
ATOM     34  C   UNL     1     -11.937 -10.250  13.992  0.00  0.00    +0.104 C 
ATOM     35  C   UNL     1     -10.140  -8.826  14.712  0.00  0.00    +0.104 C 
ENDBRANCH  28   5
ENDBRANCH  23  28
ENDBRANCH  17  21
BRANCH   2  13
ATOM     13  C   UNL     1      -4.966 -12.483  13.609  0.00  0.00    +0.121 C 
BRANCH  13  16
ATOM      4  N   UNL     1      -6.762 -10.119  11.482  0.00  0.00    -0.349 N 
ATOM     16  C   UNL     1      -5.444 -11.442  12.635  0.00  0.00    -0.008 A 
ATOM     19  C   UNL     1      -4.624 -10.681  11.780  0.00  0.00    +0.004 A 
ATOM     20  C   UNL     1      -6.745 -11.092  12.445  0.00  0.00    +0.091 A 
ATOM     22  C   UNL     1      -5.481  -9.848  11.058  0.00  0.00    +0.049 A 
ATOM     24  C   UNL     1      -3.239 -10.604  11.537  0.00  0.00    +0.010 A 
ATOM     26  C   UNL     1      -5.020  -8.939  10.099  0.00  0.00    +0.026 A 
ATOM     27  C   UNL     1      -7.964  -9.478  10.992  0.00  0.00    +0.149 C 
ATOM     29  C   UNL     1      -2.762  -9.699  10.581  0.00  0.00    +0.001 A 
ATOM     31  C   UNL     1      -3.642  -8.880   9.875  0.00  0.00    +0.002 A 
ENDBRANCH  13  16
ENDBRANCH   2  13
TORSDOF 5
ENDMDL
MODEL 6
REMARK VINA RESULT:      -7.0      3.120      8.602
REMARK  Name = 7051746
REMARK  8 active torsions:
REMARK  status: ('A' for Active; 'I' for Inactive)
REMARK    1  A    between atoms: N_2  and  C_13
REMARK    2  A    between atoms: N_4  and  C_27
REMARK    3  A    between atoms: N_5  and  C_28
REMARK    4  A    between atoms: N_5  and  C_34
REMARK    5  A    between atoms: N_5  and  C_35
REMARK    6  A    between atoms: C_13  and  C_16
REMARK    7  A    between atoms: C_17  and  C_21
REMARK    8  A    between atoms: C_23  and  C_28
REMARK                            x       y       z     vdW  Elec       q    Type
REMARK                         _______ _______ _______ _____ _____    ______ ____
ROOT
ATOM      1  O   UNL     1      -8.608  -8.688  17.605  0.00  0.00    -0.267 OA
ATOM      2  N   UNL     1      -4.826 -11.559  15.992  0.00  0.00    -0.297 NA
ATOM      3  N   UNL     1      -7.510 -10.743  17.510  0.00  0.00    -0.311 N 
ATOM      6  C   UNL     1      -5.145 -11.093  18.435  0.00  0.00    +0.024 C 
ATOM      7  C   UNL     1      -6.335 -12.967  17.401  0.00  0.00    +0.050 C 
ATOM      8  C   UNL     1      -5.608 -12.526  18.668  0.00  0.00    +0.017 C 
ATOM      9  C   UNL     1      -4.203 -11.034  17.214  0.00  0.00    +0.090 C 
ATOM     10  C   UNL     1      -5.361 -12.913  16.201  0.00  0.00    +0.094 C 
ATOM     11  C   UNL     1      -6.379 -10.195  18.273  0.00  0.00    +0.130 C 
ATOM     12  C   UNL     1      -7.545 -12.090  17.140  0.00  0.00    +0.026 A 
ATOM     14  C   UNL     1      -8.636 -12.596  16.544  0.00  0.00    +0.022 A 
ATOM     15  C   UNL     1      -8.590  -9.872  17.264  0.00  0.00    +0.259 A 
ATOM     17  C   UNL     1      -9.784 -10.460  16.563  0.00  0.00    +0.047 A 
ATOM     18  C   UNL     1      -9.768 -11.763  16.247  0.00  0.00    +0.015 A 
ENDROOT
BRANCH  17  21
ATOM     21  C   UNL     1     -10.951  -9.629  16.216  0.00  0.00    -0.008 A 
ATOM     23  C   UNL     1     -12.108  -9.635  17.000  0.00  0.00    -0.026 A 
ATOM     25  C   UNL     1     -10.889  -8.822  15.078  0.00  0.00    +0.009 A 
ATOM     30  C   UNL     1     -13.196  -8.837  16.647  0.00  0.00    +0.005 A 
ATOM     32  C   UNL     1     -11.978  -8.026  14.724  0.00  0.00    +0.001 A 
ATOM     33  C   UNL     1     -13.131  -8.033  15.509  0.00  0.00    +0.000 A 
BRANCH  23  28
ATOM     28  C   UNL     1     -12.212 -10.484  18.225  0.00  0.00    +0.119 C 
BRANCH  28   5
ATOM      5  N   UNL     1     -11.913  -9.714  19.412  0.00  0.00    -0.304 NA
ATOM     34  C   UNL     1     -10.754 -10.269  20.122  0.00  0.00    +0.104 C 
ATOM     35  C   UNL     1     -13.071  -9.662  20.314  0.00  0.00    +0.104 C 
ENDBRANCH  28   5
ENDBRANCH  23  28
ENDBRANCH  17  21
BRANCH   2  13
ATOM     13  C   UNL     1      -3.886 -11.536  14.874  0.00  0.00    +0.121 C 
BRANCH  13  16
ATOM      4  N   UNL     1      -5.931  -9.840  12.369  0.00  0.00    -0.349 N 
ATOM     16  C   UNL     1      -4.479 -10.804  13.702  0.00  0.00    -0.008 A 
ATOM     19  C   UNL     1      -3.765 -10.328  12.586  0.00  0.00    +0.004 A 
ATOM     20  C   UNL     1      -5.798 -10.502  13.560  0.00  0.00    +0.091 A 
ATOM     22  C   UNL     1      -4.706  -9.719  11.753  0.00  0.00    +0.049 A 
ATOM     24  C   UNL     1      -2.415 -10.344  12.187  0.00  0.00    +0.010 A 
ATOM     26  C   UNL     1      -4.362  -9.124  10.534  0.00  0.00    +0.026 A 
ATOM     27  C   UNL     1      -7.187  -9.344  11.847  0.00  0.00    +0.149 C 
ATOM     29  C   UNL     1      -2.055  -9.753  10.970  0.00  0.00    +0.001 A 
ATOM     31  C   UNL     1      -3.016  -9.152  10.158  0.00  0.00    +0.002 A 
ENDBRANCH  13  16
ENDBRANCH   2  13
TORSDOF 5
ENDMDL
MODEL 7
REMARK VINA RESULT:      -6.9      1.932      7.696
REMARK  Name = 7051746
REMARK  8 active torsions:
REMARK  status: ('A' for Active; 'I' for Inactive)
REMARK    1  A    between atoms: N_2  and  C_13
REMARK    2  A    between atoms: N_4  and  C_27
REMARK    3  A    between atoms: N_5  and  C_28
REMARK    4  A    between atoms: N_5  and  C_34
REMARK    5  A    between atoms: N_5  and  C_35
REMARK    6  A    between atoms: C_13  and  C_16
REMARK    7  A    between atoms: C_17  and  C_21
REMARK    8  A    between atoms: C_23  and  C_28
REMARK                            x       y       z     vdW  Elec       q    Type
REMARK                         _______ _______ _______ _____ _____    ______ ____
ROOT
ATOM      1  O   UNL     1      -4.934  -9.674  16.287  0.00  0.00    -0.267 OA
ATOM      2  N   UNL     1      -3.055 -10.360  11.688  0.00  0.00    -0.297 NA
ATOM      3  N   UNL     1      -4.187 -11.079  14.582  0.00  0.00    -0.311 N 
ATOM      6  C   UNL     1      -1.771 -11.053  13.727  0.00  0.00    +0.024 C 
ATOM      7  C   UNL     1      -3.392 -12.601  12.741  0.00  0.00    +0.050 C 
ATOM      8  C   UNL     1      -2.023 -12.521  13.411  0.00  0.00    +0.017 C 
ATOM      9  C   UNL     1      -1.794 -10.220  12.427  0.00  0.00    +0.090 C 
ATOM     10  C   UNL     1      -3.377 -11.773  11.436  0.00  0.00    +0.094 C 
ATOM     11  C   UNL     1      -2.814 -10.581  14.749  0.00  0.00    +0.130 C 
ATOM     12  C   UNL     1      -4.479 -12.100  13.674  0.00  0.00    +0.026 A 
ATOM     14  C   UNL     1      -5.715 -12.617  13.618  0.00  0.00    +0.022 A 
ATOM     15  C   UNL     1      -5.162 -10.550  15.450  0.00  0.00    +0.259 A 
ATOM     17  C   UNL     1      -6.547 -11.126  15.340  0.00  0.00    +0.047 A 
ATOM     18  C   UNL     1      -6.764 -12.116  14.461  0.00  0.00    +0.015 A 
ENDROOT
BRANCH  17  21
ATOM     21  C   UNL     1      -7.655 -10.617  16.169  0.00  0.00    -0.008 A 
ATOM     23  C   UNL     1      -7.929 -11.155  17.428  0.00  0.00    -0.026 A 
ATOM     25  C   UNL     1      -8.441  -9.574  15.675  0.00  0.00    +0.009 A 
ATOM     30  C   UNL     1      -8.984 -10.651  18.190  0.00  0.00    +0.005 A 
ATOM     32  C   UNL     1      -9.497  -9.072  16.435  0.00  0.00    +0.001 A 
ATOM     33  C   UNL     1      -9.768  -9.611  17.693  0.00  0.00    +0.000 A 
BRANCH  23  28
ATOM     28  C   UNL     1      -7.110 -12.271  17.992  0.00  0.00    +0.119 C 
BRANCH  28   5
ATOM      5  N   UNL     1      -5.930 -11.760  18.654  0.00  0.00    -0.304 NA
ATOM     34  C   UNL     1      -4.790 -12.666  18.469  0.00  0.00    +0.104 C 
ATOM     35  C   UNL     1      -6.175 -11.554  20.087  0.00  0.00    +0.104 C 
ENDBRANCH  28   5
ENDBRANCH  23  28
ENDBRANCH  17  21
BRANCH   2  13
ATOM     13  C   UNL     1      -3.018  -9.602  10.440  0.00  0.00    +0.121 C 
BRANCH  13  16
ATOM      4  N   UNL     1      -5.945  -9.654   8.257  0.00  0.00    -0.349 N 
ATOM     16  C   UNL     1      -4.372  -9.595   9.786  0.00  0.00    -0.008 A 
ATOM     19  C   UNL     1      -5.604  -9.475  10.455  0.00  0.00    +0.004 A 
ATOM     20  C   UNL     1      -4.590  -9.703   8.448  0.00  0.00    +0.091 A 
ATOM     22  C   UNL     1      -6.589  -9.515   9.466  0.00  0.00    +0.049 A 
ATOM     24  C   UNL     1      -5.999  -9.336  11.800  0.00  0.00    +0.010 A 
ATOM     26  C   UNL     1      -7.955  -9.422   9.756  0.00  0.00    +0.026 A 
ATOM     27  C   UNL     1      -6.590  -9.738   6.965  0.00  0.00    +0.149 C 
ATOM     29  C   UNL     1      -7.361  -9.243  12.106  0.00  0.00    +0.001 A 
ATOM     31  C   UNL     1      -8.323  -9.285  11.098  0.00  0.00    +0.002 A 
ENDBRANCH  13  16
ENDBRANCH   2  13
TORSDOF 5
ENDMDL
MODEL 8
REMARK VINA RESULT:      -6.9     23.855     26.975
REMARK  Name = 7051746
REMARK  8 active torsions:
REMARK  status: ('A' for Active; 'I' for Inactive)
REMARK    1  A    between atoms: N_2  and  C_13
REMARK    2  A    between atoms: N_4  and  C_27
REMARK    3  A    between atoms: N_5  and  C_28
REMARK    4  A    between atoms: N_5  and  C_34
REMARK    5  A    between atoms: N_5  and  C_35
REMARK    6  A    between atoms: C_13  and  C_16
REMARK    7  A    between atoms: C_17  and  C_21
REMARK    8  A    between atoms: C_23  and  C_28
REMARK                            x       y       z     vdW  Elec       q    Type
REMARK                         _______ _______ _______ _____ _____    ______ ____
ROOT
ATOM      1  O   UNL     1      12.587   7.216   3.479  0.00  0.00    -0.267 OA
ATOM      2  N   UNL     1      13.658   5.242  -1.005  0.00  0.00    -0.297 NA
ATOM      3  N   UNL     1      13.213   5.406   2.149  0.00  0.00    -0.311 N 
ATOM      6  C   UNL     1      15.393   5.366   0.802  0.00  0.00    +0.024 C 
ATOM      7  C   UNL     1      13.878   3.445   0.717  0.00  0.00    +0.050 C 
ATOM      8  C   UNL     1      15.318   3.858   1.005  0.00  0.00    +0.017 C 
ATOM      9  C   UNL     1      14.997   5.726  -0.647  0.00  0.00    +0.090 C 
ATOM     10  C   UNL     1      13.519   3.801  -0.744  0.00  0.00    +0.094 C 
ATOM     11  C   UNL     1      14.498   6.050   1.844  0.00  0.00    +0.130 C 
ATOM     12  C   UNL     1      12.919   4.123   1.678  0.00  0.00    +0.026 A 
ATOM     14  C   UNL     1      11.790   3.508   2.061  0.00  0.00    +0.022 A 
ATOM     15  C   UNL     1      12.346   6.099   3.017  0.00  0.00    +0.259 A 
ATOM     17  C   UNL     1      11.072   5.398   3.401  0.00  0.00    +0.047 A 
ATOM     18  C   UNL     1      10.852   4.161   2.931  0.00  0.00    +0.015 A 
ENDROOT
BRANCH  17  21
ATOM     21  C   UNL     1      10.073   6.049   4.267  0.00  0.00    -0.008 A 
ATOM     23  C   UNL     1       9.182   7.000   3.766  0.00  0.00    -0.026 A 
ATOM     25  C   UNL     1      10.026   5.700   5.619  0.00  0.00    +0.009 A 
ATOM     30  C   UNL     1       8.248   7.598   4.611  0.00  0.00    +0.005 A 
ATOM     32  C   UNL     1       9.092   6.299   6.464  0.00  0.00    +0.001 A 
ATOM     33  C   UNL     1       8.203   7.248   5.960  0.00  0.00    +0.000 A 
BRANCH  23  28
ATOM     28  C   UNL     1       9.202   7.400   2.326  0.00  0.00    +0.119 C 
BRANCH  28   5
ATOM      5  N   UNL     1       9.161   8.839   2.191  0.00  0.00    -0.304 NA
ATOM     34  C   UNL     1       8.080   9.253   1.288  0.00  0.00    +0.104 C 
ATOM     35  C   UNL     1      10.444   9.360   1.701  0.00  0.00    +0.104 C 
ENDBRANCH  28   5
ENDBRANCH  23  28
ENDBRANCH  17  21
BRANCH   2  13
ATOM     13  C   UNL     1      13.344   5.554  -2.397  0.00  0.00    +0.121 C 
BRANCH  13  16
ATOM      4  N   UNL     1      10.090   4.207  -3.364  0.00  0.00    -0.349 N 
ATOM     16  C   UNL     1      11.902   5.248  -2.693  0.00  0.00    -0.008 A 
ATOM     19  C   UNL     1      10.812   6.098  -2.427  0.00  0.00    +0.004 A 
ATOM     20  C   UNL     1      11.451   4.098  -3.263  0.00  0.00    +0.091 A 
ATOM     22  C   UNL     1       9.672   5.419  -2.861  0.00  0.00    +0.049 A 
ATOM     24  C   UNL     1      10.663   7.380  -1.862  0.00  0.00    +0.010 A 
ATOM     26  C   UNL     1       8.386   5.958  -2.758  0.00  0.00    +0.026 A 
ATOM     27  C   UNL     1       9.229   3.186  -3.920  0.00  0.00    +0.149 C 
ATOM     29  C   UNL     1       9.382   7.934  -1.752  0.00  0.00    +0.001 A 
ATOM     31  C   UNL     1       8.262   7.232  -2.194  0.00  0.00    +0.002 A 
ENDBRANCH  13  16
ENDBRANCH   2  13
TORSDOF 5
ENDMDL
MODEL 9
REMARK VINA RESULT:      -6.7     24.248     26.829
REMARK  Name = 7051746
REMARK  8 active torsions:
REMARK  status: ('A' for Active; 'I' for Inactive)
REMARK    1  A    between atoms: N_2  and  C_13
REMARK    2  A    between atoms: N_4  and  C_27
REMARK    3  A    between atoms: N_5  and  C_28
REMARK    4  A    between atoms: N_5  and  C_34
REMARK    5  A    between atoms: N_5  and  C_35
REMARK    6  A    between atoms: C_13  and  C_16
REMARK    7  A    between atoms: C_17  and  C_21
REMARK    8  A    between atoms: C_23  and  C_28
REMARK                            x       y       z     vdW  Elec       q    Type
REMARK                         _______ _______ _______ _____ _____    ______ ____
ROOT
ATOM      1  O   UNL     1      11.863   7.374   1.079  0.00  0.00    -0.267 OA
ATOM      2  N   UNL     1      10.579   8.100   5.872  0.00  0.00    -0.297 NA
ATOM      3  N   UNL     1      10.518   6.891   2.922  0.00  0.00    -0.311 N 
ATOM      6  C   UNL     1       8.986   8.633   4.011  0.00  0.00    +0.024 C 
ATOM      7  C   UNL     1       9.069   6.358   4.911  0.00  0.00    +0.050 C 
ATOM      8  C   UNL     1       8.125   7.432   4.377  0.00  0.00    +0.017 C 
ATOM      9  C   UNL     1       9.745   9.140   5.256  0.00  0.00    +0.090 C 
ATOM     10  C   UNL     1       9.800   6.888   6.165  0.00  0.00    +0.094 C 
ATOM     11  C   UNL     1       9.928   8.237   2.867  0.00  0.00    +0.130 C 
ATOM     12  C   UNL     1      10.072   5.945   3.849  0.00  0.00    +0.026 A 
ATOM     14  C   UNL     1      10.543   4.690   3.808  0.00  0.00    +0.022 A 
ATOM     15  C   UNL     1      11.471   6.577   1.934  0.00  0.00    +0.259 A 
ATOM     17  C   UNL     1      12.006   5.171   1.935  0.00  0.00    +0.047 A 
ATOM     18  C   UNL     1      11.529   4.302   2.839  0.00  0.00    +0.015 A 
ENDROOT
BRANCH  17  21
ATOM     21  C   UNL     1      13.040   4.746   0.975  0.00  0.00    -0.008 A 
ATOM     23  C   UNL     1      12.704   4.279  -0.299  0.00  0.00    -0.026 A 
ATOM     25  C   UNL     1      14.382   4.814   1.355  0.00  0.00    +0.009 A 
ATOM     30  C   UNL     1      13.704   3.885  -1.186  0.00  0.00    +0.005 A 
ATOM     32  C   UNL     1      15.383   4.418   0.468  0.00  0.00    +0.001 A 
ATOM     33  C   UNL     1      15.043   3.953  -0.803  0.00  0.00    +0.000 A 
BRANCH  23  28
ATOM     28  C   UNL     1      11.279   4.192  -0.743  0.00  0.00    +0.119 C 
BRANCH  28   5
ATOM      5  N   UNL     1      11.120   4.743  -2.070  0.00  0.00    -0.304 NA
ATOM     34  C   UNL     1      10.675   6.141  -2.010  0.00  0.00    +0.104 C 
ATOM     35  C   UNL     1      10.167   3.952  -2.860  0.00  0.00    +0.104 C 
ENDBRANCH  28   5
ENDBRANCH  23  28
ENDBRANCH  17  21
BRANCH   2  13
ATOM     13  C   UNL     1      11.237   8.602   7.076  0.00  0.00    +0.121 C 
BRANCH  13  16
ATOM      4  N   UNL     1      14.410  10.377   6.731  0.00  0.00    -0.349 N 
ATOM     16  C   UNL     1      12.610   9.122   6.749  0.00  0.00    -0.008 A 
ATOM     19  C   UNL     1      13.520   8.529   5.855  0.00  0.00    +0.004 A 
ATOM     20  C   UNL     1      13.161  10.248   7.278  0.00  0.00    +0.091 A 
ATOM     22  C   UNL     1      14.655   9.341   5.858  0.00  0.00    +0.049 A 
ATOM     24  C   UNL     1      13.508   7.383   5.035  0.00  0.00    +0.010 A 
ATOM     26  C   UNL     1      15.784   9.064   5.080  0.00  0.00    +0.026 A 
ATOM     27  C   UNL     1      15.327  11.453   7.038  0.00  0.00    +0.149 C 
ATOM     29  C   UNL     1      14.630   7.093   4.250  0.00  0.00    +0.001 A 
ATOM     31  C   UNL     1      15.750   7.922   4.274  0.00  0.00    +0.002 A 
ENDBRANCH  13  16
ENDBRANCH   2  13
TORSDOF 5
ENDMDL
MODEL 10
REMARK VINA RESULT:      -6.7      2.426      4.338
REMARK  Name = 7051746
REMARK  8 active torsions:
REMARK  status: ('A' for Active; 'I' for Inactive)
REMARK    1  A    between atoms: N_2  and  C_13
REMARK    2  A    between atoms: N_4  and  C_27
REMARK    3  A    between atoms: N_5  and  C_28
REMARK    4  A    between atoms: N_5  and  C_34
REMARK    5  A    between atoms: N_5  and  C_35
REMARK    6  A    between atoms: C_13  and  C_16
REMARK    7  A    between atoms: C_17  and  C_21
REMARK    8  A    between atoms: C_23  and  C_28
REMARK                            x       y       z     vdW  Elec       q    Type
REMARK                         _______ _______ _______ _____ _____    ______ ____
ROOT
ATOM      1  O   UNL     1      -6.535 -11.952  12.878  0.00  0.00    -0.267 OA
ATOM      2  N   UNL     1      -6.579 -11.395  17.862  0.00  0.00    -0.297 NA
ATOM      3  N   UNL     1      -5.541 -12.242  14.968  0.00  0.00    -0.311 N 
ATOM      6  C   UNL     1      -6.594 -13.673  16.815  0.00  0.00    +0.024 C 
ATOM      7  C   UNL     1      -4.458 -12.547  17.220  0.00  0.00    +0.050 C 
ATOM      8  C   UNL     1      -5.153 -13.905  17.252  0.00  0.00    +0.017 C 
ATOM      9  C   UNL     1      -7.285 -12.679  17.773  0.00  0.00    +0.090 C 
ATOM     10  C   UNL     1      -5.161 -11.582  18.201  0.00  0.00    +0.094 C 
ATOM     11  C   UNL     1      -6.596 -13.187  15.359  0.00  0.00    +0.130 C 
ATOM     12  C   UNL     1      -4.464 -11.971  15.815  0.00  0.00    +0.026 A 
ATOM     14  C   UNL     1      -3.454 -11.194  15.394  0.00  0.00    +0.022 A 
ATOM     15  C   UNL     1      -5.618 -11.709  13.666  0.00  0.00    +0.259 A 
ATOM     17  C   UNL     1      -4.489 -10.814  13.234  0.00  0.00    +0.047 A 
ATOM     18  C   UNL     1      -3.473 -10.604  14.085  0.00  0.00    +0.015 A 
ENDROOT
BRANCH  17  21
ATOM     21  C   UNL     1      -4.490 -10.167  11.910  0.00  0.00    -0.008 A 
ATOM     23  C   UNL     1      -3.793 -10.716  10.831  0.00  0.00    -0.026 A 
ATOM     25  C   UNL     1      -5.206  -8.981  11.740  0.00  0.00    +0.009 A 
ATOM     30  C   UNL     1      -3.813 -10.081   9.589  0.00  0.00    +0.005 A 
ATOM     32  C   UNL     1      -5.225  -8.345  10.499  0.00  0.00    +0.001 A 
ATOM     33  C   UNL     1      -4.528  -8.896   9.423  0.00  0.00    +0.000 A 
BRANCH  23  28
ATOM     28  C   UNL     1      -3.015 -11.984  10.972  0.00  0.00    +0.119 C 
BRANCH  28   5
ATOM      5  N   UNL     1      -3.893 -13.133  10.943  0.00  0.00    -0.304 NA
ATOM     34  C   UNL     1      -3.372 -14.216  11.785  0.00  0.00    +0.104 C 
ATOM     35  C   UNL     1      -4.083 -13.617   9.570  0.00  0.00    +0.104 C 
ENDBRANCH  28   5
ENDBRANCH  23  28
ENDBRANCH  17  21
BRANCH   2  13
ATOM     13  C   UNL     1      -7.232 -10.504  18.818  0.00  0.00    +0.121 C 
BRANCH  13  16
ATOM      4  N   UNL     1      -9.754  -8.724  16.867  0.00  0.00    -0.349 N 
ATOM     16  C   UNL     1      -8.456  -9.879  18.206  0.00  0.00    -0.008 A 
ATOM     19  C   UNL     1      -9.772 -10.014  18.686  0.00  0.00    +0.004 A 
ATOM     20  C   UNL     1      -8.455  -9.091  17.098  0.00  0.00    +0.091 A 
ATOM     22  C   UNL     1     -10.580  -9.273  17.822  0.00  0.00    +0.049 A 
ATOM     24  C   UNL     1     -10.374 -10.688  19.767  0.00  0.00    +0.010 A 
ATOM     26  C   UNL     1     -11.966  -9.172  17.984  0.00  0.00    +0.026 A 
ATOM     27  C   UNL     1     -10.180  -7.880  15.771  0.00  0.00    +0.149 C 
ATOM     29  C   UNL     1     -11.760 -10.596  19.943  0.00  0.00    +0.001 A 
ATOM     31  C   UNL     1     -12.541  -9.849  19.063  0.00  0.00    +0.002 A 
ENDBRANCH  13  16
ENDBRANCH   2  13
TORSDOF 5
ENDMDL
