MODEL 1
REMARK VINA RESULT:      -6.8      0.000      0.000
REMARK  Name = 51137738
REMARK  7 active torsions:
REMARK  status: ('A' for Active; 'I' for Inactive)
REMARK    1  A    between atoms: O_3  and  C_19
REMARK    2  A    between atoms: C_8  and  C_12
REMARK    3  A    between atoms: C_13  and  C_14
REMARK    4  A    between atoms: C_14  and  C_15
REMARK    5  A    between atoms: C_15  and  C_17
REMARK    6  A    between atoms: C_16  and  C_18
REMARK    7  A    between atoms: C_17  and  C_19
REMARK                            x       y       z     vdW  Elec       q    Type
REMARK                         _______ _______ _______ _____ _____    ______ ____
ROOT
ATOM      2  O   UNL     1      11.725   7.321  17.404  0.00  0.00    -0.276 OA
ATOM      5  N   UNL     1      13.297   8.101  18.906  0.00  0.00    -0.301 N 
ATOM      8  C   UNL     1      14.632   7.041  20.564  0.00  0.00    +0.095 C 
ATOM      9  C   UNL     1      14.679   8.564  20.762  0.00  0.00    +0.033 C 
ATOM     10  C   UNL     1      13.384   6.874  19.687  0.00  0.00    +0.120 C 
ATOM     11  C   UNL     1      14.192   9.126  19.433  0.00  0.00    +0.108 C 
ATOM     13  C   UNL     1      12.463   8.219  17.809  0.00  0.00    +0.216 C 
ENDROOT
BRANCH   8  12
ATOM      1  O   UNL     1      17.032   6.580  20.802  0.00  0.00    -0.420 OA
ATOM      6  N   UNL     1      16.183   5.984  18.819  0.00  0.00    -0.112 NA
ATOM      7  N   UNL     1      17.530   5.671  18.819  0.00  0.00    -0.107 NA
ATOM     12  C   UNL     1      15.938   6.511  19.995  0.00  0.00    +0.222 A 
ATOM     16  C   UNL     1      17.984   6.037  19.995  0.00  0.00    +0.248 A 
BRANCH  16  18
ATOM     18  C   UNL     1      19.304   5.953  20.551  0.00  0.00    +0.038 A 
ATOM     20  C   UNL     1      19.757   6.943  21.422  0.00  0.00    +0.013 A 
ATOM     21  C   UNL     1      20.134   4.882  20.218  0.00  0.00    +0.013 A 
ATOM     22  C   UNL     1      21.041   6.862  21.963  0.00  0.00    +0.001 A 
ATOM     23  C   UNL     1      21.417   4.801  20.759  0.00  0.00    +0.001 A 
ATOM     24  C   UNL     1      21.870   5.790  21.631  0.00  0.00    +0.000 A 
ENDBRANCH  16  18
ENDBRANCH   8  12
BRANCH  13  14
ATOM     14  C   UNL     1      12.497   9.554  17.107  0.00  0.00    +0.096 C 
BRANCH  14  15
ATOM     15  C   UNL     1      13.431   9.503  15.908  0.00  0.00    +0.020 C 
BRANCH  15  17
ATOM     17  C   UNL     1      14.462  10.630  15.870  0.00  0.00    +0.121 C 
BRANCH  17  19
ATOM      4  O   UNL     1      16.084  11.445  14.275  0.00  0.00    -0.251 OA
ATOM     19  C   UNL     1      15.392  10.523  14.687  0.00  0.00    +0.305 C 
BRANCH  19   3
ATOM      3  O   UNL     1      15.377   9.290  14.121  0.00  0.00    -0.481 OA
ATOM     25  H   UNL     1      14.842   8.655  14.642  0.00  0.00    +0.295 HD
ENDBRANCH  19   3
ENDBRANCH  17  19
ENDBRANCH  15  17
ENDBRANCH  14  15
ENDBRANCH  13  14
TORSDOF 7
ENDMDL
MODEL 2
REMARK VINA RESULT:      -6.3     28.895     32.505
REMARK  Name = 51137738
REMARK  7 active torsions:
REMARK  status: ('A' for Active; 'I' for Inactive)
REMARK    1  A    between atoms: O_3  and  C_19
REMARK    2  A    between atoms: C_8  and  C_12
REMARK    3  A    between atoms: C_13  and  C_14
REMARK    4  A    between atoms: C_14  and  C_15
REMARK    5  A    between atoms: C_15  and  C_17
REMARK    6  A    between atoms: C_16  and  C_18
REMARK    7  A    between atoms: C_17  and  C_19
REMARK                            x       y       z     vdW  Elec       q    Type
REMARK                         _______ _______ _______ _____ _____    ______ ____
ROOT
ATOM      2  O   UNL     1     -16.526   4.488  28.143  0.00  0.00    -0.276 OA
ATOM      5  N   UNL     1     -16.582   3.629  25.999  0.00  0.00    -0.301 N 
ATOM      8  C   UNL     1     -16.589   4.632  23.843  0.00  0.00    +0.095 C 
ATOM      9  C   UNL     1     -16.959   3.146  23.720  0.00  0.00    +0.033 C 
ATOM     10  C   UNL     1     -16.840   4.900  25.332  0.00  0.00    +0.120 C 
ATOM     11  C   UNL     1     -16.491   2.537  25.036  0.00  0.00    +0.108 C 
ATOM     13  C   UNL     1     -16.440   3.532  27.372  0.00  0.00    +0.216 C 
ENDROOT
BRANCH   8  12
ATOM      1  O   UNL     1     -15.065   5.766  22.287  0.00  0.00    -0.420 OA
ATOM      6  N   UNL     1     -14.036   4.421  23.750  0.00  0.00    -0.112 NA
ATOM      7  N   UNL     1     -13.071   4.991  22.942  0.00  0.00    -0.107 NA
ATOM     12  C   UNL     1     -15.183   4.902  23.332  0.00  0.00    +0.222 A 
ATOM     16  C   UNL     1     -13.716   5.767  22.103  0.00  0.00    +0.248 A 
BRANCH  16  18
ATOM     18  C   UNL     1     -13.229   6.602  21.043  0.00  0.00    +0.038 A 
ATOM     20  C   UNL     1     -14.127   7.225  20.177  0.00  0.00    +0.013 A 
ATOM     21  C   UNL     1     -11.857   6.790  20.878  0.00  0.00    +0.013 A 
ATOM     22  C   UNL     1     -13.654   8.037  19.146  0.00  0.00    +0.001 A 
ATOM     23  C   UNL     1     -11.384   7.602  19.847  0.00  0.00    +0.001 A 
ATOM     24  C   UNL     1     -12.282   8.225  18.982  0.00  0.00    +0.000 A 
ENDBRANCH  16  18
ENDBRANCH   8  12
BRANCH  13  14
ATOM     14  C   UNL     1     -16.170   2.146  27.901  0.00  0.00    +0.096 C 
BRANCH  14  15
ATOM     15  C   UNL     1     -15.730   2.206  29.356  0.00  0.00    +0.020 C 
BRANCH  15  17
ATOM     17  C   UNL     1     -15.540   0.838  30.009  0.00  0.00    +0.121 C 
BRANCH  17  19
ATOM      4  O   UNL     1     -14.012  -0.935  29.408  0.00  0.00    -0.251 OA
ATOM     19  C   UNL     1     -14.189   0.238  29.711  0.00  0.00    +0.305 C 
BRANCH  19   3
ATOM      3  O   UNL     1     -13.182   1.140  29.820  0.00  0.00    -0.481 OA
ATOM     25  H   UNL     1     -13.218   1.628  30.671  0.00  0.00    +0.295 HD
ENDBRANCH  19   3
ENDBRANCH  17  19
ENDBRANCH  15  17
ENDBRANCH  14  15
ENDBRANCH  13  14
TORSDOF 7
ENDMDL
MODEL 3
REMARK VINA RESULT:      -6.3     26.639     28.977
REMARK  Name = 51137738
REMARK  7 active torsions:
REMARK  status: ('A' for Active; 'I' for Inactive)
REMARK    1  A    between atoms: O_3  and  C_19
REMARK    2  A    between atoms: C_8  and  C_12
REMARK    3  A    between atoms: C_13  and  C_14
REMARK    4  A    between atoms: C_14  and  C_15
REMARK    5  A    between atoms: C_15  and  C_17
REMARK    6  A    between atoms: C_16  and  C_18
REMARK    7  A    between atoms: C_17  and  C_19
REMARK                            x       y       z     vdW  Elec       q    Type
REMARK                         _______ _______ _______ _____ _____    ______ ____
ROOT
ATOM      2  O   UNL     1      -5.833 -12.116  15.912  0.00  0.00    -0.276 OA
ATOM      5  N   UNL     1      -3.637 -11.489  15.564  0.00  0.00    -0.301 N 
ATOM      8  C   UNL     1      -2.062 -11.962  13.848  0.00  0.00    +0.095 C 
ATOM      9  C   UNL     1      -1.339 -11.336  15.050  0.00  0.00    +0.033 C 
ATOM     10  C   UNL     1      -3.382 -12.425  14.477  0.00  0.00    +0.120 C 
ATOM     11  C   UNL     1      -2.456 -10.683  15.855  0.00  0.00    +0.108 C 
ATOM     13  C   UNL     1      -4.865 -11.410  16.197  0.00  0.00    +0.216 C 
ENDROOT
BRANCH   8  12
ATOM      1  O   UNL     1      -3.351 -10.952  12.019  0.00  0.00    -0.420 OA
ATOM      6  N   UNL     1      -1.272 -10.150  12.217  0.00  0.00    -0.112 NA
ATOM      7  N   UNL     1      -1.882  -9.500  11.160  0.00  0.00    -0.107 NA
ATOM     12  C   UNL     1      -2.167 -10.986  12.688  0.00  0.00    +0.222 A 
ATOM     16  C   UNL     1      -3.092 -10.000  11.080  0.00  0.00    +0.248 A 
BRANCH  16  18
ATOM     18  C   UNL     1      -4.165  -9.704  10.175  0.00  0.00    +0.038 A 
ATOM     20  C   UNL     1      -5.048  -8.662  10.457  0.00  0.00    +0.013 A 
ATOM     21  C   UNL     1      -4.325 -10.459   9.014  0.00  0.00    +0.013 A 
ATOM     22  C   UNL     1      -6.091  -8.374   9.577  0.00  0.00    +0.001 A 
ATOM     23  C   UNL     1      -5.369 -10.171   8.134  0.00  0.00    +0.001 A 
ATOM     24  C   UNL     1      -6.251  -9.128   8.415  0.00  0.00    +0.000 A 
ENDBRANCH  16  18
ENDBRANCH   8  12
BRANCH  13  14
ATOM     14  C   UNL     1      -4.964 -10.384  17.298  0.00  0.00    +0.096 C 
BRANCH  14  15
ATOM     15  C   UNL     1      -4.889 -11.055  18.661  0.00  0.00    +0.020 C 
BRANCH  15  17
ATOM     17  C   UNL     1      -6.099 -10.790  19.556  0.00  0.00    +0.121 C 
BRANCH  17  19
ATOM      4  O   UNL     1      -8.236 -11.831  19.986  0.00  0.00    -0.251 OA
ATOM     19  C   UNL     1      -7.117 -11.901  19.494  0.00  0.00    +0.305 C 
BRANCH  19   3
ATOM      3  O   UNL     1      -6.658 -12.994  18.837  0.00  0.00    -0.481 OA
ATOM     25  H   UNL     1      -6.747 -13.810  19.375  0.00  0.00    +0.295 HD
ENDBRANCH  19   3
ENDBRANCH  17  19
ENDBRANCH  15  17
ENDBRANCH  14  15
ENDBRANCH  13  14
TORSDOF 7
ENDMDL
MODEL 4
REMARK VINA RESULT:      -5.9     27.537     29.055
REMARK  Name = 51137738
REMARK  7 active torsions:
REMARK  status: ('A' for Active; 'I' for Inactive)
REMARK    1  A    between atoms: O_3  and  C_19
REMARK    2  A    between atoms: C_8  and  C_12
REMARK    3  A    between atoms: C_13  and  C_14
REMARK    4  A    between atoms: C_14  and  C_15
REMARK    5  A    between atoms: C_15  and  C_17
REMARK    6  A    between atoms: C_16  and  C_18
REMARK    7  A    between atoms: C_17  and  C_19
REMARK                            x       y       z     vdW  Elec       q    Type
REMARK                         _______ _______ _______ _____ _____    ______ ____
ROOT
ATOM      2  O   UNL     1      -8.592 -11.093  15.893  0.00  0.00    -0.276 OA
ATOM      5  N   UNL     1      -6.445 -10.982  16.740  0.00  0.00    -0.301 N 
ATOM      8  C   UNL     1      -4.459 -12.214  16.307  0.00  0.00    +0.095 C 
ATOM      9  C   UNL     1      -4.279 -11.382  17.586  0.00  0.00    +0.033 C 
ATOM     10  C   UNL     1      -5.985 -12.234  16.153  0.00  0.00    +0.120 C 
ATOM     11  C   UNL     1      -5.385 -10.337  17.507  0.00  0.00    +0.108 C 
ATOM     13  C   UNL     1      -7.732 -10.509  16.552  0.00  0.00    +0.216 C 
ENDROOT
BRANCH   8  12
ATOM      1  O   UNL     1      -4.381 -11.107  14.116  0.00  0.00    -0.420 OA
ATOM      6  N   UNL     1      -2.367 -11.560  14.979  0.00  0.00    -0.112 NA
ATOM      7  N   UNL     1      -2.179 -10.943  13.756  0.00  0.00    -0.107 NA
ATOM     12  C   UNL     1      -3.666 -11.634  15.148  0.00  0.00    +0.222 A 
ATOM     16  C   UNL     1      -3.380 -10.697  13.289  0.00  0.00    +0.248 A 
BRANCH  16  18
ATOM     18  C   UNL     1      -3.795 -10.075  12.065  0.00  0.00    +0.038 A 
ATOM     20  C   UNL     1      -2.871  -9.866  11.041  0.00  0.00    +0.013 A 
ATOM     21  C   UNL     1      -5.121  -9.677  11.899  0.00  0.00    +0.013 A 
ATOM     22  C   UNL     1      -3.273  -9.261   9.851  0.00  0.00    +0.001 A 
ATOM     23  C   UNL     1      -5.523  -9.071  10.708  0.00  0.00    +0.001 A 
ATOM     24  C   UNL     1      -4.600  -8.863   9.685  0.00  0.00    +0.000 A 
ENDBRANCH  16  18
ENDBRANCH   8  12
BRANCH  13  14
ATOM     14  C   UNL     1      -8.045  -9.195  17.223  0.00  0.00    +0.096 C 
BRANCH  14  15
ATOM     15  C   UNL     1      -9.550  -8.998  17.336  0.00  0.00    +0.020 C 
BRANCH  15  17
ATOM     17  C   UNL     1     -10.003  -7.547  17.188  0.00  0.00    +0.121 C 
BRANCH  17  19
ATOM      4  O   UNL     1     -10.660  -7.878  14.886  0.00  0.00    -0.251 OA
ATOM     19  C   UNL     1     -10.191  -7.144  15.746  0.00  0.00    +0.305 C 
BRANCH  19   3
ATOM      3  O   UNL     1      -9.777  -5.876  15.501  0.00  0.00    -0.481 OA
ATOM     25  H   UNL     1     -10.156  -5.236  16.141  0.00  0.00    +0.295 HD
ENDBRANCH  19   3
ENDBRANCH  17  19
ENDBRANCH  15  17
ENDBRANCH  14  15
ENDBRANCH  13  14
TORSDOF 7
ENDMDL
MODEL 5
REMARK VINA RESULT:      -5.9     26.982     29.600
REMARK  Name = 51137738
REMARK  7 active torsions:
REMARK  status: ('A' for Active; 'I' for Inactive)
REMARK    1  A    between atoms: O_3  and  C_19
REMARK    2  A    between atoms: C_8  and  C_12
REMARK    3  A    between atoms: C_13  and  C_14
REMARK    4  A    between atoms: C_14  and  C_15
REMARK    5  A    between atoms: C_15  and  C_17
REMARK    6  A    between atoms: C_16  and  C_18
REMARK    7  A    between atoms: C_17  and  C_19
REMARK                            x       y       z     vdW  Elec       q    Type
REMARK                         _______ _______ _______ _____ _____    ______ ____
ROOT
ATOM      2  O   UNL     1     -10.028 -10.535  16.100  0.00  0.00    -0.276 OA
ATOM      5  N   UNL     1      -8.984 -11.377  17.980  0.00  0.00    -0.301 N 
ATOM      8  C   UNL     1      -7.274 -12.997  18.306  0.00  0.00    +0.095 C 
ATOM      9  C   UNL     1      -7.950 -12.686  19.650  0.00  0.00    +0.033 C 
ATOM     10  C   UNL     1      -8.311 -12.478  17.302  0.00  0.00    +0.120 C 
ATOM     11  C   UNL     1      -8.671 -11.366  19.405  0.00  0.00    +0.108 C 
ATOM     13  C   UNL     1      -9.796 -10.482  17.308  0.00  0.00    +0.216 C 
ENDROOT
BRANCH   8  12
ATOM      1  O   UNL     1      -5.424 -12.072  16.983  0.00  0.00    -0.420 OA
ATOM      6  N   UNL     1      -5.036 -12.112  19.186  0.00  0.00    -0.112 NA
ATOM      7  N   UNL     1      -3.925 -11.572  18.566  0.00  0.00    -0.107 NA
ATOM     12  C   UNL     1      -5.884 -12.388  18.224  0.00  0.00    +0.222 A 
ATOM     16  C   UNL     1      -4.194 -11.569  17.282  0.00  0.00    +0.248 A 
BRANCH  16  18
ATOM     18  C   UNL     1      -3.410 -11.125  16.166  0.00  0.00    +0.038 A 
ATOM     20  C   UNL     1      -2.087 -10.730  16.357  0.00  0.00    +0.013 A 
ATOM     21  C   UNL     1      -3.972 -11.087  14.890  0.00  0.00    +0.013 A 
ATOM     22  C   UNL     1      -1.324 -10.298  15.272  0.00  0.00    +0.001 A 
ATOM     23  C   UNL     1      -3.209 -10.655  13.805  0.00  0.00    +0.001 A 
ATOM     24  C   UNL     1      -1.885 -10.261  13.996  0.00  0.00    +0.000 A 
ENDBRANCH  16  18
ENDBRANCH   8  12
BRANCH  13  14
ATOM     14  C   UNL     1     -10.411  -9.398  18.156  0.00  0.00    +0.096 C 
BRANCH  14  15
ATOM     15  C   UNL     1     -11.359  -8.543  17.328  0.00  0.00    +0.020 C 
BRANCH  15  17
ATOM     17  C   UNL     1     -10.883  -7.107  17.117  0.00  0.00    +0.121 C 
BRANCH  17  19
ATOM      4  O   UNL     1     -11.035  -6.027  14.961  0.00  0.00    -0.251 OA
ATOM     19  C   UNL     1     -10.476  -6.836  15.690  0.00  0.00    +0.305 C 
BRANCH  19   3
ATOM      3  O   UNL     1      -9.423  -7.594  15.295  0.00  0.00    -0.481 OA
ATOM     25  H   UNL     1      -8.763  -7.069  14.793  0.00  0.00    +0.295 HD
ENDBRANCH  19   3
ENDBRANCH  17  19
ENDBRANCH  15  17
ENDBRANCH  14  15
ENDBRANCH  13  14
TORSDOF 7
ENDMDL
MODEL 6
REMARK VINA RESULT:      -5.9     11.874     13.722
REMARK  Name = 51137738
REMARK  7 active torsions:
REMARK  status: ('A' for Active; 'I' for Inactive)
REMARK    1  A    between atoms: O_3  and  C_19
REMARK    2  A    between atoms: C_8  and  C_12
REMARK    3  A    between atoms: C_13  and  C_14
REMARK    4  A    between atoms: C_14  and  C_15
REMARK    5  A    between atoms: C_15  and  C_17
REMARK    6  A    between atoms: C_16  and  C_18
REMARK    7  A    between atoms: C_17  and  C_19
REMARK                            x       y       z     vdW  Elec       q    Type
REMARK                         _______ _______ _______ _____ _____    ______ ____
ROOT
ATOM      2  O   UNL     1      10.475   8.796   7.182  0.00  0.00    -0.276 OA
ATOM      5  N   UNL     1      12.116   8.049   5.737  0.00  0.00    -0.301 N 
ATOM      8  C   UNL     1      13.709   9.162   4.368  0.00  0.00    +0.095 C 
ATOM      9  C   UNL     1      13.634   7.680   3.969  0.00  0.00    +0.033 C 
ATOM     10  C   UNL     1      12.398   9.349   5.142  0.00  0.00    +0.120 C 
ATOM     11  C   UNL     1      12.961   7.009   5.159  0.00  0.00    +0.108 C 
ATOM     13  C   UNL     1      11.164   7.882   6.727  0.00  0.00    +0.216 C 
ENDROOT
BRANCH   8  12
ATOM      1  O   UNL     1      16.079   8.711   4.825  0.00  0.00    -0.420 OA
ATOM      6  N   UNL     1      15.223  10.388   6.033  0.00  0.00    -0.112 NA
ATOM      7  N   UNL     1      16.552  10.242   6.385  0.00  0.00    -0.107 NA
ATOM     12  C   UNL     1      14.992   9.475   5.120  0.00  0.00    +0.222 A 
ATOM     16  C   UNL     1      17.011   9.252   5.656  0.00  0.00    +0.248 A 
BRANCH  16  18
ATOM     18  C   UNL     1      18.318   8.664   5.600  0.00  0.00    +0.038 A 
ATOM     20  C   UNL     1      18.766   8.072   4.420  0.00  0.00    +0.013 A 
ATOM     21  C   UNL     1      19.140   8.683   6.727  0.00  0.00    +0.013 A 
ATOM     22  C   UNL     1      20.038   7.499   4.366  0.00  0.00    +0.001 A 
ATOM     23  C   UNL     1      20.411   8.111   6.673  0.00  0.00    +0.001 A 
ATOM     24  C   UNL     1      20.860   7.520   5.492  0.00  0.00    +0.000 A 
ENDBRANCH  16  18
ENDBRANCH   8  12
BRANCH  13  14
ATOM     14  C   UNL     1      11.000   6.473   7.241  0.00  0.00    +0.096 C 
BRANCH  14  15
ATOM     15  C   UNL     1       9.905   6.413   8.295  0.00  0.00    +0.020 C 
BRANCH  15  17
ATOM     17  C   UNL     1       9.484   4.995   8.678  0.00  0.00    +0.121 C 
BRANCH  17  19
ATOM      4  O   UNL     1      10.567   4.872  10.835  0.00  0.00    -0.251 OA
ATOM     19  C   UNL     1       9.548   4.755  10.166  0.00  0.00    +0.305 C 
BRANCH  19   3
ATOM      3  O   UNL     1       8.350   4.389  10.688  0.00  0.00    -0.481 OA
ATOM     25  H   UNL     1       7.642   5.029  10.461  0.00  0.00    +0.295 HD
ENDBRANCH  19   3
ENDBRANCH  17  19
ENDBRANCH  15  17
ENDBRANCH  14  15
ENDBRANCH  13  14
TORSDOF 7
ENDMDL
MODEL 7
REMARK VINA RESULT:      -5.9     32.515     34.472
REMARK  Name = 51137738
REMARK  7 active torsions:
REMARK  status: ('A' for Active; 'I' for Inactive)
REMARK    1  A    between atoms: O_3  and  C_19
REMARK    2  A    between atoms: C_8  and  C_12
REMARK    3  A    between atoms: C_13  and  C_14
REMARK    4  A    between atoms: C_14  and  C_15
REMARK    5  A    between atoms: C_15  and  C_17
REMARK    6  A    between atoms: C_16  and  C_18
REMARK    7  A    between atoms: C_17  and  C_19
REMARK                            x       y       z     vdW  Elec       q    Type
REMARK                         _______ _______ _______ _____ _____    ______ ____
ROOT
ATOM      2  O   UNL     1       0.710 -14.827  -6.595  0.00  0.00    -0.276 OA
ATOM      5  N   UNL     1      -1.003 -13.671  -5.562  0.00  0.00    -0.301 N 
ATOM      8  C   UNL     1      -2.517 -14.224  -3.814  0.00  0.00    +0.095 C 
ATOM      9  C   UNL     1      -2.994 -12.946  -4.522  0.00  0.00    +0.033 C 
ATOM     10  C   UNL     1      -1.551 -14.817  -4.846  0.00  0.00    +0.120 C 
ATOM     11  C   UNL     1      -1.762 -12.459  -5.275  0.00  0.00    +0.108 C 
ATOM     13  C   UNL     1       0.103 -13.776  -6.386  0.00  0.00    +0.216 C 
ENDROOT
BRANCH   8  12
ATOM      1  O   UNL     1      -0.623 -14.197  -2.251  0.00  0.00    -0.420 OA
ATOM      6  N   UNL     1      -2.533 -13.421  -1.380  0.00  0.00    -0.112 NA
ATOM      7  N   UNL     1      -1.557 -13.350  -0.403  0.00  0.00    -0.107 NA
ATOM     12  C   UNL     1      -1.942 -13.920  -2.440  0.00  0.00    +0.222 A 
ATOM     16  C   UNL     1      -0.460 -13.814  -0.955  0.00  0.00    +0.248 A 
BRANCH  16  18
ATOM     18  C   UNL     1       0.858 -13.975  -0.415  0.00  0.00    +0.038 A 
ATOM     20  C   UNL     1       1.950 -14.119  -1.271  0.00  0.00    +0.013 A 
ATOM     21  C   UNL     1       1.049 -13.988   0.967  0.00  0.00    +0.013 A 
ATOM     22  C   UNL     1       3.233 -14.276  -0.746  0.00  0.00    +0.001 A 
ATOM     23  C   UNL     1       2.332 -14.145   1.492  0.00  0.00    +0.001 A 
ATOM     24  C   UNL     1       3.423 -14.288   0.636  0.00  0.00    +0.000 A 
ENDBRANCH  16  18
ENDBRANCH   8  12
BRANCH  13  14
ATOM     14  C   UNL     1       0.545 -12.495  -7.047  0.00  0.00    +0.096 C 
BRANCH  14  15
ATOM     15  C   UNL     1       1.999 -12.196  -6.714  0.00  0.00    +0.020 C 
BRANCH  15  17
ATOM     17  C   UNL     1       2.207 -10.910  -5.917  0.00  0.00    +0.121 C 
BRANCH  17  19
ATOM      4  O   UNL     1       1.635 -11.934  -3.805  0.00  0.00    -0.251 OA
ATOM     19  C   UNL     1       1.569 -10.966  -4.551  0.00  0.00    +0.305 C 
BRANCH  19   3
ATOM      3  O   UNL     1       0.906  -9.825  -4.237  0.00  0.00    -0.481 OA
ATOM     25  H   UNL     1       0.456  -9.891  -3.368  0.00  0.00    +0.295 HD
ENDBRANCH  19   3
ENDBRANCH  17  19
ENDBRANCH  15  17
ENDBRANCH  14  15
ENDBRANCH  13  14
TORSDOF 7
ENDMDL
MODEL 8
REMARK VINA RESULT:      -5.8     26.887     28.336
REMARK  Name = 51137738
REMARK  7 active torsions:
REMARK  status: ('A' for Active; 'I' for Inactive)
REMARK    1  A    between atoms: O_3  and  C_19
REMARK    2  A    between atoms: C_8  and  C_12
REMARK    3  A    between atoms: C_13  and  C_14
REMARK    4  A    between atoms: C_14  and  C_15
REMARK    5  A    between atoms: C_15  and  C_17
REMARK    6  A    between atoms: C_16  and  C_18
REMARK    7  A    between atoms: C_17  and  C_19
REMARK                            x       y       z     vdW  Elec       q    Type
REMARK                         _______ _______ _______ _____ _____    ______ ____
ROOT
ATOM      2  O   UNL     1      -2.589  -9.125  10.247  0.00  0.00    -0.276 OA
ATOM      5  N   UNL     1      -3.020 -11.008  11.513  0.00  0.00    -0.301 N 
ATOM      8  C   UNL     1      -1.834 -12.101  13.260  0.00  0.00    +0.095 C 
ATOM      9  C   UNL     1      -2.955 -13.019  12.747  0.00  0.00    +0.033 C 
ATOM     10  C   UNL     1      -1.692 -11.099  12.108  0.00  0.00    +0.120 C 
ATOM     11  C   UNL     1      -3.887 -12.079  11.993  0.00  0.00    +0.108 C 
ATOM     13  C   UNL     1      -3.361 -10.008  10.621  0.00  0.00    +0.216 C 
ENDROOT
BRANCH   8  12
ATOM      1  O   UNL     1      -3.484 -11.354  14.919  0.00  0.00    -0.420 OA
ATOM      6  N   UNL     1      -1.361 -11.154  15.594  0.00  0.00    -0.112 NA
ATOM      7  N   UNL     1      -2.178 -10.702  16.614  0.00  0.00    -0.107 NA
ATOM     12  C   UNL     1      -2.166 -11.524  14.626  0.00  0.00    +0.222 A 
ATOM     16  C   UNL     1      -3.408 -10.837  16.175  0.00  0.00    +0.248 A 
BRANCH  16  18
ATOM     18  C   UNL     1      -4.660 -10.530  16.805  0.00  0.00    +0.038 A 
ATOM     20  C   UNL     1      -4.910 -10.963  18.106  0.00  0.00    +0.013 A 
ATOM     21  C   UNL     1      -5.627  -9.800  16.114  0.00  0.00    +0.013 A 
ATOM     22  C   UNL     1      -6.128 -10.666  18.719  0.00  0.00    +0.001 A 
ATOM     23  C   UNL     1      -6.844  -9.502  16.726  0.00  0.00    +0.001 A 
ATOM     24  C   UNL     1      -7.095  -9.935  18.028  0.00  0.00    +0.000 A 
ENDBRANCH  16  18
ENDBRANCH   8  12
BRANCH  13  14
ATOM     14  C   UNL     1      -4.777 -10.054  10.103  0.00  0.00    +0.096 C 
BRANCH  14  15
ATOM     15  C   UNL     1      -5.515  -8.770  10.451  0.00  0.00    +0.020 C 
BRANCH  15  17
ATOM     17  C   UNL     1      -7.036  -8.912  10.479  0.00  0.00    +0.121 C 
BRANCH  17  19
ATOM      4  O   UNL     1      -8.909  -8.239   9.108  0.00  0.00    -0.251 OA
ATOM     19  C   UNL     1      -7.700  -8.243   9.300  0.00  0.00    +0.305 C 
BRANCH  19   3
ATOM      3  O   UNL     1      -6.810  -7.648   8.468  0.00  0.00    -0.481 OA
ATOM     25  H   UNL     1      -6.383  -8.295   7.866  0.00  0.00    +0.295 HD
ENDBRANCH  19   3
ENDBRANCH  17  19
ENDBRANCH  15  17
ENDBRANCH  14  15
ENDBRANCH  13  14
TORSDOF 7
ENDMDL
MODEL 9
REMARK VINA RESULT:      -5.8     26.909     28.973
REMARK  Name = 51137738
REMARK  7 active torsions:
REMARK  status: ('A' for Active; 'I' for Inactive)
REMARK    1  A    between atoms: O_3  and  C_19
REMARK    2  A    between atoms: C_8  and  C_12
REMARK    3  A    between atoms: C_13  and  C_14
REMARK    4  A    between atoms: C_14  and  C_15
REMARK    5  A    between atoms: C_15  and  C_17
REMARK    6  A    between atoms: C_16  and  C_18
REMARK    7  A    between atoms: C_17  and  C_19
REMARK                            x       y       z     vdW  Elec       q    Type
REMARK                         _______ _______ _______ _____ _____    ______ ____
ROOT
ATOM      2  O   UNL     1      -3.786 -12.546  11.577  0.00  0.00    -0.276 OA
ATOM      5  N   UNL     1      -5.165 -10.696  11.688  0.00  0.00    -0.301 N 
ATOM      8  C   UNL     1      -7.436 -10.394  12.326  0.00  0.00    +0.095 C 
ATOM      9  C   UNL     1      -6.929  -9.129  11.614  0.00  0.00    +0.033 C 
ATOM     10  C   UNL     1      -6.403 -11.440  11.888  0.00  0.00    +0.120 C 
ATOM     11  C   UNL     1      -5.412  -9.258  11.667  0.00  0.00    +0.108 C 
ATOM     13  C   UNL     1      -3.941 -11.325  11.551  0.00  0.00    +0.216 C 
ENDROOT
BRANCH   8  12
ATOM      1  O   UNL     1      -6.612 -10.686  14.621  0.00  0.00    -0.420 OA
ATOM      6  N   UNL     1      -8.531  -9.545  14.481  0.00  0.00    -0.112 NA
ATOM      7  N   UNL     1      -8.184  -9.635  15.816  0.00  0.00    -0.107 NA
ATOM     12  C   UNL     1      -7.586 -10.171  13.822  0.00  0.00    +0.222 A 
ATOM     16  C   UNL     1      -7.058 -10.309  15.850  0.00  0.00    +0.248 A 
BRANCH  16  18
ATOM     18  C   UNL     1      -6.241 -10.703  16.962  0.00  0.00    +0.038 A 
ATOM     20  C   UNL     1      -6.757 -10.658  18.257  0.00  0.00    +0.013 A 
ATOM     21  C   UNL     1      -4.931 -11.128  16.747  0.00  0.00    +0.013 A 
ATOM     22  C   UNL     1      -5.962 -11.039  19.338  0.00  0.00    +0.001 A 
ATOM     23  C   UNL     1      -4.136 -11.510  17.828  0.00  0.00    +0.001 A 
ATOM     24  C   UNL     1      -4.652 -11.466  19.123  0.00  0.00    +0.000 A 
ENDBRANCH  16  18
ENDBRANCH   8  12
BRANCH  13  14
ATOM     14  C   UNL     1      -2.758 -10.409  11.357  0.00  0.00    +0.096 C 
BRANCH  14  15
ATOM     15  C   UNL     1      -1.691 -10.684  12.406  0.00  0.00    +0.020 C 
BRANCH  15  17
ATOM     17  C   UNL     1      -2.159 -10.470  13.845  0.00  0.00    +0.121 C 
BRANCH  17  19
ATOM      4  O   UNL     1      -2.102 -12.797  14.495  0.00  0.00    -0.251 OA
ATOM     19  C   UNL     1      -1.816 -11.633  14.743  0.00  0.00    +0.305 C 
BRANCH  19   3
ATOM      3  O   UNL     1      -1.157 -11.248  15.865  0.00  0.00    -0.481 OA
ATOM     25  H   UNL     1      -0.281 -11.684  15.942  0.00  0.00    +0.295 HD
ENDBRANCH  19   3
ENDBRANCH  17  19
ENDBRANCH  15  17
ENDBRANCH  14  15
ENDBRANCH  13  14
TORSDOF 7
ENDMDL
MODEL 10
REMARK VINA RESULT:      -5.7     27.342     29.461
REMARK  Name = 51137738
REMARK  7 active torsions:
REMARK  status: ('A' for Active; 'I' for Inactive)
REMARK    1  A    between atoms: O_3  and  C_19
REMARK    2  A    between atoms: C_8  and  C_12
REMARK    3  A    between atoms: C_13  and  C_14
REMARK    4  A    between atoms: C_14  and  C_15
REMARK    5  A    between atoms: C_15  and  C_17
REMARK    6  A    between atoms: C_16  and  C_18
REMARK    7  A    between atoms: C_17  and  C_19
REMARK                            x       y       z     vdW  Elec       q    Type
REMARK                         _______ _______ _______ _____ _____    ______ ____
ROOT
ATOM      2  O   UNL     1      -7.951 -11.908  15.326  0.00  0.00    -0.276 OA
ATOM      5  N   UNL     1      -5.936 -11.037  16.044  0.00  0.00    -0.301 N 
ATOM      8  C   UNL     1      -3.672 -11.680  15.710  0.00  0.00    +0.095 C 
ATOM      9  C   UNL     1      -3.749 -10.642  16.839  0.00  0.00    +0.033 C 
ATOM     10  C   UNL     1      -5.122 -12.173  15.632  0.00  0.00    +0.120 C 
ATOM     11  C   UNL     1      -5.116  -9.995  16.655  0.00  0.00    +0.108 C 
ATOM     13  C   UNL     1      -7.305 -11.000  15.848  0.00  0.00    +0.216 C 
ENDROOT
BRANCH   8  12
ATOM      1  O   UNL     1      -3.846 -11.172  13.314  0.00  0.00    -0.420 OA
ATOM      6  N   UNL     1      -1.937 -10.481  14.253  0.00  0.00    -0.112 NA
ATOM      7  N   UNL     1      -1.905 -10.134  12.916  0.00  0.00    -0.107 NA
ATOM     12  C   UNL     1      -3.088 -11.084  14.440  0.00  0.00    +0.222 A 
ATOM     16  C   UNL     1      -3.039 -10.557  12.407  0.00  0.00    +0.248 A 
BRANCH  16  18
ATOM     18  C   UNL     1      -3.548 -10.472  11.069  0.00  0.00    +0.038 A 
ATOM     20  C   UNL     1      -3.904 -11.633  10.383  0.00  0.00    +0.013 A 
ATOM     21  C   UNL     1      -3.687  -9.228  10.453  0.00  0.00    +0.013 A 
ATOM     22  C   UNL     1      -4.399 -11.551   9.082  0.00  0.00    +0.001 A 
ATOM     23  C   UNL     1      -4.182  -9.146   9.152  0.00  0.00    +0.001 A 
ATOM     24  C   UNL     1      -4.539 -10.307   8.466  0.00  0.00    +0.000 A 
ENDBRANCH  16  18
ENDBRANCH   8  12
BRANCH  13  14
ATOM     14  C   UNL     1      -7.996  -9.748  16.327  0.00  0.00    +0.096 C 
BRANCH  14  15
ATOM     15  C   UNL     1      -9.425 -10.055  16.750  0.00  0.00    +0.020 C 
BRANCH  15  17
ATOM     17  C   UNL     1      -9.760  -9.629  18.178  0.00  0.00    +0.121 C 
BRANCH  17  19
ATOM      4  O   UNL     1      -9.202 -11.874  18.876  0.00  0.00    -0.251 OA
ATOM     19  C   UNL     1      -9.538 -10.737  19.178  0.00  0.00    +0.305 C 
BRANCH  19   3
ATOM      3  O   UNL     1      -9.755 -10.337  20.456  0.00  0.00    -0.481 OA
ATOM     25  H   UNL     1      -9.085  -9.686  20.755  0.00  0.00    +0.295 HD
ENDBRANCH  19   3
ENDBRANCH  17  19
ENDBRANCH  15  17
ENDBRANCH  14  15
ENDBRANCH  13  14
TORSDOF 7
ENDMDL
