REMARK  Name = 11882863
REMARK  11 active torsions:
REMARK  status: ('A' for Active; 'I' for Inactive)
REMARK    1  A    between atoms: O_3  and  C_15
REMARK    2  A    between atoms: O_4  and  C_20
REMARK    3  A    between atoms: N_8  and  C_26
REMARK    4  A    between atoms: N_8  and  C_27
REMARK    5  A    between atoms: C_10  and  C_18
REMARK    6  A    between atoms: C_12  and  C_20
REMARK    7  A    between atoms: C_12  and  C_21
REMARK    8  A    between atoms: C_13  and  C_23
REMARK    9  A    between atoms: C_23  and  C_24
REMARK   10  A    between atoms: C_26  and  C_29
REMARK   11  A    between atoms: C_28  and  C_30
REMARK                            x       y       z     vdW  Elec       q    Type
REMARK                         _______ _______ _______ _____ _____    ______ ____
ROOT
ATOM      1  S   UNL     1       0.691   3.459  -0.205  0.00  0.00    -0.057 S 
ATOM      6  O   UNL     1       3.534  -0.208   0.172  0.00  0.00    -0.270 OA
ATOM      7  N   UNL     1       0.789   0.890   0.079  0.00  0.00    -0.229 NA
ATOM      9  N   UNL     1       2.898   2.048  -0.070  0.00  0.00    -0.261 N 
ATOM     10  C   UNL     1      -3.041   0.922   0.519  0.00  0.00    -0.019 C 
ATOM     11  C   UNL     1      -3.218   2.187  -0.432  0.00  0.00    +0.011 C 
ATOM     12  C   UNL     1      -4.671   2.788  -0.561  0.00  0.00    +0.021 C 
ATOM     13  C   UNL     1      -1.644   0.232   0.165  0.00  0.00    +0.054 C 
ATOM     14  C   UNL     1      -4.176  -0.097   0.238  0.00  0.00    +0.010 C 
ATOM     15  C   UNL     1      -5.685   1.631  -0.793  0.00  0.00    +0.123 C 
ATOM     16  C   UNL     1      -2.119   3.257  -0.167  0.00  0.00    +0.049 C 
ATOM     17  C   UNL     1      -5.569   0.515   0.239  0.00  0.00    +0.032 C 
ATOM     18  C   UNL     1      -3.067   1.292   2.022  0.00  0.00    +0.012 C 
ATOM     19  C   UNL     1      -0.544   1.256   0.063  0.00  0.00    +0.058 A 
ATOM     21  C   UNL     1      -4.729   3.711  -1.812  0.00  0.00    +0.016 C 
ATOM     22  C   UNL     1      -0.779   2.606  -0.104  0.00  0.00    +0.015 A 
ATOM     25  C   UNL     1       1.530   1.969  -0.047  0.00  0.00    +0.165 A 
ATOM     28  C   UNL     1       3.803   0.981   0.038  0.00  0.00    +0.250 C 
ATOM     43  H   UNL     1       3.246   2.990  -0.220  0.00  0.00    +0.157 HD
ENDROOT
BRANCH  28  30
ATOM      2  F   UNL     1       9.229   2.390  -0.295  0.00  0.00    -0.205 F 
ATOM     30  C   UNL     1       5.240   1.354  -0.049  0.00  0.00    +0.037 A 
ATOM     33  C   UNL     1       6.174   0.427  -0.514  0.00  0.00    +0.016 A 
ATOM     34  C   UNL     1       5.654   2.630   0.332  0.00  0.00    +0.016 A 
ATOM     38  C   UNL     1       7.522   0.778  -0.597  0.00  0.00    +0.039 A 
ATOM     39  C   UNL     1       7.002   2.980   0.249  0.00  0.00    +0.039 A 
ATOM     40  C   UNL     1       7.936   2.054  -0.215  0.00  0.00    +0.123 A 
ENDBRANCH  28  30
BRANCH  15   3
ATOM      3  O   UNL     1      -7.023   2.127  -0.786  0.00  0.00    -0.391 OA
ATOM     41  H   UNL     1      -7.615   1.380  -0.980  0.00  0.00    +0.210 HD
ENDBRANCH  15   3
BRANCH  12  20
ATOM     20  C   UNL     1      -5.107   3.672   0.628  0.00  0.00    +0.165 C 
BRANCH  20   4
ATOM      4  O   UNL     1      -6.411   4.139   0.363  0.00  0.00    -0.394 OA
ATOM     42  H   UNL     1      -6.674   4.702   1.111  0.00  0.00    +0.209 HD
ENDBRANCH  20   4
ENDBRANCH  12  20
BRANCH  13  23
ATOM     23  C   UNL     1      -1.251  -0.924   1.095  0.00  0.00    +0.106 C 
BRANCH  23  24
ATOM      5  O   UNL     1       0.011  -1.765  -0.761  0.00  0.00    -0.276 OA
ATOM      8  N   UNL     1       0.062  -3.013   1.193  0.00  0.00    -0.300 N 
ATOM     24  C   UNL     1      -0.339  -1.925   0.411  0.00  0.00    +0.216 C 
ATOM     27  C   UNL     1      -0.366  -3.181   2.577  0.00  0.00    +0.132 C 
BRANCH   8  26
ATOM     26  C   UNL     1       0.940  -4.063   0.683  0.00  0.00    +0.142 C 
BRANCH  26  29
ATOM     29  C   UNL     1       0.169  -5.164   0.013  0.00  0.00    -0.030 A 
ATOM     31  C   UNL     1      -0.273  -6.258   0.756  0.00  0.00    +0.005 A 
ATOM     32  C   UNL     1      -0.104  -5.092  -1.353  0.00  0.00    +0.005 A 
ATOM     35  C   UNL     1      -0.988  -7.281   0.134  0.00  0.00    +0.000 A 
ATOM     36  C   UNL     1      -0.820  -6.115  -1.975  0.00  0.00    +0.000 A 
ATOM     37  C   UNL     1      -1.262  -7.209  -1.232  0.00  0.00    +0.000 A 
ENDBRANCH  26  29
ENDBRANCH   8  26
ENDBRANCH  23  24
ENDBRANCH  13  23
TORSDOF 8
