MODEL 1
REMARK VINA RESULT:      -6.1      0.000      0.000
REMARK  Name = 40779916
REMARK  9 active torsions:
REMARK  status: ('A' for Active; 'I' for Inactive)
REMARK    1  A    between atoms: S_1  and  N_8
REMARK    2  A    between atoms: S_1  and  C_23
REMARK    3  A    between atoms: O_3  and  C_22
REMARK    4  A    between atoms: O_3  and  C_24
REMARK    5  A    between atoms: N_7  and  C_16
REMARK    6  A    between atoms: N_8  and  C_17
REMARK    7  A    between atoms: C_10  and  C_16
REMARK    8  A    between atoms: C_11  and  C_17
REMARK    9  A    between atoms: C_18  and  C_22
REMARK                            x       y       z     vdW  Elec       q    Type
REMARK                         _______ _______ _______ _____ _____    ______ ____
ROOT
ATOM      6  N   UNL     1      11.603   7.382  19.898  0.00  0.00    -0.298 NA
ATOM      9  C   UNL     1      13.370   8.938  21.007  0.00  0.00    -0.003 C 
ATOM     10  C   UNL     1      11.935   9.364  21.397  0.00  0.00    +0.020 C 
ATOM     11  C   UNL     1      12.539   7.907  18.867  0.00  0.00    +0.072 C 
ATOM     12  C   UNL     1      13.504   8.949  19.473  0.00  0.00    +0.024 C 
ATOM     13  C   UNL     1      10.931   8.503  20.600  0.00  0.00    +0.089 C 
ATOM     14  C   UNL     1      13.543   7.478  21.469  0.00  0.00    +0.019 C 
ATOM     15  C   UNL     1      12.399   6.625  20.894  0.00  0.00    +0.085 C 
ENDROOT
BRANCH  10  16
ATOM     16  C   UNL     1      11.677  10.857  21.202  0.00  0.00    +0.089 C 
BRANCH  16   7
ATOM      7  N   UNL     1      11.004  11.424  22.364  0.00  0.00    -0.297 NA
ATOM     18  C   UNL     1      11.290  12.852  22.563  0.00  0.00    +0.082 C 
ATOM     19  C   UNL     1      11.438  10.776  23.604  0.00  0.00    +0.085 C 
ATOM     20  C   UNL     1      10.843  13.085  24.008  0.00  0.00    +0.022 C 
ATOM     21  C   UNL     1      10.946  11.723  24.686  0.00  0.00    +0.017 C 
BRANCH  18  22
ATOM     22  C   UNL     1      10.548  13.758  21.589  0.00  0.00    +0.178 C 
BRANCH  22   3
ATOM      3  O   UNL     1      11.497  14.397  20.752  0.00  0.00    -0.381 OA
ATOM     24  C   UNL     1      10.903  15.429  19.975  0.00  0.00    +0.194 C 
ENDBRANCH  22   3
ENDBRANCH  18  22
ENDBRANCH  16   7
ENDBRANCH  10  16
BRANCH  11  17
ATOM     17  C   UNL     1      11.806   8.456  17.640  0.00  0.00    +0.124 C 
BRANCH  17   8
ATOM      8  N   UNL     1      12.430   9.684  17.175  0.00  0.00    -0.188 NA
ATOM     28  H   UNL     1      11.928  10.538  17.451  0.00  0.00    +0.148 HD
BRANCH   8   1
ATOM      1  S   UNL     1      13.202   9.749  15.648  0.00  0.00    +0.065 S 
ATOM      4  O   UNL     1      12.310  10.384  14.695  0.00  0.00    -0.153 OA
ATOM      5  O   UNL     1      13.793   8.460  15.346  0.00  0.00    -0.153 OA
BRANCH   1  23
ATOM      2  S   UNL     1      15.654  11.040  14.691  0.00  0.00    -0.077 S 
ATOM     23  C   UNL     1      14.534  10.865  15.974  0.00  0.00    +0.142 A 
ATOM     25  C   UNL     1      14.870  11.640  17.063  0.00  0.00    +0.036 A 
ATOM     26  C   UNL     1      16.062  12.387  16.840  0.00  0.00    +0.010 A 
ATOM     27  C   UNL     1      16.592  12.155  15.590  0.00  0.00    +0.047 A 
ENDBRANCH   1  23
ENDBRANCH   8   1
ENDBRANCH  17   8
ENDBRANCH  11  17
TORSDOF 8
ENDMDL
MODEL 2
REMARK VINA RESULT:      -6.1      3.783      6.318
REMARK  Name = 40779916
REMARK  9 active torsions:
REMARK  status: ('A' for Active; 'I' for Inactive)
REMARK    1  A    between atoms: S_1  and  N_8
REMARK    2  A    between atoms: S_1  and  C_23
REMARK    3  A    between atoms: O_3  and  C_22
REMARK    4  A    between atoms: O_3  and  C_24
REMARK    5  A    between atoms: N_7  and  C_16
REMARK    6  A    between atoms: N_8  and  C_17
REMARK    7  A    between atoms: C_10  and  C_16
REMARK    8  A    between atoms: C_11  and  C_17
REMARK    9  A    between atoms: C_18  and  C_22
REMARK                            x       y       z     vdW  Elec       q    Type
REMARK                         _______ _______ _______ _____ _____    ______ ____
ROOT
ATOM      6  N   UNL     1      12.500   6.893  21.486  0.00  0.00    -0.298 NA
ATOM      9  C   UNL     1      11.969   8.969  20.010  0.00  0.00    -0.003 C 
ATOM     10  C   UNL     1      12.259   7.728  19.134  0.00  0.00    +0.020 C 
ATOM     11  C   UNL     1      13.363   8.037  21.887  0.00  0.00    +0.072 C 
ATOM     12  C   UNL     1      13.174   9.236  20.930  0.00  0.00    +0.024 C 
ATOM     13  C   UNL     1      12.707   6.570  20.053  0.00  0.00    +0.089 C 
ATOM     14  C   UNL     1      10.775   8.607  20.915  0.00  0.00    +0.019 C 
ATOM     15  C   UNL     1      11.086   7.301  21.667  0.00  0.00    +0.085 C 
ENDROOT
BRANCH  10  16
ATOM     16  C   UNL     1      13.278   7.998  18.028  0.00  0.00    +0.089 C 
BRANCH  16   7
ATOM      7  N   UNL     1      12.609   8.322  16.774  0.00  0.00    -0.297 NA
ATOM     18  C   UNL     1      13.014   9.620  16.218  0.00  0.00    +0.082 C 
ATOM     19  C   UNL     1      11.158   8.424  16.951  0.00  0.00    +0.085 C 
ATOM     20  C   UNL     1      11.912   9.906  15.194  0.00  0.00    +0.022 C 
ATOM     21  C   UNL     1      10.697   9.123  15.683  0.00  0.00    +0.017 C 
BRANCH  18  22
ATOM     22  C   UNL     1      14.393   9.598  15.570  0.00  0.00    +0.178 C 
BRANCH  22   3
ATOM      3  O   UNL     1      15.070  10.797  15.905  0.00  0.00    -0.381 OA
ATOM     24  C   UNL     1      14.653  11.302  17.167  0.00  0.00    +0.194 C 
ENDBRANCH  22   3
ENDBRANCH  18  22
ENDBRANCH  16   7
ENDBRANCH  10  16
BRANCH  11  17
ATOM     17  C   UNL     1      14.834   7.640  22.018  0.00  0.00    +0.124 C 
BRANCH  17   8
ATOM      8  N   UNL     1      15.642   8.779  22.425  0.00  0.00    -0.188 NA
ATOM     28  H   UNL     1      15.131   9.475  22.983  0.00  0.00    +0.148 HD
BRANCH   8   1
ATOM      1  S   UNL     1      16.848   9.412  21.388  0.00  0.00    +0.065 S 
ATOM      4  O   UNL     1      17.619  10.404  22.113  0.00  0.00    -0.153 OA
ATOM      5  O   UNL     1      16.263   9.741  20.103  0.00  0.00    -0.153 OA
BRANCH   1  23
ATOM      2  S   UNL     1      19.331   7.998  22.044  0.00  0.00    -0.077 S 
ATOM     23  C   UNL     1      17.878   7.996  21.140  0.00  0.00    +0.142 A 
ATOM     25  C   UNL     1      17.757   6.867  20.358  0.00  0.00    +0.036 A 
ATOM     26  C   UNL     1      18.872   5.994  20.505  0.00  0.00    +0.010 A 
ATOM     27  C   UNL     1      19.803   6.487  21.391  0.00  0.00    +0.047 A 
ENDBRANCH   1  23
ENDBRANCH   8   1
ENDBRANCH  17   8
ENDBRANCH  11  17
TORSDOF 8
ENDMDL
MODEL 3
REMARK VINA RESULT:      -5.8     27.041     28.398
REMARK  Name = 40779916
REMARK  9 active torsions:
REMARK  status: ('A' for Active; 'I' for Inactive)
REMARK    1  A    between atoms: S_1  and  N_8
REMARK    2  A    between atoms: S_1  and  C_23
REMARK    3  A    between atoms: O_3  and  C_22
REMARK    4  A    between atoms: O_3  and  C_24
REMARK    5  A    between atoms: N_7  and  C_16
REMARK    6  A    between atoms: N_8  and  C_17
REMARK    7  A    between atoms: C_10  and  C_16
REMARK    8  A    between atoms: C_11  and  C_17
REMARK    9  A    between atoms: C_18  and  C_22
REMARK                            x       y       z     vdW  Elec       q    Type
REMARK                         _______ _______ _______ _____ _____    ______ ____
ROOT
ATOM      6  N   UNL     1      -5.249 -12.860  16.879  0.00  0.00    -0.298 NA
ATOM      9  C   UNL     1      -5.155 -10.532  18.037  0.00  0.00    -0.003 C 
ATOM     10  C   UNL     1      -6.613 -10.926  17.705  0.00  0.00    +0.020 C 
ATOM     11  C   UNL     1      -4.283 -11.976  16.170  0.00  0.00    +0.072 C 
ATOM     12  C   UNL     1      -4.318 -10.543  16.744  0.00  0.00    +0.024 C 
ATOM     13  C   UNL     1      -6.597 -12.240  16.895  0.00  0.00    +0.089 C 
ATOM     14  C   UNL     1      -4.592 -11.634  18.954  0.00  0.00    +0.019 C 
ATOM     15  C   UNL     1      -4.791 -13.004  18.281  0.00  0.00    +0.085 C 
ENDROOT
BRANCH  10  16
ATOM     16  C   UNL     1      -7.383  -9.825  16.980  0.00  0.00    +0.089 C 
BRANCH  16   7
ATOM      7  N   UNL     1      -8.810  -9.911  17.269  0.00  0.00    -0.297 NA
ATOM     18  C   UNL     1      -9.483  -8.605  17.274  0.00  0.00    +0.082 C 
ATOM     19  C   UNL     1      -9.053 -10.465  18.603  0.00  0.00    +0.085 C 
ATOM     20  C   UNL     1     -10.800  -8.908  17.992  0.00  0.00    +0.022 C 
ATOM     21  C   UNL     1     -10.511 -10.125  18.864  0.00  0.00    +0.017 C 
BRANCH  18  22
ATOM     22  C   UNL     1      -9.717  -8.040  15.878  0.00  0.00    +0.178 C 
BRANCH  22   3
ATOM      3  O   UNL     1     -10.996  -7.430  15.845  0.00  0.00    -0.381 OA
ATOM     24  C   UNL     1     -10.911  -6.047  15.527  0.00  0.00    +0.194 C 
ENDBRANCH  22   3
ENDBRANCH  18  22
ENDBRANCH  16   7
ENDBRANCH  10  16
BRANCH  11  17
ATOM     17  C   UNL     1      -4.489 -11.987  14.654  0.00  0.00    +0.124 C 
BRANCH  17   8
ATOM      8  N   UNL     1      -3.995 -10.756  14.058  0.00  0.00    -0.188 NA
ATOM     28  H   UNL     1      -4.727 -10.058  13.873  0.00  0.00    +0.148 HD
BRANCH   8   1
ATOM      1  S   UNL     1      -2.707 -10.784  12.930  0.00  0.00    +0.065 S 
ATOM      4  O   UNL     1      -2.437 -12.161  12.559  0.00  0.00    -0.153 OA
ATOM      5  O   UNL     1      -1.632  -9.930  13.396  0.00  0.00    -0.153 OA
BRANCH   1  23
ATOM      2  S   UNL     1      -5.139  -9.784  11.634  0.00  0.00    -0.077 S 
ATOM     23  C   UNL     1      -3.441  -9.978  11.538  0.00  0.00    +0.142 A 
ATOM     25  C   UNL     1      -2.927  -9.462  10.368  0.00  0.00    +0.036 A 
ATOM     26  C   UNL     1      -3.941  -8.900   9.541  0.00  0.00    +0.010 A 
ATOM     27  C   UNL     1      -5.191  -9.008  10.109  0.00  0.00    +0.047 A 
ENDBRANCH   1  23
ENDBRANCH   8   1
ENDBRANCH  17   8
ENDBRANCH  11  17
TORSDOF 8
ENDMDL
MODEL 4
REMARK VINA RESULT:      -5.5     27.394     28.975
REMARK  Name = 40779916
REMARK  9 active torsions:
REMARK  status: ('A' for Active; 'I' for Inactive)
REMARK    1  A    between atoms: S_1  and  N_8
REMARK    2  A    between atoms: S_1  and  C_23
REMARK    3  A    between atoms: O_3  and  C_22
REMARK    4  A    between atoms: O_3  and  C_24
REMARK    5  A    between atoms: N_7  and  C_16
REMARK    6  A    between atoms: N_8  and  C_17
REMARK    7  A    between atoms: C_10  and  C_16
REMARK    8  A    between atoms: C_11  and  C_17
REMARK    9  A    between atoms: C_18  and  C_22
REMARK                            x       y       z     vdW  Elec       q    Type
REMARK                         _______ _______ _______ _____ _____    ______ ____
ROOT
ATOM      6  N   UNL     1      -4.579 -12.647  17.367  0.00  0.00    -0.298 NA
ATOM      9  C   UNL     1      -5.931 -10.634  18.310  0.00  0.00    -0.003 C 
ATOM     10  C   UNL     1      -6.874 -11.687  17.683  0.00  0.00    +0.020 C 
ATOM     11  C   UNL     1      -4.035 -11.371  16.829  0.00  0.00    +0.072 C 
ATOM     12  C   UNL     1      -4.911 -10.172  17.254  0.00  0.00    +0.024 C 
ATOM     13  C   UNL     1      -6.014 -12.783  17.015  0.00  0.00    +0.089 C 
ATOM     14  C   UNL     1      -5.142 -11.348  19.425  0.00  0.00    +0.019 C 
ATOM     15  C   UNL     1      -4.469 -12.604  18.845  0.00  0.00    +0.085 C 
ENDROOT
BRANCH  10  16
ATOM     16  C   UNL     1      -7.882 -11.087  16.706  0.00  0.00    +0.089 C 
BRANCH  16   7
ATOM      7  N   UNL     1      -8.744 -10.121  17.377  0.00  0.00    -0.297 NA
ATOM     18  C   UNL     1     -10.174 -10.436  17.258  0.00  0.00    +0.082 C 
ATOM     19  C   UNL     1      -8.603  -8.783  16.797  0.00  0.00    +0.085 C 
ATOM     20  C   UNL     1     -10.843  -9.115  17.647  0.00  0.00    +0.022 C 
ATOM     21  C   UNL     1      -9.810  -8.036  17.340  0.00  0.00    +0.017 C 
BRANCH  18  22
ATOM     22  C   UNL     1     -10.619 -11.581  18.159  0.00  0.00    +0.178 C 
BRANCH  22   3
ATOM      3  O   UNL     1     -10.089 -11.370  19.456  0.00  0.00    -0.381 OA
ATOM     24  C   UNL     1     -10.134 -12.554  20.242  0.00  0.00    +0.194 C 
ENDBRANCH  22   3
ENDBRANCH  18  22
ENDBRANCH  16   7
ENDBRANCH  10  16
BRANCH  11  17
ATOM     17  C   UNL     1      -3.830 -11.418  15.313  0.00  0.00    +0.124 C 
BRANCH  17   8
ATOM      8  N   UNL     1      -4.485 -10.290  14.670  0.00  0.00    -0.188 NA
ATOM     28  H   UNL     1      -4.665  -9.497  15.298  0.00  0.00    +0.148 HD
BRANCH   8   1
ATOM      1  S   UNL     1      -5.660 -10.540  13.449  0.00  0.00    +0.065 S 
ATOM      4  O   UNL     1      -6.818  -9.713  13.734  0.00  0.00    -0.153 OA
ATOM      5  O   UNL     1      -5.820 -11.961  13.211  0.00  0.00    -0.153 OA
BRANCH   1  23
ATOM      2  S   UNL     1      -3.264 -10.466  11.763  0.00  0.00    -0.077 S 
ATOM     23  C   UNL     1      -4.845  -9.867  12.032  0.00  0.00    +0.142 A 
ATOM     25  C   UNL     1      -5.218  -8.946  11.078  0.00  0.00    +0.036 A 
ATOM     26  C   UNL     1      -4.192  -8.729  10.114  0.00  0.00    +0.010 A 
ATOM     27  C   UNL     1      -3.074  -9.493  10.367  0.00  0.00    +0.047 A 
ENDBRANCH   1  23
ENDBRANCH   8   1
ENDBRANCH  17   8
ENDBRANCH  11  17
TORSDOF 8
ENDMDL
MODEL 5
REMARK VINA RESULT:      -5.5     27.068     28.773
REMARK  Name = 40779916
REMARK  9 active torsions:
REMARK  status: ('A' for Active; 'I' for Inactive)
REMARK    1  A    between atoms: S_1  and  N_8
REMARK    2  A    between atoms: S_1  and  C_23
REMARK    3  A    between atoms: O_3  and  C_22
REMARK    4  A    between atoms: O_3  and  C_24
REMARK    5  A    between atoms: N_7  and  C_16
REMARK    6  A    between atoms: N_8  and  C_17
REMARK    7  A    between atoms: C_10  and  C_16
REMARK    8  A    between atoms: C_11  and  C_17
REMARK    9  A    between atoms: C_18  and  C_22
REMARK                            x       y       z     vdW  Elec       q    Type
REMARK                         _______ _______ _______ _____ _____    ______ ____
ROOT
ATOM      6  N   UNL     1      -5.484 -12.563  16.716  0.00  0.00    -0.298 NA
ATOM      9  C   UNL     1      -5.362 -10.544  18.352  0.00  0.00    -0.003 C 
ATOM     10  C   UNL     1      -6.818 -10.801  17.899  0.00  0.00    +0.020 C 
ATOM     11  C   UNL     1      -4.466 -11.586  16.244  0.00  0.00    +0.072 C 
ATOM     12  C   UNL     1      -4.478 -10.309  17.113  0.00  0.00    +0.024 C 
ATOM     13  C   UNL     1      -6.812 -11.910  16.825  0.00  0.00    +0.089 C 
ATOM     14  C   UNL     1      -4.868 -11.838  19.026  0.00  0.00    +0.019 C 
ATOM     15  C   UNL     1      -5.084 -13.023  18.068  0.00  0.00    +0.085 C 
ENDROOT
BRANCH  10  16
ATOM     16  C   UNL     1      -7.526  -9.541  17.405  0.00  0.00    +0.089 C 
BRANCH  16   7
ATOM      7  N   UNL     1      -8.974  -9.705  17.456  0.00  0.00    -0.297 NA
ATOM     18  C   UNL     1      -9.707  -8.435  17.365  0.00  0.00    +0.082 C 
ATOM     19  C   UNL     1      -9.402 -10.298  18.725  0.00  0.00    +0.085 C 
ATOM     20  C   UNL     1     -11.106  -8.819  17.853  0.00  0.00    +0.022 C 
ATOM     21  C   UNL     1     -10.899 -10.037  18.747  0.00  0.00    +0.017 C 
BRANCH  18  22
ATOM     22  C   UNL     1      -9.740  -7.855  15.957  0.00  0.00    +0.178 C 
BRANCH  22   3
ATOM      3  O   UNL     1     -10.751  -8.517  15.217  0.00  0.00    -0.381 OA
ATOM     24  C   UNL     1     -10.221  -9.172  14.071  0.00  0.00    +0.194 C 
ENDBRANCH  22   3
ENDBRANCH  18  22
ENDBRANCH  16   7
ENDBRANCH  10  16
BRANCH  11  17
ATOM     17  C   UNL     1      -4.614 -11.263  14.756  0.00  0.00    +0.124 C 
BRANCH  17   8
ATOM      8  N   UNL     1      -3.607 -10.302  14.334  0.00  0.00    -0.188 NA
ATOM     28  H   UNL     1      -3.983  -9.516  13.788  0.00  0.00    +0.148 HD
BRANCH   8   1
ATOM      1  S   UNL     1      -2.035 -10.817  13.892  0.00  0.00    +0.065 S 
ATOM      4  O   UNL     1      -1.309 -11.194  15.091  0.00  0.00    -0.153 OA
ATOM      5  O   UNL     1      -1.458  -9.872  12.956  0.00  0.00    -0.153 OA
BRANCH   1  23
ATOM      2  S   UNL     1      -1.833 -13.736  13.715  0.00  0.00    -0.077 S 
ATOM     23  C   UNL     1      -2.391 -12.292  12.984  0.00  0.00    +0.142 A 
ATOM     25  C   UNL     1      -3.035 -12.532  11.790  0.00  0.00    +0.036 A 
ATOM     26  C   UNL     1      -3.071 -13.920  11.471  0.00  0.00    +0.010 A 
ATOM     27  C   UNL     1      -2.453 -14.688  12.433  0.00  0.00    +0.047 A 
ENDBRANCH   1  23
ENDBRANCH   8   1
ENDBRANCH  17   8
ENDBRANCH  11  17
TORSDOF 8
ENDMDL
MODEL 6
REMARK VINA RESULT:      -5.4     26.612     29.311
REMARK  Name = 40779916
REMARK  9 active torsions:
REMARK  status: ('A' for Active; 'I' for Inactive)
REMARK    1  A    between atoms: S_1  and  N_8
REMARK    2  A    between atoms: S_1  and  C_23
REMARK    3  A    between atoms: O_3  and  C_22
REMARK    4  A    between atoms: O_3  and  C_24
REMARK    5  A    between atoms: N_7  and  C_16
REMARK    6  A    between atoms: N_8  and  C_17
REMARK    7  A    between atoms: C_10  and  C_16
REMARK    8  A    between atoms: C_11  and  C_17
REMARK    9  A    between atoms: C_18  and  C_22
REMARK                            x       y       z     vdW  Elec       q    Type
REMARK                         _______ _______ _______ _____ _____    ______ ____
ROOT
ATOM      6  N   UNL     1      -6.857 -10.188  18.161  0.00  0.00    -0.298 NA
ATOM      9  C   UNL     1      -5.434 -12.332  18.545  0.00  0.00    -0.003 C 
ATOM     10  C   UNL     1      -4.669 -11.311  17.672  0.00  0.00    +0.020 C 
ATOM     11  C   UNL     1      -7.647 -11.396  17.798  0.00  0.00    +0.072 C 
ATOM     12  C   UNL     1      -6.778 -12.670  17.875  0.00  0.00    +0.024 C 
ATOM     13  C   UNL     1      -5.611 -10.128  17.357  0.00  0.00    +0.089 C 
ATOM     14  C   UNL     1      -5.754 -11.628  19.878  0.00  0.00    +0.019 C 
ATOM     15  C   UNL     1      -6.479 -10.302  19.590  0.00  0.00    +0.085 C 
ENDROOT
BRANCH  10  16
ATOM     16  C   UNL     1      -4.089 -11.924  16.399  0.00  0.00    +0.089 C 
BRANCH  16   7
ATOM      7  N   UNL     1      -3.337 -10.932  15.641  0.00  0.00    -0.297 NA
ATOM     18  C   UNL     1      -3.141 -11.302  14.232  0.00  0.00    +0.082 C 
ATOM     19  C   UNL     1      -1.985 -10.759  16.176  0.00  0.00    +0.085 C 
ATOM     20  C   UNL     1      -2.017 -10.362  13.791  0.00  0.00    +0.022 C 
ATOM     21  C   UNL     1      -1.260 -10.013  15.069  0.00  0.00    +0.017 C 
BRANCH  18  22
ATOM     22  C   UNL     1      -4.391 -11.125  13.380  0.00  0.00    +0.178 C 
BRANCH  22   3
ATOM      3  O   UNL     1      -5.081  -9.969  13.822  0.00  0.00    -0.381 OA
ATOM     24  C   UNL     1      -6.453  -9.998  13.447  0.00  0.00    +0.194 C 
ENDBRANCH  22   3
ENDBRANCH  18  22
ENDBRANCH  16   7
ENDBRANCH  10  16
BRANCH  11  17
ATOM     17  C   UNL     1      -8.334 -11.256  16.438  0.00  0.00    +0.124 C 
BRANCH  17   8
ATOM      8  N   UNL     1      -9.104 -10.024  16.374  0.00  0.00    -0.188 NA
ATOM     28  H   UNL     1      -9.182  -9.532  17.274  0.00  0.00    +0.148 HD
BRANCH   8   1
ATOM      1  S   UNL     1     -10.472  -9.900  15.351  0.00  0.00    +0.065 S 
ATOM      4  O   UNL     1     -11.538 -10.724  15.888  0.00  0.00    -0.153 OA
ATOM      5  O   UNL     1     -10.061 -10.049  13.968  0.00  0.00    -0.153 OA
BRANCH   1  23
ATOM      2  S   UNL     1     -11.921  -7.561  14.340  0.00  0.00    -0.077 S 
ATOM     23  C   UNL     1     -10.926  -8.206  15.574  0.00  0.00    +0.142 A 
ATOM     25  C   UNL     1     -10.645  -7.275  16.551  0.00  0.00    +0.036 A 
ATOM     26  C   UNL     1     -11.255  -6.016  16.281  0.00  0.00    +0.010 A 
ATOM     27  C   UNL     1     -11.979  -6.033  15.109  0.00  0.00    +0.047 A 
ENDBRANCH   1  23
ENDBRANCH   8   1
ENDBRANCH  17   8
ENDBRANCH  11  17
TORSDOF 8
ENDMDL
MODEL 7
REMARK VINA RESULT:      -5.4      2.339      3.595
REMARK  Name = 40779916
REMARK  9 active torsions:
REMARK  status: ('A' for Active; 'I' for Inactive)
REMARK    1  A    between atoms: S_1  and  N_8
REMARK    2  A    between atoms: S_1  and  C_23
REMARK    3  A    between atoms: O_3  and  C_22
REMARK    4  A    between atoms: O_3  and  C_24
REMARK    5  A    between atoms: N_7  and  C_16
REMARK    6  A    between atoms: N_8  and  C_17
REMARK    7  A    between atoms: C_10  and  C_16
REMARK    8  A    between atoms: C_11  and  C_17
REMARK    9  A    between atoms: C_18  and  C_22
REMARK                            x       y       z     vdW  Elec       q    Type
REMARK                         _______ _______ _______ _____ _____    ______ ____
ROOT
ATOM      6  N   UNL     1      13.919   7.826  17.260  0.00  0.00    -0.298 NA
ATOM      9  C   UNL     1      14.188   9.057  19.537  0.00  0.00    -0.003 C 
ATOM     10  C   UNL     1      12.805   8.372  19.439  0.00  0.00    +0.020 C 
ATOM     11  C   UNL     1      14.336   9.235  17.031  0.00  0.00    +0.072 C 
ATOM     12  C   UNL     1      14.359  10.030  18.356  0.00  0.00    +0.024 C 
ATOM     13  C   UNL     1      12.645   7.784  18.020  0.00  0.00    +0.089 C 
ATOM     14  C   UNL     1      15.247   7.949  19.372  0.00  0.00    +0.019 C 
ATOM     15  C   UNL     1      14.965   7.166  18.078  0.00  0.00    +0.085 C 
ENDROOT
BRANCH  10  16
ATOM     16  C   UNL     1      11.647   9.301  19.799  0.00  0.00    +0.089 C 
BRANCH  16   7
ATOM      7  N   UNL     1      11.875   9.938  21.090  0.00  0.00    -0.297 NA
ATOM     18  C   UNL     1      10.871   9.579  22.101  0.00  0.00    +0.082 C 
ATOM     19  C   UNL     1      11.801  11.398  20.988  0.00  0.00    +0.085 C 
ATOM     20  C   UNL     1      11.072  10.655  23.171  0.00  0.00    +0.022 C 
ATOM     21  C   UNL     1      11.677  11.846  22.435  0.00  0.00    +0.017 C 
BRANCH  18  22
ATOM     22  C   UNL     1      11.058   8.178  22.669  0.00  0.00    +0.178 C 
BRANCH  22   3
ATOM      3  O   UNL     1      10.263   7.275  21.919  0.00  0.00    -0.381 OA
ATOM     24  C   UNL     1      10.991   6.108  21.558  0.00  0.00    +0.194 C 
ENDBRANCH  22   3
ENDBRANCH  18  22
ENDBRANCH  16   7
ENDBRANCH  10  16
BRANCH  11  17
ATOM     17  C   UNL     1      13.485   9.930  15.966  0.00  0.00    +0.124 C 
BRANCH  17   8
ATOM      8  N   UNL     1      13.623  11.375  16.058  0.00  0.00    -0.188 NA
ATOM     28  H   UNL     1      12.897  11.828  16.627  0.00  0.00    +0.148 HD
BRANCH   8   1
ATOM      1  S   UNL     1      14.183  12.287  14.721  0.00  0.00    +0.065 S 
ATOM      4  O   UNL     1      13.601  13.615  14.780  0.00  0.00    -0.153 OA
ATOM      5  O   UNL     1      14.072  11.496  13.511  0.00  0.00    -0.153 OA
BRANCH   1  23
ATOM      2  S   UNL     1      16.942  12.315  13.731  0.00  0.00    -0.077 S 
ATOM     23  C   UNL     1      15.906  12.429  15.089  0.00  0.00    +0.142 A 
ATOM     25  C   UNL     1      16.608  12.618  16.260  0.00  0.00    +0.036 A 
ATOM     26  C   UNL     1      18.014  12.669  16.038  0.00  0.00    +0.010 A 
ATOM     27  C   UNL     1      18.334  12.517  14.708  0.00  0.00    +0.047 A 
ENDBRANCH   1  23
ENDBRANCH   8   1
ENDBRANCH  17   8
ENDBRANCH  11  17
TORSDOF 8
ENDMDL
MODEL 8
REMARK VINA RESULT:      -5.4      2.920      6.149
REMARK  Name = 40779916
REMARK  9 active torsions:
REMARK  status: ('A' for Active; 'I' for Inactive)
REMARK    1  A    between atoms: S_1  and  N_8
REMARK    2  A    between atoms: S_1  and  C_23
REMARK    3  A    between atoms: O_3  and  C_22
REMARK    4  A    between atoms: O_3  and  C_24
REMARK    5  A    between atoms: N_7  and  C_16
REMARK    6  A    between atoms: N_8  and  C_17
REMARK    7  A    between atoms: C_10  and  C_16
REMARK    8  A    between atoms: C_11  and  C_17
REMARK    9  A    between atoms: C_18  and  C_22
REMARK                            x       y       z     vdW  Elec       q    Type
REMARK                         _______ _______ _______ _____ _____    ______ ____
ROOT
ATOM      6  N   UNL     1      11.098  12.418  22.605  0.00  0.00    -0.298 NA
ATOM      9  C   UNL     1      13.681  12.118  22.689  0.00  0.00    -0.003 C 
ATOM     10  C   UNL     1      13.195  12.318  21.235  0.00  0.00    +0.020 C 
ATOM     11  C   UNL     1      11.443  11.186  23.365  0.00  0.00    +0.072 C 
ATOM     12  C   UNL     1      12.961  10.904  23.304  0.00  0.00    +0.024 C 
ATOM     13  C   UNL     1      11.651  12.345  21.230  0.00  0.00    +0.089 C 
ATOM     14  C   UNL     1      13.237  13.362  23.483  0.00  0.00    +0.019 C 
ATOM     15  C   UNL     1      11.724  13.571  23.293  0.00  0.00    +0.085 C 
ENDROOT
BRANCH  10  16
ATOM     16  C   UNL     1      13.744  11.271  20.268  0.00  0.00    +0.089 C 
BRANCH  16   7
ATOM      7  N   UNL     1      14.243  11.899  19.051  0.00  0.00    -0.297 NA
ATOM     18  C   UNL     1      14.587  10.934  17.997  0.00  0.00    +0.082 C 
ATOM     19  C   UNL     1      15.481  12.642  19.300  0.00  0.00    +0.085 C 
ATOM     20  C   UNL     1      15.446  11.769  17.044  0.00  0.00    +0.022 C 
ATOM     21  C   UNL     1      16.032  12.884  17.904  0.00  0.00    +0.017 C 
BRANCH  18  22
ATOM     22  C   UNL     1      13.370  10.349  17.292  0.00  0.00    +0.178 C 
BRANCH  22   3
ATOM      3  O   UNL     1      13.738   9.993  15.971  0.00  0.00    -0.381 OA
ATOM     24  C   UNL     1      14.059   8.611  15.868  0.00  0.00    +0.194 C 
ENDBRANCH  22   3
ENDBRANCH  18  22
ENDBRANCH  16   7
ENDBRANCH  10  16
BRANCH  11  17
ATOM     17  C   UNL     1      10.620   9.976  22.920  0.00  0.00    +0.124 C 
BRANCH  17   8
ATOM      8  N   UNL     1      11.466   8.801  22.781  0.00  0.00    -0.188 NA
ATOM     28  H   UNL     1      12.414   8.921  23.159  0.00  0.00    +0.148 HD
BRANCH   8   1
ATOM      1  S   UNL     1      11.349   7.798  21.398  0.00  0.00    +0.065 S 
ATOM      4  O   UNL     1      10.714   8.543  20.328  0.00  0.00    -0.153 OA
ATOM      5  O   UNL     1      10.839   6.496  21.782  0.00  0.00    -0.153 OA
BRANCH   1  23
ATOM      2  S   UNL     1      13.332   7.051  19.372  0.00  0.00    -0.077 S 
ATOM     23  C   UNL     1      13.052   7.581  20.976  0.00  0.00    +0.142 A 
ATOM     25  C   UNL     1      14.227   7.751  21.676  0.00  0.00    +0.036 A 
ATOM     26  C   UNL     1      15.370   7.443  20.885  0.00  0.00    +0.010 A 
ATOM     27  C   UNL     1      15.027   7.048  19.611  0.00  0.00    +0.047 A 
ENDBRANCH   1  23
ENDBRANCH   8   1
ENDBRANCH  17   8
ENDBRANCH  11  17
TORSDOF 8
ENDMDL
MODEL 9
REMARK VINA RESULT:      -5.3     13.769     17.299
REMARK  Name = 40779916
REMARK  9 active torsions:
REMARK  status: ('A' for Active; 'I' for Inactive)
REMARK    1  A    between atoms: S_1  and  N_8
REMARK    2  A    between atoms: S_1  and  C_23
REMARK    3  A    between atoms: O_3  and  C_22
REMARK    4  A    between atoms: O_3  and  C_24
REMARK    5  A    between atoms: N_7  and  C_16
REMARK    6  A    between atoms: N_8  and  C_17
REMARK    7  A    between atoms: C_10  and  C_16
REMARK    8  A    between atoms: C_11  and  C_17
REMARK    9  A    between atoms: C_18  and  C_22
REMARK                            x       y       z     vdW  Elec       q    Type
REMARK                         _______ _______ _______ _____ _____    ______ ____
ROOT
ATOM      6  N   UNL     1      10.229   7.333   7.022  0.00  0.00    -0.298 NA
ATOM      9  C   UNL     1       9.430   5.129   5.894  0.00  0.00    -0.003 C 
ATOM     10  C   UNL     1      10.738   5.638   5.247  0.00  0.00    +0.020 C 
ATOM     11  C   UNL     1       8.808   7.462   6.601  0.00  0.00    +0.072 C 
ATOM     12  C   UNL     1       8.353   6.224   5.796  0.00  0.00    +0.024 C 
ATOM     13  C   UNL     1      11.086   7.015   5.854  0.00  0.00    +0.089 C 
ATOM     14  C   UNL     1       9.727   4.914   7.391  0.00  0.00    +0.019 C 
ATOM     15  C   UNL     1      10.320   6.205   7.981  0.00  0.00    +0.085 C 
ENDROOT
BRANCH  10  16
ATOM     16  C   UNL     1      10.673   5.694   3.722  0.00  0.00    +0.089 C 
BRANCH  16   7
ATOM      7  N   UNL     1      11.809   4.998   3.128  0.00  0.00    -0.297 NA
ATOM     18  C   UNL     1      12.488   5.779   2.084  0.00  0.00    +0.082 C 
ATOM     19  C   UNL     1      11.391   3.762   2.462  0.00  0.00    +0.085 C 
ATOM     20  C   UNL     1      13.320   4.719   1.359  0.00  0.00    +0.022 C 
ATOM     21  C   UNL     1      12.594   3.400   1.607  0.00  0.00    +0.017 C 
BRANCH  18  22
ATOM     22  C   UNL     1      13.359   6.899   2.638  0.00  0.00    +0.178 C 
BRANCH  22   3
ATOM      3  O   UNL     1      14.702   6.448   2.685  0.00  0.00    -0.381 OA
ATOM     24  C   UNL     1      15.621   7.501   2.420  0.00  0.00    +0.194 C 
ENDBRANCH  22   3
ENDBRANCH  18  22
ENDBRANCH  16   7
ENDBRANCH  10  16
BRANCH  11  17
ATOM     17  C   UNL     1       8.541   8.764   5.842  0.00  0.00    +0.124 C 
BRANCH  17   8
ATOM      8  N   UNL     1       7.527   8.566   4.819  0.00  0.00    -0.188 NA
ATOM     28  H   UNL     1       7.497   7.611   4.439  0.00  0.00    +0.148 HD
BRANCH   8   1
ATOM      1  S   UNL     1       7.154   9.810   3.704  0.00  0.00    +0.065 S 
ATOM      4  O   UNL     1       7.819  11.031   4.121  0.00  0.00    -0.153 OA
ATOM      5  O   UNL     1       5.729   9.812   3.434  0.00  0.00    -0.153 OA
BRANCH   1  23
ATOM      2  S   UNL     1       7.353   9.881   0.780  0.00  0.00    -0.077 S 
ATOM     23  C   UNL     1       7.956   9.224   2.241  0.00  0.00    +0.142 A 
ATOM     25  C   UNL     1       8.985   8.335   2.022  0.00  0.00    +0.036 A 
ATOM     26  C   UNL     1       9.281   8.191   0.636  0.00  0.00    +0.010 A 
ATOM     27  C   UNL     1       8.468   8.975  -0.151  0.00  0.00    +0.047 A 
ENDBRANCH   1  23
ENDBRANCH   8   1
ENDBRANCH  17   8
ENDBRANCH  11  17
TORSDOF 8
ENDMDL
MODEL 10
REMARK VINA RESULT:      -5.3     13.609     16.774
REMARK  Name = 40779916
REMARK  9 active torsions:
REMARK  status: ('A' for Active; 'I' for Inactive)
REMARK    1  A    between atoms: S_1  and  N_8
REMARK    2  A    between atoms: S_1  and  C_23
REMARK    3  A    between atoms: O_3  and  C_22
REMARK    4  A    between atoms: O_3  and  C_24
REMARK    5  A    between atoms: N_7  and  C_16
REMARK    6  A    between atoms: N_8  and  C_17
REMARK    7  A    between atoms: C_10  and  C_16
REMARK    8  A    between atoms: C_11  and  C_17
REMARK    9  A    between atoms: C_18  and  C_22
REMARK                            x       y       z     vdW  Elec       q    Type
REMARK                         _______ _______ _______ _____ _____    ______ ____
ROOT
ATOM      6  N   UNL     1      14.859   8.135   4.002  0.00  0.00    -0.298 NA
ATOM      9  C   UNL     1      12.295   8.574   4.055  0.00  0.00    -0.003 C 
ATOM     10  C   UNL     1      12.790   8.026   5.413  0.00  0.00    +0.020 C 
ATOM     11  C   UNL     1      14.202   7.460   2.849  0.00  0.00    +0.072 C 
ATOM     12  C   UNL     1      12.665   7.580   2.939  0.00  0.00    +0.024 C 
ATOM     13  C   UNL     1      14.282   7.649   5.279  0.00  0.00    +0.089 C 
ATOM     14  C   UNL     1      13.078   9.873   3.786  0.00  0.00    +0.019 C 
ATOM     15  C   UNL     1      14.586   9.588   3.896  0.00  0.00    +0.085 C 
ENDROOT
BRANCH  10  16
ATOM     16  C   UNL     1      11.956   6.855   5.929  0.00  0.00    +0.089 C 
BRANCH  16   7
ATOM      7  N   UNL     1      11.081   7.278   7.016  0.00  0.00    -0.297 NA
ATOM     18  C   UNL     1       9.772   6.610   7.003  0.00  0.00    +0.082 C 
ATOM     19  C   UNL     1      10.776   8.708   6.931  0.00  0.00    +0.085 C 
ATOM     20  C   UNL     1       8.934   7.497   7.927  0.00  0.00    +0.022 C 
ATOM     21  C   UNL     1       9.594   8.871   7.872  0.00  0.00    +0.017 C 
BRANCH  18  22
ATOM     22  C   UNL     1       9.823   5.170   7.497  0.00  0.00    +0.178 C 
BRANCH  22   3
ATOM      3  O   UNL     1      10.376   5.158   8.802  0.00  0.00    -0.381 OA
ATOM     24  C   UNL     1       9.506   4.531   9.736  0.00  0.00    +0.194 C 
ENDBRANCH  22   3
ENDBRANCH  18  22
ENDBRANCH  16   7
ENDBRANCH  10  16
BRANCH  11  17
ATOM     17  C   UNL     1      14.652   6.006   2.692  0.00  0.00    +0.124 C 
BRANCH  17   8
ATOM      8  N   UNL     1      13.586   5.196   2.123  0.00  0.00    -0.188 NA
ATOM     28  H   UNL     1      12.676   5.319   2.585  0.00  0.00    +0.148 HD
BRANCH   8   1
ATOM      1  S   UNL     1      13.905   3.619   1.536  0.00  0.00    +0.065 S 
ATOM      4  O   UNL     1      12.731   2.792   1.747  0.00  0.00    -0.153 OA
ATOM      5  O   UNL     1      15.202   3.176   2.008  0.00  0.00    -0.153 OA
BRANCH   1  23
ATOM      2  S   UNL     1      12.746   3.351  -1.143  0.00  0.00    -0.077 S 
ATOM     23  C   UNL     1      14.059   3.914  -0.200  0.00  0.00    +0.142 A 
ATOM     25  C   UNL     1      15.031   4.513  -0.972  0.00  0.00    +0.036 A 
ATOM     26  C   UNL     1      14.692   4.509  -2.356  0.00  0.00    +0.010 A 
ATOM     27  C   UNL     1      13.475   3.908  -2.589  0.00  0.00    +0.047 A 
ENDBRANCH   1  23
ENDBRANCH   8   1
ENDBRANCH  17   8
ENDBRANCH  11  17
TORSDOF 8
ENDMDL
