MODEL 1
REMARK VINA RESULT:      -7.5      0.000      0.000
REMARK  Name = 51138023
REMARK  9 active torsions:
REMARK  status: ('A' for Active; 'I' for Inactive)
REMARK    1  A    between atoms: N_3  and  C_19
REMARK    2  A    between atoms: N_4  and  C_24
REMARK    3  A    between atoms: C_6  and  C_10
REMARK    4  A    between atoms: C_9  and  C_17
REMARK    5  A    between atoms: C_10  and  C_14
REMARK    6  A    between atoms: C_14  and  C_21
REMARK    7  A    between atoms: C_14  and  C_22
REMARK    8  A    between atoms: C_19  and  C_23
REMARK    9  A    between atoms: C_24  and  C_27
REMARK                            x       y       z     vdW  Elec       q    Type
REMARK                         _______ _______ _______ _____ _____    ______ ____
ROOT
ATOM      2  N   UNL     1      -6.764 -11.404  16.242  0.00  0.00    -0.299 NA
ATOM      3  N   UNL     1      -4.157  -9.991  12.154  0.00  0.00    -0.342 N 
ATOM      6  C   UNL     1      -5.375 -11.238  16.692  0.00  0.00    +0.085 C 
ATOM      7  C   UNL     1      -4.340 -10.987  15.592  0.00  0.00    -0.021 A 
ATOM      8  C   UNL     1      -4.640 -10.573  14.262  0.00  0.00    +0.008 A 
ATOM      9  C   UNL     1      -7.342 -10.226  15.610  0.00  0.00    +0.145 C 
ATOM     11  C   UNL     1      -5.857 -10.267  13.561  0.00  0.00    -0.020 A 
ATOM     12  C   UNL     1      -7.253 -10.305  14.088  0.00  0.00    +0.065 C 
ATOM     13  C   UNL     1      -3.597 -10.364  13.353  0.00  0.00    +0.050 A 
ATOM     15  C   UNL     1      -5.513  -9.924  12.268  0.00  0.00    +0.091 A 
ATOM     16  C   UNL     1      -2.963 -11.093  15.918  0.00  0.00    +0.006 A 
ATOM     18  C   UNL     1      -2.248 -10.519  13.681  0.00  0.00    +0.026 A 
ATOM     20  C   UNL     1      -1.948 -10.876  14.988  0.00  0.00    +0.002 A 
ATOM     35  H   UNL     1      -6.858 -12.225  15.646  0.00  0.00    +0.123 HD
ENDROOT
BRANCH   9  17
ATOM      1  O   UNL     1      -9.639 -10.828  15.370  0.00  0.00    -0.274 OA
ATOM      4  N   UNL     1      -9.007  -9.481  17.161  0.00  0.00    -0.310 N 
ATOM     17  C   UNL     1      -8.783 -10.230  16.019  0.00  0.00    +0.231 C 
ATOM     36  H   UNL     1      -8.220  -9.046  17.634  0.00  0.00    +0.149 HD
BRANCH   4  24
ATOM     24  C   UNL     1     -10.316  -9.307  17.748  0.00  0.00    +0.139 C 
BRANCH  24  27
ATOM     27  C   UNL     1     -11.115  -8.255  17.037  0.00  0.00    -0.030 A 
ATOM     29  C   UNL     1     -10.530  -7.027  16.726  0.00  0.00    +0.005 A 
ATOM     30  C   UNL     1     -12.442  -8.503  16.686  0.00  0.00    +0.005 A 
ATOM     32  C   UNL     1     -11.273  -6.048  16.066  0.00  0.00    +0.000 A 
ATOM     33  C   UNL     1     -13.184  -7.525  16.026  0.00  0.00    +0.000 A 
ATOM     34  C   UNL     1     -12.600  -6.297  15.715  0.00  0.00    +0.000 A 
ENDBRANCH  24  27
ENDBRANCH   4  24
ENDBRANCH   9  17
BRANCH   6  10
ATOM     10  C   UNL     1      -5.075 -12.511  17.505  0.00  0.00    +0.026 C 
BRANCH  10  14
ATOM     14  C   UNL     1      -4.960 -12.247  19.009  0.00  0.00    -0.015 C 
ATOM     21  C   UNL     1      -5.711 -10.959  19.355  0.00  0.00    +0.007 C 
ATOM     22  C   UNL     1      -3.509 -12.140  19.480  0.00  0.00    +0.007 C 
ENDBRANCH  10  14
ENDBRANCH   6  10
BRANCH   3  19
ATOM     19  C   UNL     1      -3.427  -9.690  10.941  0.00  0.00    +0.158 C 
BRANCH  19  23
ATOM      5  N   UNL     1      -5.145 -10.095   7.589  0.00  0.00    -0.263 NA
ATOM     23  C   UNL     1      -4.015 -10.338   9.712  0.00  0.00    -0.010 A 
ATOM     25  C   UNL     1      -3.988 -11.718   9.547  0.00  0.00    +0.008 A 
ATOM     26  C   UNL     1      -4.600  -9.577   8.713  0.00  0.00    +0.116 A 
ATOM     28  C   UNL     1      -4.538 -12.287   8.405  0.00  0.00    +0.020 A 
ATOM     31  C   UNL     1      -5.100 -11.440   7.464  0.00  0.00    +0.111 A 
ENDBRANCH  19  23
ENDBRANCH   3  19
TORSDOF 7
ENDMDL
MODEL 2
REMARK VINA RESULT:      -7.5      1.341      2.392
REMARK  Name = 51138023
REMARK  9 active torsions:
REMARK  status: ('A' for Active; 'I' for Inactive)
REMARK    1  A    between atoms: N_3  and  C_19
REMARK    2  A    between atoms: N_4  and  C_24
REMARK    3  A    between atoms: C_6  and  C_10
REMARK    4  A    between atoms: C_9  and  C_17
REMARK    5  A    between atoms: C_10  and  C_14
REMARK    6  A    between atoms: C_14  and  C_21
REMARK    7  A    between atoms: C_14  and  C_22
REMARK    8  A    between atoms: C_19  and  C_23
REMARK    9  A    between atoms: C_24  and  C_27
REMARK                            x       y       z     vdW  Elec       q    Type
REMARK                         _______ _______ _______ _____ _____    ______ ____
ROOT
ATOM      2  N   UNL     1      -6.844 -10.928  16.599  0.00  0.00    -0.299 NA
ATOM      3  N   UNL     1      -3.740 -10.324  12.661  0.00  0.00    -0.342 N 
ATOM      6  C   UNL     1      -5.497 -10.788  17.171  0.00  0.00    +0.085 C 
ATOM      7  C   UNL     1      -4.342 -10.775  16.166  0.00  0.00    -0.021 A 
ATOM      8  C   UNL     1      -4.474 -10.548  14.766  0.00  0.00    +0.008 A 
ATOM      9  C   UNL     1      -7.259  -9.824  15.746  0.00  0.00    +0.145 C 
ATOM     11  C   UNL     1      -5.588 -10.272  13.898  0.00  0.00    -0.020 A 
ATOM     12  C   UNL     1      -7.027 -10.138  14.270  0.00  0.00    +0.065 C 
ATOM     13  C   UNL     1      -3.333 -10.548  13.955  0.00  0.00    +0.050 A 
ATOM     15  C   UNL     1      -5.091 -10.151  12.616  0.00  0.00    +0.091 A 
ATOM     16  C   UNL     1      -3.017 -10.921  16.652  0.00  0.00    +0.006 A 
ATOM     18  C   UNL     1      -2.041 -10.741  14.448  0.00  0.00    +0.026 A 
ATOM     20  C   UNL     1      -1.901 -10.915  15.818  0.00  0.00    +0.002 A 
ATOM     35  H   UNL     1      -6.945 -11.822  16.120  0.00  0.00    +0.123 HD
ENDROOT
BRANCH   9  17
ATOM      1  O   UNL     1      -9.561 -10.321  15.362  0.00  0.00    -0.274 OA
ATOM      4  N   UNL     1      -9.004  -8.722  16.959  0.00  0.00    -0.310 N 
ATOM     17  C   UNL     1      -8.729  -9.671  15.990  0.00  0.00    +0.231 C 
ATOM     36  H   UNL     1      -8.235  -8.258  17.435  0.00  0.00    +0.149 HD
BRANCH   4  24
ATOM     24  C   UNL     1     -10.346  -8.370  17.363  0.00  0.00    +0.139 C 
BRANCH  24  27
ATOM     27  C   UNL     1     -10.902  -9.339  18.366  0.00  0.00    -0.030 A 
ATOM     29  C   UNL     1     -12.283  -9.463  18.525  0.00  0.00    +0.005 A 
ATOM     30  C   UNL     1     -10.039 -10.115  19.140  0.00  0.00    +0.005 A 
ATOM     32  C   UNL     1     -12.800 -10.362  19.457  0.00  0.00    +0.000 A 
ATOM     33  C   UNL     1     -10.556 -11.014  20.073  0.00  0.00    +0.000 A 
ATOM     34  C   UNL     1     -11.937 -11.138  20.231  0.00  0.00    +0.000 A 
ENDBRANCH  24  27
ENDBRANCH   4  24
ENDBRANCH   9  17
BRANCH   6  10
ATOM     10  C   UNL     1      -5.384 -11.940  18.185  0.00  0.00    +0.026 C 
BRANCH  10  14
ATOM     14  C   UNL     1      -5.972 -11.591  19.556  0.00  0.00    -0.015 C 
ATOM     21  C   UNL     1      -7.249 -12.404  19.779  0.00  0.00    +0.007 C 
ATOM     22  C   UNL     1      -6.277 -10.099  19.703  0.00  0.00    +0.007 C 
ENDBRANCH  10  14
ENDBRANCH   6  10
BRANCH   3  19
ATOM     19  C   UNL     1      -2.872 -10.259  11.505  0.00  0.00    +0.158 C 
BRANCH  19  23
ATOM      5  N   UNL     1      -4.528 -11.839   8.486  0.00  0.00    -0.263 NA
ATOM     23  C   UNL     1      -3.608 -10.398  10.196  0.00  0.00    -0.010 A 
ATOM     25  C   UNL     1      -4.039  -9.279   9.493  0.00  0.00    +0.008 A 
ATOM     26  C   UNL     1      -3.874 -11.645   9.655  0.00  0.00    +0.116 A 
ATOM     28  C   UNL     1      -4.714  -9.438   8.289  0.00  0.00    +0.020 A 
ATOM     31  C   UNL     1      -4.931 -10.727   7.832  0.00  0.00    +0.111 A 
ENDBRANCH  19  23
ENDBRANCH   3  19
TORSDOF 7
ENDMDL
MODEL 3
REMARK VINA RESULT:      -7.3     25.915     30.060
REMARK  Name = 51138023
REMARK  9 active torsions:
REMARK  status: ('A' for Active; 'I' for Inactive)
REMARK    1  A    between atoms: N_3  and  C_19
REMARK    2  A    between atoms: N_4  and  C_24
REMARK    3  A    between atoms: C_6  and  C_10
REMARK    4  A    between atoms: C_9  and  C_17
REMARK    5  A    between atoms: C_10  and  C_14
REMARK    6  A    between atoms: C_14  and  C_21
REMARK    7  A    between atoms: C_14  and  C_22
REMARK    8  A    between atoms: C_19  and  C_23
REMARK    9  A    between atoms: C_24  and  C_27
REMARK                            x       y       z     vdW  Elec       q    Type
REMARK                         _______ _______ _______ _____ _____    ______ ____
ROOT
ATOM      2  N   UNL     1      15.380   6.215   2.124  0.00  0.00    -0.299 NA
ATOM      3  N   UNL     1      11.357   7.613   4.838  0.00  0.00    -0.342 N 
ATOM      6  C   UNL     1      14.231   5.527   1.517  0.00  0.00    +0.085 C 
ATOM      7  C   UNL     1      12.906   5.642   2.276  0.00  0.00    -0.021 A 
ATOM      8  C   UNL     1      12.621   6.602   3.288  0.00  0.00    +0.008 A 
ATOM      9  C   UNL     1      15.252   7.663   2.196  0.00  0.00    +0.145 C 
ATOM     11  C   UNL     1      13.365   7.679   3.884  0.00  0.00    -0.020 A 
ATOM     12  C   UNL     1      14.758   8.114   3.569  0.00  0.00    +0.065 C 
ATOM     13  C   UNL     1      11.360   6.611   3.896  0.00  0.00    +0.050 A 
ATOM     15  C   UNL     1      12.554   8.265   4.835  0.00  0.00    +0.091 A 
ATOM     16  C   UNL     1      11.835   4.788   1.905  0.00  0.00    +0.006 A 
ATOM     18  C   UNL     1      10.334   5.729   3.550  0.00  0.00    +0.026 A 
ATOM     20  C   UNL     1      10.590   4.823   2.530  0.00  0.00    +0.002 A 
ATOM     35  H   UNL     1      15.601   5.819   3.036  0.00  0.00    +0.123 HD
ENDROOT
BRANCH   9  17
ATOM      1  O   UNL     1      16.905   8.928   1.030  0.00  0.00    -0.274 OA
ATOM      4  N   UNL     1      17.530   7.732   2.927  0.00  0.00    -0.310 N 
ATOM     17  C   UNL     1      16.636   8.191   1.975  0.00  0.00    +0.231 C 
ATOM     36  H   UNL     1      17.195   7.143   3.683  0.00  0.00    +0.149 HD
BRANCH   4  24
ATOM     24  C   UNL     1      18.934   8.078   2.924  0.00  0.00    +0.139 C 
BRANCH  24  27
ATOM     27  C   UNL     1      19.515   8.078   4.308  0.00  0.00    -0.030 A 
ATOM     29  C   UNL     1      18.799   8.640   5.364  0.00  0.00    +0.005 A 
ATOM     30  C   UNL     1      20.771   7.516   4.537  0.00  0.00    +0.005 A 
ATOM     32  C   UNL     1      19.339   8.641   6.650  0.00  0.00    +0.000 A 
ATOM     33  C   UNL     1      21.311   7.517   5.823  0.00  0.00    +0.000 A 
ATOM     34  C   UNL     1      20.595   8.080   6.880  0.00  0.00    +0.000 A 
ENDBRANCH  24  27
ENDBRANCH   4  24
ENDBRANCH   9  17
BRANCH   6  10
ATOM     10  C   UNL     1      14.693   4.068   1.355  0.00  0.00    +0.026 C 
BRANCH  10  14
ATOM     14  C   UNL     1      14.946   3.679  -0.105  0.00  0.00    -0.015 C 
ATOM     21  C   UNL     1      16.316   4.208  -0.538  0.00  0.00    +0.007 C 
ATOM     22  C   UNL     1      13.866   4.206  -1.051  0.00  0.00    +0.007 C 
ENDBRANCH  10  14
ENDBRANCH   6  10
BRANCH   3  19
ATOM     19  C   UNL     1      10.247   7.954   5.701  0.00  0.00    +0.158 C 
BRANCH  19  23
ATOM      5  N   UNL     1      11.156   5.463   8.407  0.00  0.00    -0.263 NA
ATOM     23  C   UNL     1      10.126   7.052   6.904  0.00  0.00    -0.010 A 
ATOM     25  C   UNL     1       8.933   6.958   7.613  0.00  0.00    +0.008 A 
ATOM     26  C   UNL     1      11.199   6.290   7.338  0.00  0.00    +0.116 A 
ATOM     28  C   UNL     1       8.851   6.118   8.717  0.00  0.00    +0.020 A 
ATOM     31  C   UNL     1       9.980   5.398   9.070  0.00  0.00    +0.111 A 
ENDBRANCH  19  23
ENDBRANCH   3  19
TORSDOF 7
ENDMDL
MODEL 4
REMARK VINA RESULT:      -7.1      2.490      4.182
REMARK  Name = 51138023
REMARK  9 active torsions:
REMARK  status: ('A' for Active; 'I' for Inactive)
REMARK    1  A    between atoms: N_3  and  C_19
REMARK    2  A    between atoms: N_4  and  C_24
REMARK    3  A    between atoms: C_6  and  C_10
REMARK    4  A    between atoms: C_9  and  C_17
REMARK    5  A    between atoms: C_10  and  C_14
REMARK    6  A    between atoms: C_14  and  C_21
REMARK    7  A    between atoms: C_14  and  C_22
REMARK    8  A    between atoms: C_19  and  C_23
REMARK    9  A    between atoms: C_24  and  C_27
REMARK                            x       y       z     vdW  Elec       q    Type
REMARK                         _______ _______ _______ _____ _____    ______ ____
ROOT
ATOM      2  N   UNL     1      -8.586 -10.616  18.109  0.00  0.00    -0.299 NA
ATOM      3  N   UNL     1      -4.023 -10.584  15.945  0.00  0.00    -0.342 N 
ATOM      6  C   UNL     1      -7.636 -10.965  19.176  0.00  0.00    +0.085 C 
ATOM      7  C   UNL     1      -6.190 -11.203  18.732  0.00  0.00    -0.021 A 
ATOM      8  C   UNL     1      -5.637 -10.795  17.484  0.00  0.00    +0.008 A 
ATOM      9  C   UNL     1      -8.312  -9.352  17.442  0.00  0.00    +0.145 C 
ATOM     11  C   UNL     1      -6.156 -10.094  16.341  0.00  0.00    -0.020 A 
ATOM     12  C   UNL     1      -7.536  -9.560  16.143  0.00  0.00    +0.065 C 
ATOM     13  C   UNL     1      -4.291 -11.062  17.206  0.00  0.00    +0.050 A 
ATOM     15  C   UNL     1      -5.134  -9.995  15.418  0.00  0.00    +0.091 A 
ATOM     16  C   UNL     1      -5.290 -11.806  19.648  0.00  0.00    +0.006 A 
ATOM     18  C   UNL     1      -3.433 -11.700  18.103  0.00  0.00    +0.026 A 
ATOM     20  C   UNL     1      -3.954 -12.057  19.339  0.00  0.00    +0.002 A 
ATOM     35  H   UNL     1      -8.673 -11.376  17.436  0.00  0.00    +0.123 HD
ENDROOT
BRANCH   9  17
ATOM      1  O   UNL     1      -9.787  -7.635  16.688  0.00  0.00    -0.274 OA
ATOM      4  N   UNL     1     -10.685  -9.663  17.397  0.00  0.00    -0.310 N 
ATOM     17  C   UNL     1      -9.657  -8.776  17.123  0.00  0.00    +0.231 C 
ATOM     36  H   UNL     1     -10.462 -10.595  17.733  0.00  0.00    +0.149 HD
BRANCH   4  24
ATOM     24  C   UNL     1     -12.080  -9.341  17.197  0.00  0.00    +0.139 C 
BRANCH  24  27
ATOM     27  C   UNL     1     -12.886  -9.542  18.447  0.00  0.00    -0.030 A 
ATOM     29  C   UNL     1     -12.242  -9.750  19.667  0.00  0.00    +0.005 A 
ATOM     30  C   UNL     1     -14.280  -9.523  18.390  0.00  0.00    +0.005 A 
ATOM     32  C   UNL     1     -12.991  -9.938  20.828  0.00  0.00    +0.000 A 
ATOM     33  C   UNL     1     -15.029  -9.711  19.551  0.00  0.00    +0.000 A 
ATOM     34  C   UNL     1     -14.384  -9.918  20.771  0.00  0.00    +0.000 A 
ENDBRANCH  24  27
ENDBRANCH   4  24
ENDBRANCH   9  17
BRANCH   6  10
ATOM     10  C   UNL     1      -8.255 -12.198  19.858  0.00  0.00    +0.026 C 
BRANCH  10  14
ATOM     14  C   UNL     1      -9.365 -12.849  19.027  0.00  0.00    -0.015 C 
ATOM     21  C   UNL     1     -10.594 -13.071  19.912  0.00  0.00    +0.007 C 
ATOM     22  C   UNL     1      -8.932 -14.176  18.402  0.00  0.00    +0.007 C 
ENDBRANCH  10  14
ENDBRANCH   6  10
BRANCH   3  19
ATOM     19  C   UNL     1      -2.748 -10.667  15.267  0.00  0.00    +0.158 C 
BRANCH  19  23
ATOM      5  N   UNL     1      -3.137 -13.378  12.650  0.00  0.00    -0.263 NA
ATOM     23  C   UNL     1      -2.827 -11.346  13.922  0.00  0.00    -0.010 A 
ATOM     25  C   UNL     1      -2.672 -10.624  12.744  0.00  0.00    +0.008 A 
ATOM     26  C   UNL     1      -3.055 -12.709  13.822  0.00  0.00    +0.116 A 
ATOM     28  C   UNL     1      -2.751 -11.277  11.520  0.00  0.00    +0.020 A 
ATOM     31  C   UNL     1      -2.982 -12.643  11.526  0.00  0.00    +0.111 A 
ENDBRANCH  19  23
ENDBRANCH   3  19
TORSDOF 7
ENDMDL
MODEL 5
REMARK VINA RESULT:      -7.1     22.174     26.822
REMARK  Name = 51138023
REMARK  9 active torsions:
REMARK  status: ('A' for Active; 'I' for Inactive)
REMARK    1  A    between atoms: N_3  and  C_19
REMARK    2  A    between atoms: N_4  and  C_24
REMARK    3  A    between atoms: C_6  and  C_10
REMARK    4  A    between atoms: C_9  and  C_17
REMARK    5  A    between atoms: C_10  and  C_14
REMARK    6  A    between atoms: C_14  and  C_21
REMARK    7  A    between atoms: C_14  and  C_22
REMARK    8  A    between atoms: C_19  and  C_23
REMARK    9  A    between atoms: C_24  and  C_27
REMARK                            x       y       z     vdW  Elec       q    Type
REMARK                         _______ _______ _______ _____ _____    ______ ____
ROOT
ATOM      2  N   UNL     1     -12.393   9.760  34.012  0.00  0.00    -0.299 NA
ATOM      3  N   UNL     1     -15.101   5.675  32.793  0.00  0.00    -0.342 N 
ATOM      6  C   UNL     1     -12.112   8.769  35.060  0.00  0.00    +0.085 C 
ATOM      7  C   UNL     1     -12.961   7.494  35.020  0.00  0.00    -0.021 A 
ATOM      8  C   UNL     1     -13.724   7.052  33.902  0.00  0.00    +0.008 A 
ATOM      9  C   UNL     1     -12.112   9.308  32.657  0.00  0.00    +0.145 C 
ATOM     11  C   UNL     1     -13.942   7.561  32.574  0.00  0.00    -0.020 A 
ATOM     12  C   UNL     1     -13.373   8.798  31.963  0.00  0.00    +0.065 C 
ATOM     13  C   UNL     1     -14.448   5.857  33.989  0.00  0.00    +0.050 A 
ATOM     15  C   UNL     1     -14.799   6.689  31.934  0.00  0.00    +0.091 A 
ATOM     16  C   UNL     1     -12.940   6.629  36.144  0.00  0.00    +0.006 A 
ATOM     18  C   UNL     1     -14.452   5.043  35.124  0.00  0.00    +0.026 A 
ATOM     20  C   UNL     1     -13.672   5.445  36.199  0.00  0.00    +0.002 A 
ATOM     35  H   UNL     1     -13.345  10.115  34.092  0.00  0.00    +0.123 HD
ENDROOT
BRANCH   9  17
ATOM      1  O   UNL     1     -10.686  11.200  32.374  0.00  0.00    -0.274 OA
ATOM      4  N   UNL     1     -12.320  10.769  30.772  0.00  0.00    -0.310 N 
ATOM     17  C   UNL     1     -11.611  10.521  31.935  0.00  0.00    +0.231 C 
ATOM     36  H   UNL     1     -13.054  10.127  30.489  0.00  0.00    +0.149 HD
BRANCH   4  24
ATOM     24  C   UNL     1     -12.048  11.894  29.906  0.00  0.00    +0.139 C 
BRANCH  24  27
ATOM     27  C   UNL     1     -11.782  11.462  28.493  0.00  0.00    -0.030 A 
ATOM     29  C   UNL     1     -10.972  10.353  28.244  0.00  0.00    +0.005 A 
ATOM     30  C   UNL     1     -12.343  12.169  27.429  0.00  0.00    +0.005 A 
ATOM     32  C   UNL     1     -10.724   9.953  26.931  0.00  0.00    +0.000 A 
ATOM     33  C   UNL     1     -12.094  11.768  26.117  0.00  0.00    +0.000 A 
ATOM     34  C   UNL     1     -11.285  10.660  25.867  0.00  0.00    +0.000 A 
ENDBRANCH  24  27
ENDBRANCH   4  24
ENDBRANCH   9  17
BRANCH   6  10
ATOM     10  C   UNL     1     -12.272   9.543  36.381  0.00  0.00    +0.026 C 
BRANCH  10  14
ATOM     14  C   UNL     1     -10.947   9.744  37.121  0.00  0.00    -0.015 C 
ATOM     21  C   UNL     1      -9.891   8.808  36.529  0.00  0.00    +0.007 C 
ATOM     22  C   UNL     1     -11.069   9.499  38.626  0.00  0.00    +0.007 C 
ENDBRANCH  10  14
ENDBRANCH   6  10
BRANCH   3  19
ATOM     19  C   UNL     1     -15.969   4.565  32.468  0.00  0.00    +0.158 C 
BRANCH  19  23
ATOM      5  N   UNL     1     -13.877   1.577  31.446  0.00  0.00    -0.263 NA
ATOM     23  C   UNL     1     -15.307   3.519  31.606  0.00  0.00    -0.010 A 
ATOM     25  C   UNL     1     -15.488   3.507  30.227  0.00  0.00    +0.008 A 
ATOM     26  C   UNL     1     -14.499   2.541  32.162  0.00  0.00    +0.116 A 
ATOM     28  C   UNL     1     -14.865   2.532  29.458  0.00  0.00    +0.020 A 
ATOM     31  C   UNL     1     -14.077   1.598  30.109  0.00  0.00    +0.111 A 
ENDBRANCH  19  23
ENDBRANCH   3  19
TORSDOF 7
ENDMDL
MODEL 6
REMARK VINA RESULT:      -7.1     23.877     27.686
REMARK  Name = 51138023
REMARK  9 active torsions:
REMARK  status: ('A' for Active; 'I' for Inactive)
REMARK    1  A    between atoms: N_3  and  C_19
REMARK    2  A    between atoms: N_4  and  C_24
REMARK    3  A    between atoms: C_6  and  C_10
REMARK    4  A    between atoms: C_9  and  C_17
REMARK    5  A    between atoms: C_10  and  C_14
REMARK    6  A    between atoms: C_14  and  C_21
REMARK    7  A    between atoms: C_14  and  C_22
REMARK    8  A    between atoms: C_19  and  C_23
REMARK    9  A    between atoms: C_24  and  C_27
REMARK                            x       y       z     vdW  Elec       q    Type
REMARK                         _______ _______ _______ _____ _____    ______ ____
ROOT
ATOM      2  N   UNL     1      10.867   5.528   3.946  0.00  0.00    -0.299 NA
ATOM      3  N   UNL     1       8.633   8.940   0.967  0.00  0.00    -0.342 N 
ATOM      6  C   UNL     1       9.696   6.006   4.695  0.00  0.00    +0.085 C 
ATOM      7  C   UNL     1       8.946   7.190   4.079  0.00  0.00    -0.021 A 
ATOM      8  C   UNL     1       9.070   7.628   2.730  0.00  0.00    +0.008 A 
ATOM      9  C   UNL     1      10.565   4.983   2.630  0.00  0.00    +0.145 C 
ATOM     11  C   UNL     1       9.831   7.175   1.597  0.00  0.00    -0.020 A 
ATOM     12  C   UNL     1      10.777   6.023   1.531  0.00  0.00    +0.065 C 
ATOM     13  C   UNL     1       8.314   8.719   2.286  0.00  0.00    +0.050 A 
ATOM     15  C   UNL     1       9.539   8.015   0.541  0.00  0.00    +0.091 A 
ATOM     16  C   UNL     1       7.988   7.873   4.873  0.00  0.00    +0.006 A 
ATOM     18  C   UNL     1       7.410   9.409   3.097  0.00  0.00    +0.026 A 
ATOM     20  C   UNL     1       7.250   8.957   4.400  0.00  0.00    +0.002 A 
ATOM     35  H   UNL     1      11.583   6.251   3.890  0.00  0.00    +0.123 HD
ENDROOT
BRANCH   9  17
ATOM      1  O   UNL     1      11.344   2.747   2.919  0.00  0.00    -0.274 OA
ATOM      4  N   UNL     1      12.642   4.244   1.696  0.00  0.00    -0.310 N 
ATOM     17  C   UNL     1      11.537   3.860   2.438  0.00  0.00    +0.231 C 
ATOM     36  H   UNL     1      12.689   5.188   1.324  0.00  0.00    +0.149 HD
BRANCH   4  24
ATOM     24  C   UNL     1      13.736   3.351   1.389  0.00  0.00    +0.139 C 
BRANCH  24  27
ATOM     27  C   UNL     1      14.492   3.788   0.168  0.00  0.00    -0.030 A 
ATOM     29  C   UNL     1      13.819   3.966  -1.041  0.00  0.00    +0.005 A 
ATOM     30  C   UNL     1      15.866   4.017   0.242  0.00  0.00    +0.005 A 
ATOM     32  C   UNL     1      14.521   4.371  -2.176  0.00  0.00    +0.000 A 
ATOM     33  C   UNL     1      16.568   4.422  -0.893  0.00  0.00    +0.000 A 
ATOM     34  C   UNL     1      15.895   4.600  -2.103  0.00  0.00    +0.000 A 
ENDBRANCH  24  27
ENDBRANCH   4  24
ENDBRANCH   9  17
BRANCH   6  10
ATOM     10  C   UNL     1      10.236   6.316   6.103  0.00  0.00    +0.026 C 
BRANCH  10  14
ATOM     14  C   UNL     1       9.341   5.772   7.220  0.00  0.00    -0.015 C 
ATOM     21  C   UNL     1       9.030   6.896   8.211  0.00  0.00    +0.007 C 
ATOM     22  C   UNL     1       9.974   4.592   7.960  0.00  0.00    +0.007 C 
ENDBRANCH  10  14
ENDBRANCH   6  10
BRANCH   3  19
ATOM     19  C   UNL     1       8.083   9.984   0.130  0.00  0.00    +0.158 C 
BRANCH  19  23
ATOM      5  N   UNL     1       5.971   8.739  -2.757  0.00  0.00    -0.263 NA
ATOM     23  C   UNL     1       6.881   9.542  -0.667  0.00  0.00    -0.010 A 
ATOM     25  C   UNL     1       5.612   9.521  -0.099  0.00  0.00    +0.008 A 
ATOM     26  C   UNL     1       7.007   9.145  -1.988  0.00  0.00    +0.116 A 
ATOM     28  C   UNL     1       4.524   9.109  -0.858  0.00  0.00    +0.020 A 
ATOM     31  C   UNL     1       4.754   8.732  -2.171  0.00  0.00    +0.111 A 
ENDBRANCH  19  23
ENDBRANCH   3  19
TORSDOF 7
ENDMDL
MODEL 7
REMARK VINA RESULT:      -7.1      1.810      7.908
REMARK  Name = 51138023
REMARK  9 active torsions:
REMARK  status: ('A' for Active; 'I' for Inactive)
REMARK    1  A    between atoms: N_3  and  C_19
REMARK    2  A    between atoms: N_4  and  C_24
REMARK    3  A    between atoms: C_6  and  C_10
REMARK    4  A    between atoms: C_9  and  C_17
REMARK    5  A    between atoms: C_10  and  C_14
REMARK    6  A    between atoms: C_14  and  C_21
REMARK    7  A    between atoms: C_14  and  C_22
REMARK    8  A    between atoms: C_19  and  C_23
REMARK    9  A    between atoms: C_24  and  C_27
REMARK                            x       y       z     vdW  Elec       q    Type
REMARK                         _______ _______ _______ _____ _____    ______ ____
ROOT
ATOM      2  N   UNL     1      -4.544 -11.504  14.818  0.00  0.00    -0.299 NA
ATOM      3  N   UNL     1      -8.732 -10.428  17.427  0.00  0.00    -0.342 N 
ATOM      6  C   UNL     1      -4.202 -11.728  16.230  0.00  0.00    +0.085 C 
ATOM      7  C   UNL     1      -5.258 -11.292  17.251  0.00  0.00    -0.021 A 
ATOM      8  C   UNL     1      -6.624 -11.021  16.953  0.00  0.00    +0.008 A 
ATOM      9  C   UNL     1      -5.690 -12.266  14.342  0.00  0.00    +0.145 C 
ATOM     11  C   UNL     1      -7.414 -11.062  15.752  0.00  0.00    -0.020 A 
ATOM     12  C   UNL     1      -6.970 -11.434  14.376  0.00  0.00    +0.065 C 
ATOM     13  C   UNL     1      -7.493 -10.643  17.984  0.00  0.00    +0.050 A 
ATOM     15  C   UNL     1      -8.697 -10.682  16.089  0.00  0.00    +0.091 A 
ATOM     16  C   UNL     1      -4.890 -11.221  18.619  0.00  0.00    +0.006 A 
ATOM     18  C   UNL     1      -7.099 -10.533  19.319  0.00  0.00    +0.026 A 
ATOM     20  C   UNL     1      -5.781 -10.842  19.622  0.00  0.00    +0.002 A 
ATOM     35  H   UNL     1      -4.657 -10.510  14.624  0.00  0.00    +0.123 HD
ENDROOT
BRANCH   9  17
ATOM      1  O   UNL     1      -6.163 -13.216  12.206  0.00  0.00    -0.274 OA
ATOM      4  N   UNL     1      -4.098 -12.200  12.556  0.00  0.00    -0.310 N 
ATOM     17  C   UNL     1      -5.368 -12.613  12.922  0.00  0.00    +0.231 C 
ATOM     36  H   UNL     1      -3.530 -11.685  13.222  0.00  0.00    +0.149 HD
BRANCH   4  24
ATOM     24  C   UNL     1      -3.538 -12.434  11.244  0.00  0.00    +0.139 C 
BRANCH  24  27
ATOM     27  C   UNL     1      -3.878 -11.332  10.283  0.00  0.00    -0.030 A 
ATOM     29  C   UNL     1      -3.559 -10.010  10.598  0.00  0.00    +0.005 A 
ATOM     30  C   UNL     1      -4.513 -11.627   9.077  0.00  0.00    +0.005 A 
ATOM     32  C   UNL     1      -3.876  -8.986   9.706  0.00  0.00    +0.000 A 
ATOM     33  C   UNL     1      -4.830 -10.603   8.185  0.00  0.00    +0.000 A 
ATOM     34  C   UNL     1      -4.511  -9.282   8.500  0.00  0.00    +0.000 A 
ENDBRANCH  24  27
ENDBRANCH   4  24
ENDBRANCH   9  17
BRANCH   6  10
ATOM     10  C   UNL     1      -2.859 -11.002  16.424  0.00  0.00    +0.026 C 
BRANCH  10  14
ATOM     14  C   UNL     1      -2.114 -10.759  15.108  0.00  0.00    -0.015 C 
ATOM     21  C   UNL     1      -1.394 -12.044  14.691  0.00  0.00    +0.007 C 
ATOM     22  C   UNL     1      -1.109  -9.611  15.204  0.00  0.00    +0.007 C 
ENDBRANCH  10  14
ENDBRANCH   6  10
BRANCH   3  19
ATOM     19  C   UNL     1      -9.917 -10.011  18.146  0.00  0.00    +0.158 C 
BRANCH  19  23
ATOM      5  N   UNL     1     -12.778  -8.314  16.335  0.00  0.00    -0.263 NA
ATOM     23  C   UNL     1     -10.717  -8.958  17.421  0.00  0.00    -0.010 A 
ATOM     25  C   UNL     1     -10.181  -7.701  17.164  0.00  0.00    +0.008 A 
ATOM     26  C   UNL     1     -12.008  -9.213  16.990  0.00  0.00    +0.116 A 
ATOM     28  C   UNL     1     -10.942  -6.751  16.494  0.00  0.00    +0.020 A 
ATOM     31  C   UNL     1     -12.223  -7.104  16.103  0.00  0.00    +0.111 A 
ENDBRANCH  19  23
ENDBRANCH   3  19
TORSDOF 7
ENDMDL
MODEL 8
REMARK VINA RESULT:      -6.9     23.474     28.040
REMARK  Name = 51138023
REMARK  9 active torsions:
REMARK  status: ('A' for Active; 'I' for Inactive)
REMARK    1  A    between atoms: N_3  and  C_19
REMARK    2  A    between atoms: N_4  and  C_24
REMARK    3  A    between atoms: C_6  and  C_10
REMARK    4  A    between atoms: C_9  and  C_17
REMARK    5  A    between atoms: C_10  and  C_14
REMARK    6  A    between atoms: C_14  and  C_21
REMARK    7  A    between atoms: C_14  and  C_22
REMARK    8  A    between atoms: C_19  and  C_23
REMARK    9  A    between atoms: C_24  and  C_27
REMARK                            x       y       z     vdW  Elec       q    Type
REMARK                         _______ _______ _______ _____ _____    ______ ____
ROOT
ATOM      2  N   UNL     1     -12.158   9.054  35.192  0.00  0.00    -0.299 NA
ATOM      3  N   UNL     1     -15.091   5.191  33.786  0.00  0.00    -0.342 N 
ATOM      6  C   UNL     1     -13.068   9.595  34.172  0.00  0.00    +0.085 C 
ATOM      7  C   UNL     1     -13.946   8.570  33.448  0.00  0.00    -0.021 A 
ATOM      8  C   UNL     1     -14.197   7.242  33.896  0.00  0.00    +0.008 A 
ATOM      9  C   UNL     1     -12.821   8.435  36.330  0.00  0.00    +0.145 C 
ATOM     11  C   UNL     1     -13.787   6.480  35.045  0.00  0.00    -0.020 A 
ATOM     12  C   UNL     1     -12.911   6.919  36.171  0.00  0.00    +0.065 C 
ATOM     13  C   UNL     1     -15.033   6.407  33.146  0.00  0.00    +0.050 A 
ATOM     15  C   UNL     1     -14.352   5.225  34.930  0.00  0.00    +0.091 A 
ATOM     16  C   UNL     1     -14.636   8.975  32.276  0.00  0.00    +0.006 A 
ATOM     18  C   UNL     1     -15.666   6.810  31.969  0.00  0.00    +0.026 A 
ATOM     20  C   UNL     1     -15.463   8.118  31.552  0.00  0.00    +0.002 A 
ATOM     35  H   UNL     1     -11.477   8.422  34.774  0.00  0.00    +0.123 HD
ENDROOT
BRANCH   9  17
ATOM      1  O   UNL     1     -12.107   9.781  38.167  0.00  0.00    -0.274 OA
ATOM      4  N   UNL     1     -10.990   7.785  37.729  0.00  0.00    -0.310 N 
ATOM     17  C   UNL     1     -11.955   8.754  37.510  0.00  0.00    +0.231 C 
ATOM     36  H   UNL     1     -10.969   6.960  37.137  0.00  0.00    +0.149 HD
BRANCH   4  24
ATOM     24  C   UNL     1     -10.014   7.868  38.792  0.00  0.00    +0.139 C 
BRANCH  24  27
ATOM     27  C   UNL     1      -8.744   8.526  38.338  0.00  0.00    -0.030 A 
ATOM     29  C   UNL     1      -7.925   9.175  39.263  0.00  0.00    +0.005 A 
ATOM     30  C   UNL     1      -8.382   8.491  36.991  0.00  0.00    +0.005 A 
ATOM     32  C   UNL     1      -6.745   9.787  38.841  0.00  0.00    +0.000 A 
ATOM     33  C   UNL     1      -7.203   9.103  36.569  0.00  0.00    +0.000 A 
ATOM     34  C   UNL     1      -6.384   9.751  37.494  0.00  0.00    +0.000 A 
ENDBRANCH  24  27
ENDBRANCH   4  24
ENDBRANCH   9  17
BRANCH   6  10
ATOM     10  C   UNL     1     -12.154  10.374  33.210  0.00  0.00    +0.026 C 
BRANCH  10  14
ATOM     14  C   UNL     1     -10.971   9.543  32.703  0.00  0.00    -0.015 C 
ATOM     21  C   UNL     1      -9.674  10.325  32.921  0.00  0.00    +0.007 C 
ATOM     22  C   UNL     1     -11.105   9.168  31.226  0.00  0.00    +0.007 C 
ENDBRANCH  10  14
ENDBRANCH   6  10
BRANCH   3  19
ATOM     19  C   UNL     1     -15.840   4.038  33.336  0.00  0.00    +0.158 C 
BRANCH  19  23
ATOM      5  N   UNL     1     -13.481   1.697  31.518  0.00  0.00    -0.263 NA
ATOM     23  C   UNL     1     -15.165   3.284  32.217  0.00  0.00    -0.010 A 
ATOM     25  C   UNL     1     -15.562   3.456  30.896  0.00  0.00    +0.008 A 
ATOM     26  C   UNL     1     -14.128   2.402  32.474  0.00  0.00    +0.116 A 
ATOM     28  C   UNL     1     -14.920   2.748  29.886  0.00  0.00    +0.020 A 
ATOM     31  C   UNL     1     -13.895   1.890  30.246  0.00  0.00    +0.111 A 
ENDBRANCH  19  23
ENDBRANCH   3  19
TORSDOF 7
ENDMDL
MODEL 9
REMARK VINA RESULT:      -6.9      2.001      3.138
REMARK  Name = 51138023
REMARK  9 active torsions:
REMARK  status: ('A' for Active; 'I' for Inactive)
REMARK    1  A    between atoms: N_3  and  C_19
REMARK    2  A    between atoms: N_4  and  C_24
REMARK    3  A    between atoms: C_6  and  C_10
REMARK    4  A    between atoms: C_9  and  C_17
REMARK    5  A    between atoms: C_10  and  C_14
REMARK    6  A    between atoms: C_14  and  C_21
REMARK    7  A    between atoms: C_14  and  C_22
REMARK    8  A    between atoms: C_19  and  C_23
REMARK    9  A    between atoms: C_24  and  C_27
REMARK                            x       y       z     vdW  Elec       q    Type
REMARK                         _______ _______ _______ _____ _____    ______ ____
ROOT
ATOM      2  N   UNL     1      -4.720 -11.139  15.118  0.00  0.00    -0.299 NA
ATOM      3  N   UNL     1      -5.592  -9.035  10.610  0.00  0.00    -0.342 N 
ATOM      6  C   UNL     1      -3.395 -10.844  14.553  0.00  0.00    +0.085 C 
ATOM      7  C   UNL     1      -3.381 -10.363  13.099  0.00  0.00    -0.021 A 
ATOM      8  C   UNL     1      -4.510  -9.868  12.387  0.00  0.00    +0.008 A 
ATOM      9  C   UNL     1      -5.608  -9.990  15.219  0.00  0.00    +0.145 C 
ATOM     11  C   UNL     1      -5.891  -9.652  12.726  0.00  0.00    -0.020 A 
ATOM     12  C   UNL     1      -6.565  -9.914  14.032  0.00  0.00    +0.065 C 
ATOM     13  C   UNL     1      -4.359  -9.445  11.061  0.00  0.00    +0.050 A 
ATOM     15  C   UNL     1      -6.518  -9.150  11.604  0.00  0.00    +0.091 A 
ATOM     16  C   UNL     1      -2.141 -10.326  12.409  0.00  0.00    +0.006 A 
ATOM     18  C   UNL     1      -3.138  -9.461  10.384  0.00  0.00    +0.026 A 
ATOM     20  C   UNL     1      -2.024  -9.898  11.088  0.00  0.00    +0.002 A 
ATOM     35  H   UNL     1      -5.166 -11.906  14.617  0.00  0.00    +0.123 HD
ENDROOT
BRANCH   9  17
ATOM      1  O   UNL     1      -6.238 -11.212  17.169  0.00  0.00    -0.274 OA
ATOM      4  N   UNL     1      -7.302  -9.192  16.710  0.00  0.00    -0.310 N 
ATOM     17  C   UNL     1      -6.396 -10.212  16.473  0.00  0.00    +0.231 C 
ATOM     36  H   UNL     1      -7.333  -8.396  16.080  0.00  0.00    +0.149 HD
BRANCH   4  24
ATOM     24  C   UNL     1      -8.199  -9.180  17.844  0.00  0.00    +0.139 C 
BRANCH  24  27
ATOM     27  C   UNL     1      -9.593  -8.788  17.451  0.00  0.00    -0.030 A 
ATOM     29  C   UNL     1     -10.681  -9.539  17.898  0.00  0.00    +0.005 A 
ATOM     30  C   UNL     1      -9.803  -7.672  16.640  0.00  0.00    +0.005 A 
ATOM     32  C   UNL     1     -11.977  -9.175  17.532  0.00  0.00    +0.000 A 
ATOM     33  C   UNL     1     -11.098  -7.308  16.275  0.00  0.00    +0.000 A 
ATOM     34  C   UNL     1     -12.186  -8.060  16.721  0.00  0.00    +0.000 A 
ENDBRANCH  24  27
ENDBRANCH   4  24
ENDBRANCH   9  17
BRANCH   6  10
ATOM     10  C   UNL     1      -2.589 -12.139  14.755  0.00  0.00    +0.026 C 
BRANCH  10  14
ATOM     14  C   UNL     1      -3.121 -13.311  13.925  0.00  0.00    -0.015 C 
ATOM     21  C   UNL     1      -3.704 -14.371  14.862  0.00  0.00    +0.007 C 
ATOM     22  C   UNL     1      -2.045 -13.941  13.039  0.00  0.00    +0.007 C 
ENDBRANCH  10  14
ENDBRANCH   6  10
BRANCH   3  19
ATOM     19  C   UNL     1      -5.879  -8.533   9.284  0.00  0.00    +0.158 C 
BRANCH  19  23
ATOM      5  N   UNL     1      -7.768 -11.179   7.339  0.00  0.00    -0.263 NA
ATOM     23  C   UNL     1      -6.178  -9.622   8.284  0.00  0.00    -0.010 A 
ATOM     25  C   UNL     1      -5.200 -10.077   7.407  0.00  0.00    +0.008 A 
ATOM     26  C   UNL     1      -7.435 -10.200   8.211  0.00  0.00    +0.116 A 
ATOM     28  C   UNL     1      -5.505 -11.082   6.496  0.00  0.00    +0.020 A 
ATOM     31  C   UNL     1      -6.791 -11.595   6.502  0.00  0.00    +0.111 A 
ENDBRANCH  19  23
ENDBRANCH   3  19
TORSDOF 7
ENDMDL
MODEL 10
REMARK VINA RESULT:      -6.9      3.240      5.194
REMARK  Name = 51138023
REMARK  9 active torsions:
REMARK  status: ('A' for Active; 'I' for Inactive)
REMARK    1  A    between atoms: N_3  and  C_19
REMARK    2  A    between atoms: N_4  and  C_24
REMARK    3  A    between atoms: C_6  and  C_10
REMARK    4  A    between atoms: C_9  and  C_17
REMARK    5  A    between atoms: C_10  and  C_14
REMARK    6  A    between atoms: C_14  and  C_21
REMARK    7  A    between atoms: C_14  and  C_22
REMARK    8  A    between atoms: C_19  and  C_23
REMARK    9  A    between atoms: C_24  and  C_27
REMARK                            x       y       z     vdW  Elec       q    Type
REMARK                         _______ _______ _______ _____ _____    ______ ____
ROOT
ATOM      2  N   UNL     1      -5.207 -10.998  13.331  0.00  0.00    -0.299 NA
ATOM      3  N   UNL     1      -7.953  -9.055   9.564  0.00  0.00    -0.342 N 
ATOM      6  C   UNL     1      -4.236 -10.512  12.340  0.00  0.00    +0.085 C 
ATOM      7  C   UNL     1      -4.823 -10.038  11.006  0.00  0.00    -0.021 A 
ATOM      8  C   UNL     1      -6.191  -9.715  10.780  0.00  0.00    +0.008 A 
ATOM      9  C   UNL     1      -6.145  -9.991  13.807  0.00  0.00    +0.145 C 
ATOM     11  C   UNL     1      -7.367  -9.705  11.609  0.00  0.00    -0.020 A 
ATOM     12  C   UNL     1      -7.472 -10.061  13.054  0.00  0.00    +0.065 C 
ATOM     13  C   UNL     1      -6.597  -9.278   9.514  0.00  0.00    +0.050 A 
ATOM     15  C   UNL     1      -8.425  -9.303  10.818  0.00  0.00    +0.091 A 
ATOM     16  C   UNL     1      -3.940  -9.820   9.916  0.00  0.00    +0.006 A 
ATOM     18  C   UNL     1      -5.720  -9.116   8.439  0.00  0.00    +0.026 A 
ATOM     20  C   UNL     1      -4.377  -9.382   8.668  0.00  0.00    +0.002 A 
ATOM     35  H   UNL     1      -5.696 -11.823  12.987  0.00  0.00    +0.123 HD
ENDROOT
BRANCH   9  17
ATOM      1  O   UNL     1      -6.029 -11.399  15.730  0.00  0.00    -0.274 OA
ATOM      4  N   UNL     1      -7.039  -9.310  15.920  0.00  0.00    -0.310 N 
ATOM     17  C   UNL     1      -6.380 -10.325  15.248  0.00  0.00    +0.231 C 
ATOM     36  H   UNL     1      -7.263  -8.449  15.429  0.00  0.00    +0.149 HD
BRANCH   4  24
ATOM     24  C   UNL     1      -7.404  -9.394  17.316  0.00  0.00    +0.139 C 
BRANCH  24  27
ATOM     27  C   UNL     1      -8.885  -9.254  17.519  0.00  0.00    -0.030 A 
ATOM     29  C   UNL     1      -9.579 -10.203  18.270  0.00  0.00    +0.005 A 
ATOM     30  C   UNL     1      -9.567  -8.176  16.955  0.00  0.00    +0.005 A 
ATOM     32  C   UNL     1     -10.955 -10.074  18.457  0.00  0.00    +0.000 A 
ATOM     33  C   UNL     1     -10.943  -8.047  17.142  0.00  0.00    +0.000 A 
ATOM     34  C   UNL     1     -11.637  -8.996  17.893  0.00  0.00    +0.000 A 
ENDBRANCH  24  27
ENDBRANCH   4  24
ENDBRANCH   9  17
BRANCH   6  10
ATOM     10  C   UNL     1      -3.242 -11.674  12.167  0.00  0.00    +0.026 C 
BRANCH  10  14
ATOM     14  C   UNL     1      -1.994 -11.529  13.044  0.00  0.00    -0.015 C 
ATOM     21  C   UNL     1      -2.014 -12.604  14.133  0.00  0.00    +0.007 C 
ATOM     22  C   UNL     1      -1.884 -10.145  13.687  0.00  0.00    +0.007 C 
ENDBRANCH  10  14
ENDBRANCH   6  10
BRANCH   3  19
ATOM     19  C   UNL     1      -8.773  -8.604   8.460  0.00  0.00    +0.158 C 
BRANCH  19  23
ATOM      5  N   UNL     1     -11.229  -5.886   9.423  0.00  0.00    -0.263 NA
ATOM     23  C   UNL     1      -9.368  -7.235   8.677  0.00  0.00    -0.010 A 
ATOM     25  C   UNL     1      -8.657  -6.085   8.351  0.00  0.00    +0.008 A 
ATOM     26  C   UNL     1     -10.639  -7.083   9.205  0.00  0.00    +0.116 A 
ATOM     28  C   UNL     1      -9.230  -4.837   8.561  0.00  0.00    +0.020 A 
ATOM     31  C   UNL     1     -10.507  -4.791   9.095  0.00  0.00    +0.111 A 
ENDBRANCH  19  23
ENDBRANCH   3  19
TORSDOF 7
ENDMDL
