MODEL 1
REMARK VINA RESULT:      -7.2      0.000      0.000
REMARK  Name = 11941631
REMARK  5 active torsions:
REMARK  status: ('A' for Active; 'I' for Inactive)
REMARK    1  A    between atoms: O_2  and  C_10
REMARK    2  A    between atoms: O_2  and  C_18
REMARK    3  A    between atoms: O_5  and  C_22
REMARK    4  A    between atoms: O_5  and  C_27
REMARK    5  A    between atoms: C_19  and  C_21
REMARK                            x       y       z     vdW  Elec       q    Type
REMARK                         _______ _______ _______ _____ _____    ______ ____
ROOT
ATOM      3  O   UNL     1      21.499   8.368  21.775  0.00  0.00    -0.273 OA
ATOM      4  O   UNL     1      17.754   5.850  19.039  0.00  0.00    -0.270 OA
ATOM      6  N   UNL     1      19.347   6.116  20.676  0.00  0.00    -0.283 N 
ATOM      7  N   UNL     1      19.362   8.996  21.288  0.00  0.00    -0.283 N 
ATOM      8  C   UNL     1      19.802   6.665  21.936  0.00  0.00    +0.165 C 
ATOM      9  C   UNL     1      20.878   5.690  22.409  0.00  0.00    +0.065 C 
ATOM     10  C   UNL     1      21.435   5.112  21.109  0.00  0.00    +0.137 C 
ATOM     11  C   UNL     1      20.204   5.029  20.222  0.00  0.00    +0.140 C 
ATOM     12  C   UNL     1      20.314   8.058  21.629  0.00  0.00    +0.238 C 
ATOM     13  C   UNL     1      18.179   6.451  20.026  0.00  0.00    +0.249 C 
ATOM     14  C   UNL     1      17.408   7.616  20.532  0.00  0.00    +0.059 A 
ATOM     15  C   UNL     1      17.989   8.800  21.020  0.00  0.00    +0.046 A 
ATOM     16  C   UNL     1      16.017   7.560  20.336  0.00  0.00    +0.023 A 
ATOM     17  C   UNL     1      17.167   9.919  21.237  0.00  0.00    +0.024 A 
ATOM     19  C   UNL     1      15.211   8.666  20.602  0.00  0.00    -0.014 A 
ATOM     20  C   UNL     1      15.788   9.850  21.041  0.00  0.00    +0.010 A 
ATOM     28  H   UNL     1      19.675   9.963  21.315  0.00  0.00    +0.155 HD
ENDROOT
BRANCH  19  21
ATOM      1 CL   UNL     1      10.539   8.038  22.682  0.00  0.00    -0.084 Cl
ATOM     21  C   UNL     1      13.780   8.587  20.400  0.00  0.00    +0.025 A 
ATOM     22  C   UNL     1      13.227   8.718  19.125  0.00  0.00    +0.128 A 
ATOM     23  C   UNL     1      12.947   8.376  21.501  0.00  0.00    +0.032 A 
ATOM     24  C   UNL     1      11.846   8.638  18.950  0.00  0.00    +0.047 A 
ATOM     25  C   UNL     1      11.565   8.296  21.325  0.00  0.00    +0.042 A 
ATOM     26  C   UNL     1      11.014   8.427  20.050  0.00  0.00    +0.023 A 
BRANCH  22   5
ATOM      5  O   UNL     1      14.017   8.925  18.032  0.00  0.00    -0.495 OA
ATOM     27  C   UNL     1      14.071   7.879  17.065  0.00  0.00    +0.277 C 
ENDBRANCH  22   5
ENDBRANCH  19  21
BRANCH  10   2
ATOM      2  O   UNL     1      22.002   3.833  21.314  0.00  0.00    -0.378 OA
ATOM     18  C   UNL     1      22.210   3.561  22.696  0.00  0.00    +0.194 C 
ENDBRANCH  10   2
TORSDOF 3
ENDMDL
MODEL 2
REMARK VINA RESULT:      -6.8     27.570     29.928
REMARK  Name = 11941631
REMARK  5 active torsions:
REMARK  status: ('A' for Active; 'I' for Inactive)
REMARK    1  A    between atoms: O_2  and  C_10
REMARK    2  A    between atoms: O_2  and  C_18
REMARK    3  A    between atoms: O_5  and  C_22
REMARK    4  A    between atoms: O_5  and  C_27
REMARK    5  A    between atoms: C_19  and  C_21
REMARK                            x       y       z     vdW  Elec       q    Type
REMARK                         _______ _______ _______ _____ _____    ______ ____
ROOT
ATOM      3  O   UNL     1      -0.923 -11.042  15.329  0.00  0.00    -0.273 OA
ATOM      4  O   UNL     1      -6.027  -9.801  14.821  0.00  0.00    -0.270 OA
ATOM      6  N   UNL     1      -4.061 -10.880  14.311  0.00  0.00    -0.283 N 
ATOM      7  N   UNL     1      -2.609 -11.097  16.864  0.00  0.00    -0.283 N 
ATOM      8  C   UNL     1      -3.052 -11.884  14.576  0.00  0.00    +0.165 C 
ATOM      9  C   UNL     1      -2.420 -12.155  13.213  0.00  0.00    +0.065 C 
ATOM     10  C   UNL     1      -2.597 -10.835  12.465  0.00  0.00    +0.137 C 
ATOM     11  C   UNL     1      -3.947 -10.345  12.962  0.00  0.00    +0.140 C 
ATOM     12  C   UNL     1      -2.106 -11.273  15.591  0.00  0.00    +0.238 C 
ATOM     13  C   UNL     1      -5.104 -10.546  15.148  0.00  0.00    +0.249 C 
ATOM     14  C   UNL     1      -5.095 -11.096  16.529  0.00  0.00    +0.059 A 
ATOM     15  C   UNL     1      -3.938 -11.250  17.314  0.00  0.00    +0.046 A 
ATOM     16  C   UNL     1      -6.358 -11.305  17.111  0.00  0.00    +0.023 A 
ATOM     17  C   UNL     1      -4.082 -11.546  18.680  0.00  0.00    +0.024 A 
ATOM     19  C   UNL     1      -6.477 -11.646  18.458  0.00  0.00    -0.014 A 
ATOM     20  C   UNL     1      -5.339 -11.753  19.246  0.00  0.00    +0.010 A 
ATOM     28  H   UNL     1      -1.915 -10.914  17.584  0.00  0.00    +0.155 HD
ENDROOT
BRANCH  19  21
ATOM      1 CL   UNL     1      -9.592 -14.731  21.166  0.00  0.00    -0.084 Cl
ATOM     21  C   UNL     1      -7.786 -11.863  19.038  0.00  0.00    +0.025 A 
ATOM     22  C   UNL     1      -8.796 -10.909  18.906  0.00  0.00    +0.128 A 
ATOM     23  C   UNL     1      -8.033 -13.046  19.737  0.00  0.00    +0.032 A 
ATOM     24  C   UNL     1     -10.050 -11.137  19.471  0.00  0.00    +0.047 A 
ATOM     25  C   UNL     1      -9.288 -13.274  20.302  0.00  0.00    +0.042 A 
ATOM     26  C   UNL     1     -10.297 -12.319  20.170  0.00  0.00    +0.023 A 
BRANCH  22   5
ATOM      5  O   UNL     1      -8.583  -9.745  18.229  0.00  0.00    -0.495 OA
ATOM     27  C   UNL     1      -9.700  -9.176  17.551  0.00  0.00    +0.277 C 
ENDBRANCH  22   5
ENDBRANCH  19  21
BRANCH  10   2
ATOM      2  O   UNL     1      -2.611 -11.032  11.065  0.00  0.00    -0.378 OA
ATOM     18  C   UNL     1      -3.382 -10.038  10.398  0.00  0.00    +0.194 C 
ENDBRANCH  10   2
TORSDOF 3
ENDMDL
MODEL 3
REMARK VINA RESULT:      -6.7     27.954     30.024
REMARK  Name = 11941631
REMARK  5 active torsions:
REMARK  status: ('A' for Active; 'I' for Inactive)
REMARK    1  A    between atoms: O_2  and  C_10
REMARK    2  A    between atoms: O_2  and  C_18
REMARK    3  A    between atoms: O_5  and  C_22
REMARK    4  A    between atoms: O_5  and  C_27
REMARK    5  A    between atoms: C_19  and  C_21
REMARK                            x       y       z     vdW  Elec       q    Type
REMARK                         _______ _______ _______ _____ _____    ______ ____
ROOT
ATOM      3  O   UNL     1      -3.762 -11.800  19.602  0.00  0.00    -0.273 OA
ATOM      4  O   UNL     1      -6.698 -13.060  15.402  0.00  0.00    -0.270 OA
ATOM      6  N   UNL     1      -6.207 -12.019  17.392  0.00  0.00    -0.283 N 
ATOM      7  N   UNL     1      -3.286 -11.647  17.377  0.00  0.00    -0.283 N 
ATOM      8  C   UNL     1      -5.525 -11.003  18.166  0.00  0.00    +0.165 C 
ATOM      9  C   UNL     1      -6.398 -10.817  19.404  0.00  0.00    +0.065 C 
ATOM     10  C   UNL     1      -7.064 -12.181  19.582  0.00  0.00    +0.137 C 
ATOM     11  C   UNL     1      -7.287 -12.637  18.150  0.00  0.00    +0.140 C 
ATOM     12  C   UNL     1      -4.141 -11.551  18.456  0.00  0.00    +0.238 C 
ATOM     13  C   UNL     1      -5.990 -12.298  16.060  0.00  0.00    +0.249 C 
ATOM     14  C   UNL     1      -4.823 -11.663  15.395  0.00  0.00    +0.059 A 
ATOM     15  C   UNL     1      -3.573 -11.463  16.007  0.00  0.00    +0.046 A 
ATOM     16  C   UNL     1      -4.965 -11.415  14.018  0.00  0.00    +0.023 A 
ATOM     17  C   UNL     1      -2.481 -11.083  15.208  0.00  0.00    +0.024 A 
ATOM     19  C   UNL     1      -3.881 -10.992  13.251  0.00  0.00    -0.014 A 
ATOM     20  C   UNL     1      -2.635 -10.838  13.844  0.00  0.00    +0.010 A 
ATOM     28  H   UNL     1      -2.306 -11.787  17.611  0.00  0.00    +0.155 HD
ENDROOT
BRANCH  19  21
ATOM      1 CL   UNL     1      -5.576  -7.821   9.561  0.00  0.00    -0.084 Cl
ATOM     21  C   UNL     1      -4.048 -10.736  11.836  0.00  0.00    +0.025 A 
ATOM     22  C   UNL     1      -3.610 -11.659  10.884  0.00  0.00    +0.128 A 
ATOM     23  C   UNL     1      -4.657  -9.549  11.426  0.00  0.00    +0.032 A 
ATOM     24  C   UNL     1      -3.781 -11.395   9.526  0.00  0.00    +0.047 A 
ATOM     25  C   UNL     1      -4.828  -9.286  10.066  0.00  0.00    +0.042 A 
ATOM     26  C   UNL     1      -4.389 -10.208   9.116  0.00  0.00    +0.023 A 
BRANCH  22   5
ATOM      5  O   UNL     1      -3.012 -12.826  11.256  0.00  0.00    -0.495 OA
ATOM     27  C   UNL     1      -3.758 -14.026  11.066  0.00  0.00    +0.277 C 
ENDBRANCH  22   5
ENDBRANCH  19  21
BRANCH  10   2
ATOM      2  O   UNL     1      -8.289 -12.071  20.278  0.00  0.00    -0.378 OA
ATOM     18  C   UNL     1      -9.279 -11.398  19.505  0.00  0.00    +0.194 C 
ENDBRANCH  10   2
TORSDOF 3
ENDMDL
MODEL 4
REMARK VINA RESULT:      -6.6     27.533     29.753
REMARK  Name = 11941631
REMARK  5 active torsions:
REMARK  status: ('A' for Active; 'I' for Inactive)
REMARK    1  A    between atoms: O_2  and  C_10
REMARK    2  A    between atoms: O_2  and  C_18
REMARK    3  A    between atoms: O_5  and  C_22
REMARK    4  A    between atoms: O_5  and  C_27
REMARK    5  A    between atoms: C_19  and  C_21
REMARK                            x       y       z     vdW  Elec       q    Type
REMARK                         _______ _______ _______ _____ _____    ______ ____
ROOT
ATOM      3  O   UNL     1      -1.774 -10.775  16.633  0.00  0.00    -0.273 OA
ATOM      4  O   UNL     1      -5.140 -13.320  13.464  0.00  0.00    -0.270 OA
ATOM      6  N   UNL     1      -4.506 -11.993  15.232  0.00  0.00    -0.283 N 
ATOM      7  N   UNL     1      -2.013 -10.684  14.368  0.00  0.00    -0.283 N 
ATOM      8  C   UNL     1      -4.027 -10.741  15.779  0.00  0.00    +0.165 C 
ATOM      9  C   UNL     1      -4.533 -10.738  17.219  0.00  0.00    +0.065 C 
ATOM     10  C   UNL     1      -4.616 -12.221  17.575  0.00  0.00    +0.137 C 
ATOM     11  C   UNL     1      -5.056 -12.857  16.267  0.00  0.00    +0.140 C 
ATOM     12  C   UNL     1      -2.517 -10.774  15.649  0.00  0.00    +0.238 C 
ATOM     13  C   UNL     1      -4.584 -12.309  13.893  0.00  0.00    +0.249 C 
ATOM     14  C   UNL     1      -3.936 -11.391  12.920  0.00  0.00    +0.059 A 
ATOM     15  C   UNL     1      -2.713 -10.734  13.142  0.00  0.00    +0.046 A 
ATOM     16  C   UNL     1      -4.528 -11.335  11.645  0.00  0.00    +0.023 A 
ATOM     17  C   UNL     1      -2.082 -10.093  12.062  0.00  0.00    +0.024 A 
ATOM     19  C   UNL     1      -3.911 -10.652  10.599  0.00  0.00    -0.014 A 
ATOM     20  C   UNL     1      -2.681 -10.042  10.803  0.00  0.00    +0.010 A 
ATOM     28  H   UNL     1      -1.021 -10.471  14.305  0.00  0.00    +0.155 HD
ENDROOT
BRANCH  19  21
ATOM      1 CL   UNL     1      -4.365 -12.692   5.888  0.00  0.00    -0.084 Cl
ATOM     21  C   UNL     1      -4.539 -10.600   9.295  0.00  0.00    +0.025 A 
ATOM     22  C   UNL     1      -5.478  -9.613   8.991  0.00  0.00    +0.128 A 
ATOM     23  C   UNL     1      -4.194 -11.552   8.334  0.00  0.00    +0.032 A 
ATOM     24  C   UNL     1      -6.072  -9.579   7.730  0.00  0.00    +0.047 A 
ATOM     25  C   UNL     1      -4.789 -11.517   7.072  0.00  0.00    +0.042 A 
ATOM     26  C   UNL     1      -5.728 -10.530   6.770  0.00  0.00    +0.023 A 
BRANCH  22   5
ATOM      5  O   UNL     1      -5.834  -8.671   9.911  0.00  0.00    -0.495 OA
ATOM     27  C   UNL     1      -7.127  -8.796  10.498  0.00  0.00    +0.277 C 
ENDBRANCH  22   5
ENDBRANCH  19  21
BRANCH  10   2
ATOM      2  O   UNL     1      -5.562 -12.456  18.598  0.00  0.00    -0.378 OA
ATOM     18  C   UNL     1      -5.630 -11.369  19.516  0.00  0.00    +0.194 C 
ENDBRANCH  10   2
TORSDOF 3
ENDMDL
MODEL 5
REMARK VINA RESULT:      -6.5     27.616     29.749
REMARK  Name = 11941631
REMARK  5 active torsions:
REMARK  status: ('A' for Active; 'I' for Inactive)
REMARK    1  A    between atoms: O_2  and  C_10
REMARK    2  A    between atoms: O_2  and  C_18
REMARK    3  A    between atoms: O_5  and  C_22
REMARK    4  A    between atoms: O_5  and  C_27
REMARK    5  A    between atoms: C_19  and  C_21
REMARK                            x       y       z     vdW  Elec       q    Type
REMARK                         _______ _______ _______ _____ _____    ______ ____
ROOT
ATOM      3  O   UNL     1      -1.446 -11.088  15.211  0.00  0.00    -0.273 OA
ATOM      4  O   UNL     1      -5.897 -12.471  12.735  0.00  0.00    -0.270 OA
ATOM      6  N   UNL     1      -4.616 -11.589  14.429  0.00  0.00    -0.283 N 
ATOM      7  N   UNL     1      -2.185 -10.570  13.117  0.00  0.00    -0.283 N 
ATOM      8  C   UNL     1      -3.783 -10.544  14.986  0.00  0.00    +0.165 C 
ATOM      9  C   UNL     1      -3.928 -10.708  16.497  0.00  0.00    +0.065 C 
ATOM     10  C   UNL     1      -4.219 -12.197  16.671  0.00  0.00    +0.137 C 
ATOM     11  C   UNL     1      -5.070 -12.519  15.454  0.00  0.00    +0.140 C 
ATOM     12  C   UNL     1      -2.383 -10.797  14.463  0.00  0.00    +0.238 C 
ATOM     13  C   UNL     1      -5.066 -11.653  13.128  0.00  0.00    +0.249 C 
ATOM     14  C   UNL     1      -4.494 -10.697  12.144  0.00  0.00    +0.059 A 
ATOM     15  C   UNL     1      -3.146 -10.295  12.120  0.00  0.00    +0.046 A 
ATOM     16  C   UNL     1      -5.344 -10.327  11.086  0.00  0.00    +0.023 A 
ATOM     17  C   UNL     1      -2.671  -9.587  11.003  0.00  0.00    +0.024 A 
ATOM     19  C   UNL     1      -4.864  -9.583  10.010  0.00  0.00    -0.014 A 
ATOM     20  C   UNL     1      -3.524  -9.223   9.962  0.00  0.00    +0.010 A 
ATOM     28  H   UNL     1      -1.213 -10.512  12.824  0.00  0.00    +0.155 HD
ENDROOT
BRANCH  19  21
ATOM      1 CL   UNL     1      -8.580  -6.438   8.321  0.00  0.00    -0.084 Cl
ATOM     21  C   UNL     1      -5.756  -9.206   8.933  0.00  0.00    +0.025 A 
ATOM     22  C   UNL     1      -5.749  -9.897   7.721  0.00  0.00    +0.128 A 
ATOM     23  C   UNL     1      -6.633  -8.135   9.119  0.00  0.00    +0.032 A 
ATOM     24  C   UNL     1      -6.616  -9.520   6.696  0.00  0.00    +0.047 A 
ATOM     25  C   UNL     1      -7.501  -7.759   8.093  0.00  0.00    +0.042 A 
ATOM     26  C   UNL     1      -7.492  -8.450   6.881  0.00  0.00    +0.023 A 
BRANCH  22   5
ATOM      5  O   UNL     1      -4.902 -10.946   7.512  0.00  0.00    -0.495 OA
ATOM     27  C   UNL     1      -4.817 -11.454   6.182  0.00  0.00    +0.277 C 
ENDBRANCH  22   5
ENDBRANCH  19  21
BRANCH  10   2
ATOM      2  O   UNL     1      -4.927 -12.450  17.868  0.00  0.00    -0.378 OA
ATOM     18  C   UNL     1      -4.330 -11.797  18.984  0.00  0.00    +0.194 C 
ENDBRANCH  10   2
TORSDOF 3
ENDMDL
MODEL 6
REMARK VINA RESULT:      -6.5      3.235      7.884
REMARK  Name = 11941631
REMARK  5 active torsions:
REMARK  status: ('A' for Active; 'I' for Inactive)
REMARK    1  A    between atoms: O_2  and  C_10
REMARK    2  A    between atoms: O_2  and  C_18
REMARK    3  A    between atoms: O_5  and  C_22
REMARK    4  A    between atoms: O_5  and  C_27
REMARK    5  A    between atoms: C_19  and  C_21
REMARK                            x       y       z     vdW  Elec       q    Type
REMARK                         _______ _______ _______ _____ _____    ______ ____
ROOT
ATOM      3  O   UNL     1      13.239  10.622  20.392  0.00  0.00    -0.273 OA
ATOM      4  O   UNL     1      15.402   5.835  19.886  0.00  0.00    -0.270 OA
ATOM      6  N   UNL     1      14.366   7.763  19.181  0.00  0.00    -0.283 N 
ATOM      7  N   UNL     1      15.294   9.864  21.025  0.00  0.00    -0.283 N 
ATOM      8  C   UNL     1      14.386   9.172  18.846  0.00  0.00    +0.165 C 
ATOM      9  C   UNL     1      13.220   9.348  17.875  0.00  0.00    +0.065 C 
ATOM     10  C   UNL     1      12.241   8.250  18.287  0.00  0.00    +0.137 C 
ATOM     11  C   UNL     1      13.161   7.110  18.690  0.00  0.00    +0.140 C 
ATOM     12  C   UNL     1      14.224   9.919  20.156  0.00  0.00    +0.238 C 
ATOM     13  C   UNL     1      15.399   7.060  19.761  0.00  0.00    +0.249 C 
ATOM     14  C   UNL     1      16.558   7.827  20.287  0.00  0.00    +0.059 A 
ATOM     15  C   UNL     1      16.458   9.069  20.938  0.00  0.00    +0.046 A 
ATOM     16  C   UNL     1      17.795   7.158  20.263  0.00  0.00    +0.023 A 
ATOM     17  C   UNL     1      17.586   9.577  21.606  0.00  0.00    +0.024 A 
ATOM     19  C   UNL     1      18.915   7.701  20.890  0.00  0.00    -0.014 A 
ATOM     20  C   UNL     1      18.807   8.905  21.573  0.00  0.00    +0.010 A 
ATOM     28  H   UNL     1      15.277  10.546  21.779  0.00  0.00    +0.155 HD
ENDROOT
BRANCH  19  21
ATOM      1 CL   UNL     1      21.423   3.205  21.093  0.00  0.00    -0.084 Cl
ATOM     21  C   UNL     1      20.181   7.001  20.849  0.00  0.00    +0.025 A 
ATOM     22  C   UNL     1      21.381   7.697  20.687  0.00  0.00    +0.128 A 
ATOM     23  C   UNL     1      20.195   5.610  20.975  0.00  0.00    +0.032 A 
ATOM     24  C   UNL     1      22.591   7.004  20.651  0.00  0.00    +0.047 A 
ATOM     25  C   UNL     1      21.407   4.918  20.939  0.00  0.00    +0.042 A 
ATOM     26  C   UNL     1      22.604   5.615  20.777  0.00  0.00    +0.023 A 
BRANCH  22   5
ATOM      5  O   UNL     1      21.397   9.054  20.561  0.00  0.00    -0.495 OA
ATOM     27  C   UNL     1      22.473   9.623  19.818  0.00  0.00    +0.277 C 
ENDBRANCH  22   5
ENDBRANCH  19  21
BRANCH  10   2
ATOM      2  O   UNL     1      11.404   7.874  17.212  0.00  0.00    -0.378 OA
ATOM     18  C   UNL     1      11.133   8.969  16.343  0.00  0.00    +0.194 C 
ENDBRANCH  10   2
TORSDOF 3
ENDMDL
MODEL 7
REMARK VINA RESULT:      -6.5     28.301     31.596
REMARK  Name = 11941631
REMARK  5 active torsions:
REMARK  status: ('A' for Active; 'I' for Inactive)
REMARK    1  A    between atoms: O_2  and  C_10
REMARK    2  A    between atoms: O_2  and  C_18
REMARK    3  A    between atoms: O_5  and  C_22
REMARK    4  A    between atoms: O_5  and  C_27
REMARK    5  A    between atoms: C_19  and  C_21
REMARK                            x       y       z     vdW  Elec       q    Type
REMARK                         _______ _______ _______ _____ _____    ______ ____
ROOT
ATOM      3  O   UNL     1     -15.358   4.435  24.083  0.00  0.00    -0.273 OA
ATOM      4  O   UNL     1     -16.123   6.861  19.459  0.00  0.00    -0.270 OA
ATOM      6  N   UNL     1     -16.351   6.521  21.722  0.00  0.00    -0.283 N 
ATOM      7  N   UNL     1     -13.846   5.225  22.570  0.00  0.00    -0.283 N 
ATOM      8  C   UNL     1     -15.842   6.570  23.076  0.00  0.00    +0.165 C 
ATOM      9  C   UNL     1     -17.092   6.655  23.949  0.00  0.00    +0.065 C 
ATOM     10  C   UNL     1     -18.159   5.944  23.119  0.00  0.00    +0.137 C 
ATOM     11  C   UNL     1     -17.795   6.333  21.696  0.00  0.00    +0.140 C 
ATOM     12  C   UNL     1     -15.033   5.303  23.270  0.00  0.00    +0.238 C 
ATOM     13  C   UNL     1     -15.620   6.760  20.578  0.00  0.00    +0.249 C 
ATOM     14  C   UNL     1     -14.144   6.875  20.704  0.00  0.00    +0.059 A 
ATOM     15  C   UNL     1     -13.358   6.090  21.566  0.00  0.00    +0.046 A 
ATOM     16  C   UNL     1     -13.514   7.711  19.764  0.00  0.00    +0.023 A 
ATOM     17  C   UNL     1     -11.960   6.115  21.420  0.00  0.00    +0.024 A 
ATOM     19  C   UNL     1     -12.124   7.758  19.667  0.00  0.00    -0.014 A 
ATOM     20  C   UNL     1     -11.347   6.950  20.486  0.00  0.00    +0.010 A 
ATOM     28  H   UNL     1     -13.206   4.497  22.879  0.00  0.00    +0.155 HD
ENDROOT
BRANCH  19  21
ATOM      1 CL   UNL     1     -10.476   8.440  14.833  0.00  0.00    -0.084 Cl
ATOM     21  C   UNL     1     -11.494   8.629  18.698  0.00  0.00    +0.025 A 
ATOM     22  C   UNL     1     -11.071   9.911  19.055  0.00  0.00    +0.128 A 
ATOM     23  C   UNL     1     -11.309   8.175  17.391  0.00  0.00    +0.032 A 
ATOM     24  C   UNL     1     -10.465  10.735  18.108  0.00  0.00    +0.047 A 
ATOM     25  C   UNL     1     -10.702   9.000  16.444  0.00  0.00    +0.042 A 
ATOM     26  C   UNL     1     -10.280  10.281  16.802  0.00  0.00    +0.023 A 
BRANCH  22   5
ATOM      5  O   UNL     1     -11.239  10.382  20.324  0.00  0.00    -0.495 OA
ATOM     27  C   UNL     1     -12.254  11.363  20.521  0.00  0.00    +0.277 C 
ENDBRANCH  22   5
ENDBRANCH  19  21
BRANCH  10   2
ATOM      2  O   UNL     1     -19.457   6.391  23.452  0.00  0.00    -0.378 OA
ATOM     18  C   UNL     1     -19.423   7.498  24.348  0.00  0.00    +0.194 C 
ENDBRANCH  10   2
TORSDOF 3
ENDMDL
MODEL 8
REMARK VINA RESULT:      -6.4     15.894     19.372
REMARK  Name = 11941631
REMARK  5 active torsions:
REMARK  status: ('A' for Active; 'I' for Inactive)
REMARK    1  A    between atoms: O_2  and  C_10
REMARK    2  A    between atoms: O_2  and  C_18
REMARK    3  A    between atoms: O_5  and  C_22
REMARK    4  A    between atoms: O_5  and  C_27
REMARK    5  A    between atoms: C_19  and  C_21
REMARK                            x       y       z     vdW  Elec       q    Type
REMARK                         _______ _______ _______ _____ _____    ______ ____
ROOT
ATOM      3  O   UNL     1       9.976   9.353   8.229  0.00  0.00    -0.273 OA
ATOM      4  O   UNL     1       9.585   6.675   3.698  0.00  0.00    -0.270 OA
ATOM      6  N   UNL     1       9.323   7.051   5.952  0.00  0.00    -0.283 N 
ATOM      7  N   UNL     1       9.072   9.972   6.230  0.00  0.00    -0.283 N 
ATOM      8  C   UNL     1       8.666   7.696   7.069  0.00  0.00    +0.165 C 
ATOM      9  C   UNL     1       8.895   6.748   8.244  0.00  0.00    +0.065 C 
ATOM     10  C   UNL     1      10.210   6.054   7.894  0.00  0.00    +0.137 C 
ATOM     11  C   UNL     1      10.129   5.917   6.383  0.00  0.00    +0.140 C 
ATOM     12  C   UNL     1       9.329   9.051   7.224  0.00  0.00    +0.238 C 
ATOM     13  C   UNL     1       9.126   7.349   4.621  0.00  0.00    +0.249 C 
ATOM     14  C   UNL     1       8.340   8.565   4.286  0.00  0.00    +0.059 A 
ATOM     15  C   UNL     1       8.411   9.776   4.997  0.00  0.00    +0.046 A 
ATOM     16  C   UNL     1       7.622   8.514   3.078  0.00  0.00    +0.023 A 
ATOM     17  C   UNL     1       7.814  10.922   4.444  0.00  0.00    +0.024 A 
ATOM     19  C   UNL     1       6.996   9.651   2.570  0.00  0.00    -0.014 A 
ATOM     20  C   UNL     1       7.102  10.859   3.247  0.00  0.00    +0.010 A 
ATOM     28  H   UNL     1       9.319  10.933   6.453  0.00  0.00    +0.155 HD
ENDROOT
BRANCH  19  21
ATOM      1 CL   UNL     1       7.106   9.049  -2.547  0.00  0.00    -0.084 Cl
ATOM     21  C   UNL     1       6.256   9.578   1.328  0.00  0.00    +0.025 A 
ATOM     22  C   UNL     1       4.866   9.710   1.312  0.00  0.00    +0.128 A 
ATOM     23  C   UNL     1       6.948   9.374   0.133  0.00  0.00    +0.032 A 
ATOM     24  C   UNL     1       4.171   9.638   0.105  0.00  0.00    +0.047 A 
ATOM     25  C   UNL     1       6.252   9.302  -1.074  0.00  0.00    +0.042 A 
ATOM     26  C   UNL     1       4.863   9.434  -1.088  0.00  0.00    +0.023 A 
BRANCH  22   5
ATOM      5  O   UNL     1       4.164   9.910   2.464  0.00  0.00    -0.495 OA
ATOM     27  C   UNL     1       3.215  10.974   2.467  0.00  0.00    +0.277 C 
ENDBRANCH  22   5
ENDBRANCH  19  21
BRANCH  10   2
ATOM      2  O   UNL     1      10.308   4.788   8.516  0.00  0.00    -0.378 OA
ATOM     18  C   UNL     1       9.419   4.671   9.622  0.00  0.00    +0.194 C 
ENDBRANCH  10   2
TORSDOF 3
ENDMDL
MODEL 9
REMARK VINA RESULT:      -6.2     15.675     19.017
REMARK  Name = 11941631
REMARK  5 active torsions:
REMARK  status: ('A' for Active; 'I' for Inactive)
REMARK    1  A    between atoms: O_2  and  C_10
REMARK    2  A    between atoms: O_2  and  C_18
REMARK    3  A    between atoms: O_5  and  C_22
REMARK    4  A    between atoms: O_5  and  C_27
REMARK    5  A    between atoms: C_19  and  C_21
REMARK                            x       y       z     vdW  Elec       q    Type
REMARK                         _______ _______ _______ _____ _____    ______ ____
ROOT
ATOM      3  O   UNL     1      14.793   5.743  -0.276  0.00  0.00    -0.273 OA
ATOM      4  O   UNL     1       9.809   5.368   1.418  0.00  0.00    -0.270 OA
ATOM      6  N   UNL     1      11.827   4.602   0.624  0.00  0.00    -0.283 N 
ATOM      7  N   UNL     1      13.836   6.494   1.652  0.00  0.00    -0.283 N 
ATOM      8  C   UNL     1      13.224   4.268   0.805  0.00  0.00    +0.165 C 
ATOM      9  C   UNL     1      13.510   3.231  -0.279  0.00  0.00    +0.065 C 
ATOM     10  C   UNL     1      12.519   3.587  -1.386  0.00  0.00    +0.137 C 
ATOM     11  C   UNL     1      11.295   4.043  -0.611  0.00  0.00    +0.140 C 
ATOM     12  C   UNL     1      13.993   5.565   0.644  0.00  0.00    +0.238 C 
ATOM     13  C   UNL     1      11.027   5.242   1.546  0.00  0.00    +0.249 C 
ATOM     14  C   UNL     1      11.677   5.833   2.745  0.00  0.00    +0.059 A 
ATOM     15  C   UNL     1      12.927   6.476   2.733  0.00  0.00    +0.046 A 
ATOM     16  C   UNL     1      10.887   5.881   3.907  0.00  0.00    +0.023 A 
ATOM     17  C   UNL     1      13.324   7.207   3.866  0.00  0.00    +0.024 A 
ATOM     19  C   UNL     1      11.319   6.571   5.038  0.00  0.00    -0.014 A 
ATOM     20  C   UNL     1      12.532   7.246   5.013  0.00  0.00    +0.010 A 
ATOM     28  H   UNL     1      14.521   7.246   1.660  0.00  0.00    +0.155 HD
ENDROOT
BRANCH  19  21
ATOM      1 CL   UNL     1       9.420   4.037   9.103  0.00  0.00    -0.084 Cl
ATOM     21  C   UNL     1      10.495   6.605   6.228  0.00  0.00    +0.025 A 
ATOM     22  C   UNL     1       9.830   7.772   6.607  0.00  0.00    +0.128 A 
ATOM     23  C   UNL     1      10.367   5.449   7.000  0.00  0.00    +0.032 A 
ATOM     24  C   UNL     1       9.039   7.784   7.756  0.00  0.00    +0.047 A 
ATOM     25  C   UNL     1       9.575   5.461   8.150  0.00  0.00    +0.042 A 
ATOM     26  C   UNL     1       8.912   6.629   8.528  0.00  0.00    +0.023 A 
BRANCH  22   5
ATOM      5  O   UNL     1       9.937   8.915   5.872  0.00  0.00    -0.495 OA
ATOM     27  C   UNL     1       8.867   9.214   4.979  0.00  0.00    +0.277 C 
ENDBRANCH  22   5
ENDBRANCH  19  21
BRANCH  10   2
ATOM      2  O   UNL     1      12.222   2.466  -2.194  0.00  0.00    -0.378 OA
ATOM     18  C   UNL     1      10.930   2.567  -2.786  0.00  0.00    +0.194 C 
ENDBRANCH  10   2
TORSDOF 3
ENDMDL
MODEL 10
REMARK VINA RESULT:      -6.2     15.585     19.027
REMARK  Name = 11941631
REMARK  5 active torsions:
REMARK  status: ('A' for Active; 'I' for Inactive)
REMARK    1  A    between atoms: O_2  and  C_10
REMARK    2  A    between atoms: O_2  and  C_18
REMARK    3  A    between atoms: O_5  and  C_22
REMARK    4  A    between atoms: O_5  and  C_27
REMARK    5  A    between atoms: C_19  and  C_21
REMARK                            x       y       z     vdW  Elec       q    Type
REMARK                         _______ _______ _______ _____ _____    ______ ____
ROOT
ATOM      3  O   UNL     1      10.286   9.219   8.373  0.00  0.00    -0.273 OA
ATOM      4  O   UNL     1       9.141   6.726   3.864  0.00  0.00    -0.270 OA
ATOM      6  N   UNL     1       9.188   7.045   6.141  0.00  0.00    -0.283 N 
ATOM      7  N   UNL     1       9.192   9.966   6.518  0.00  0.00    -0.283 N 
ATOM      8  C   UNL     1       8.723   7.698   7.347  0.00  0.00    +0.165 C 
ATOM      9  C   UNL     1       9.024   6.698   8.461  0.00  0.00    +0.065 C 
ATOM     10  C   UNL     1      10.231   5.924   7.933  0.00  0.00    +0.137 C 
ATOM     11  C   UNL     1       9.954   5.843   6.441  0.00  0.00    +0.140 C 
ATOM     12  C   UNL     1       9.500   8.996   7.450  0.00  0.00    +0.238 C 
ATOM     13  C   UNL     1       8.851   7.400   4.853  0.00  0.00    +0.249 C 
ATOM     14  C   UNL     1       8.123   8.679   4.648  0.00  0.00    +0.059 A 
ATOM     15  C   UNL     1       8.371   9.858   5.374  0.00  0.00    +0.046 A 
ATOM     16  C   UNL     1       7.260   8.719   3.539  0.00  0.00    +0.023 A 
ATOM     17  C   UNL     1       7.797  11.061   4.927  0.00  0.00    +0.024 A 
ATOM     19  C   UNL     1       6.662   9.914   3.140  0.00  0.00    -0.014 A 
ATOM     20  C   UNL     1       6.941  11.088   3.827  0.00  0.00    +0.010 A 
ATOM     28  H   UNL     1       9.535  10.899   6.731  0.00  0.00    +0.155 HD
ENDROOT
BRANCH  19  21
ATOM      1 CL   UNL     1       1.885  10.631   1.346  0.00  0.00    -0.084 Cl
ATOM     21  C   UNL     1       5.771   9.935   1.999  0.00  0.00    +0.025 A 
ATOM     22  C   UNL     1       6.244   9.659   0.715  0.00  0.00    +0.128 A 
ATOM     23  C   UNL     1       4.422  10.235   2.194  0.00  0.00    +0.032 A 
ATOM     24  C   UNL     1       5.371   9.683  -0.371  0.00  0.00    +0.047 A 
ATOM     25  C   UNL     1       3.548  10.259   1.106  0.00  0.00    +0.042 A 
ATOM     26  C   UNL     1       4.022   9.983  -0.177  0.00  0.00    +0.023 A 
BRANCH  22   5
ATOM      5  O   UNL     1       7.557   9.363   0.496  0.00  0.00    -0.495 OA
ATOM     27  C   UNL     1       8.221  10.089  -0.536  0.00  0.00    +0.277 C 
ENDBRANCH  22   5
ENDBRANCH  19  21
BRANCH  10   2
ATOM      2  O   UNL     1      10.309   4.635   8.507  0.00  0.00    -0.378 OA
ATOM     18  C   UNL     1       9.357   4.460   9.551  0.00  0.00    +0.194 C 
ENDBRANCH  10   2
TORSDOF 3
ENDMDL
