REMARK  Name = 38027552
REMARK  12 active torsions:
REMARK  status: ('A' for Active; 'I' for Inactive)
REMARK    1  A    between atoms: N_4  and  C_14
REMARK    2  A    between atoms: N_5  and  C_21
REMARK    3  A    between atoms: C_7  and  C_11
REMARK    4  A    between atoms: C_8  and  C_14
REMARK    5  A    between atoms: C_10  and  C_15
REMARK    6  A    between atoms: C_11  and  C_16
REMARK    7  A    between atoms: C_11  and  C_17
REMARK    8  A    between atoms: C_12  and  C_18
REMARK    9  A    between atoms: C_15  and  C_19
REMARK   10  A    between atoms: C_20  and  C_22
REMARK   11  A    between atoms: C_21  and  C_23
REMARK   12  A    between atoms: C_30  and  C_34
REMARK                            x       y       z     vdW  Elec       q    Type
REMARK                         _______ _______ _______ _____ _____    ______ ____
ROOT
ATOM      7  C   UNL     1      -0.895   2.236  -0.788  0.00  0.00    +0.000 C 
ATOM      8  C   UNL     1       0.112   3.388  -1.032  0.00  0.00    +0.032 C 
ATOM      9  C   UNL     1      -1.744   2.521   0.460  0.00  0.00    +0.012 C 
ATOM     10  C   UNL     1      -0.882   2.692   1.725  0.00  0.00    +0.023 C 
ATOM     12  C   UNL     1       0.296   3.614   1.483  0.00  0.00    -0.073 C 
ATOM     13  C   UNL     1       0.717   3.924   0.244  0.00  0.00    -0.022 C 
ATOM     18  C   UNL     1       0.952   4.208   2.699  0.00  0.00    +0.039 C 
ENDROOT
BRANCH   7  11
ATOM     11  C   UNL     1      -1.808   2.013  -1.997  0.00  0.00    -0.013 C 
ATOM     16  C   UNL     1      -2.339   0.583  -2.006  0.00  0.00    +0.007 C 
ATOM     17  C   UNL     1      -2.957   3.016  -1.988  0.00  0.00    +0.007 C 
ENDBRANCH   7  11
BRANCH   8  14
ATOM     14  C   UNL     1       1.231   2.952  -1.984  0.00  0.00    +0.112 C 
BRANCH  14   4
ATOM      3  O   UNL     1       1.651   0.295  -2.987  0.00  0.00    -0.270 OA
ATOM      4  N   UNL     1       2.036   1.933  -1.389  0.00  0.00    -0.311 N 
ATOM     20  C   UNL     1       2.187   0.663  -1.945  0.00  0.00    +0.244 C 
ATOM     35  H   UNL     1       2.503   2.164  -0.519  0.00  0.00    +0.149 HD
BRANCH  20  22
ATOM     22  C   UNL     1       3.037  -0.292  -1.189  0.00  0.00    +0.037 A 
ATOM     24  C   UNL     1       2.821  -1.665  -1.309  0.00  0.00    +0.014 A 
ATOM     25  C   UNL     1       4.053   0.184  -0.361  0.00  0.00    +0.014 A 
ATOM     28  C   UNL     1       3.621  -2.562  -0.601  0.00  0.00    +0.019 A 
ATOM     29  C   UNL     1       4.853  -0.713   0.348  0.00  0.00    +0.019 A 
ATOM     30  C   UNL     1       4.637  -2.086   0.228  0.00  0.00    +0.052 A 
BRANCH  30  34
ATOM      6  N   UNL     1       6.121  -3.750   1.544  0.00  0.00    -0.191 NA
ATOM     34  C   UNL     1       5.456  -3.004   0.954  0.00  0.00    +0.099 C 
ENDBRANCH  30  34
ENDBRANCH  20  22
ENDBRANCH  14   4
ENDBRANCH   8  14
BRANCH  10  15
ATOM     15  C   UNL     1      -0.415   1.335   2.263  0.00  0.00    +0.103 C 
BRANCH  15  19
ATOM      2  O   UNL     1      -2.699   0.754   2.810  0.00  0.00    -0.276 OA
ATOM      5  N   UNL     1      -1.179  -0.930   2.306  0.00  0.00    -0.311 N 
ATOM     19  C   UNL     1      -1.571   0.388   2.495  0.00  0.00    +0.214 C 
ATOM     36  H   UNL     1      -0.221  -1.135   2.038  0.00  0.00    +0.149 HD
BRANCH   5  21
ATOM     21  C   UNL     1      -2.078  -2.050   2.463  0.00  0.00    +0.139 C 
BRANCH  21  23
ATOM      1  F   UNL     1      -4.688  -3.346  -2.355  0.00  0.00    -0.205 F 
ATOM     23  C   UNL     1      -2.774  -2.396   1.178  0.00  0.00    -0.030 A 
ATOM     26  C   UNL     1      -3.994  -1.797   0.863  0.00  0.00    +0.008 A 
ATOM     27  C   UNL     1      -2.201  -3.315   0.300  0.00  0.00    +0.008 A 
ATOM     31  C   UNL     1      -4.641  -2.118  -0.330  0.00  0.00    +0.038 A 
ATOM     32  C   UNL     1      -2.848  -3.636  -0.894  0.00  0.00    +0.038 A 
ATOM     33  C   UNL     1      -4.068  -3.038  -1.209  0.00  0.00    +0.123 A 
ENDBRANCH  21  23
ENDBRANCH   5  21
ENDBRANCH  15  19
ENDBRANCH  10  15
TORSDOF 9
