MODEL 1
REMARK VINA RESULT:      -7.1      0.000      0.000
REMARK  Name = 45361153
REMARK  7 active torsions:
REMARK  status: ('A' for Active; 'I' for Inactive)
REMARK    1  A    between atoms: N_4  and  C_20
REMARK    2  A    between atoms: N_5  and  C_19
REMARK    3  A    between atoms: N_8  and  C_29
REMARK    4  A    between atoms: C_14  and  C_18
REMARK    5  A    between atoms: C_18  and  C_21
REMARK    6  A    between atoms: C_19  and  C_22
REMARK    7  A    between atoms: C_21  and  C_23
REMARK                            x       y       z     vdW  Elec       q    Type
REMARK                         _______ _______ _______ _____ _____    ______ ____
ROOT
ATOM      2  O   UNL     1      14.412  10.179  22.317  0.00  0.00    -0.274 OA
ATOM      4  N   UNL     1      14.608   7.626  19.412  0.00  0.00    -0.296 NA
ATOM      5  N   UNL     1      12.031   9.279  21.417  0.00  0.00    -0.284 NA
ATOM      6  N   UNL     1      15.480   8.165  22.108  0.00  0.00    -0.312 N 
ATOM     11  C   UNL     1      13.259   7.726  20.012  0.00  0.00    +0.084 C 
ATOM     12  C   UNL     1      13.130   8.297  21.455  0.00  0.00    +0.161 C 
ATOM     13  C   UNL     1      12.289   8.625  19.224  0.00  0.00    +0.036 C 
ATOM     14  C   UNL     1      15.529   6.692  20.117  0.00  0.00    +0.074 C 
ATOM     15  C   UNL     1      11.221   8.971  20.242  0.00  0.00    +0.087 C 
ATOM     16  C   UNL     1      15.497   6.788  21.655  0.00  0.00    +0.123 C 
ATOM     17  C   UNL     1      14.380   8.993  21.988  0.00  0.00    +0.232 C 
ATOM     20  C   UNL     1      14.519   7.275  17.984  0.00  0.00    +0.105 C 
ATOM     30  H   UNL     1      16.320   8.547  22.530  0.00  0.00    +0.149 HD
ENDROOT
BRANCH  14  18
ATOM     18  C   UNL     1      16.986   6.930  19.667  0.00  0.00    +0.029 C 
BRANCH  18  21
ATOM     21  C   UNL     1      17.947   5.955  20.319  0.00  0.00    +0.097 C 
BRANCH  21  23
ATOM      3  O   UNL     1      18.709   7.735  21.686  0.00  0.00    -0.276 OA
ATOM      7  N   UNL     1      20.264   6.090  21.162  0.00  0.00    -0.299 N 
ATOM      8  N   UNL     1      22.585   4.598  21.935  0.00  0.00    -0.302 NA
ATOM     23  C   UNL     1      19.002   6.680  21.117  0.00  0.00    +0.216 C 
ATOM     24  C   UNL     1      21.340   6.729  21.919  0.00  0.00    +0.123 C 
ATOM     25  C   UNL     1      20.679   4.914  20.392  0.00  0.00    +0.123 C 
ATOM     26  C   UNL     1      22.102   5.711  22.766  0.00  0.00    +0.103 C 
ATOM     27  C   UNL     1      21.459   3.930  21.266  0.00  0.00    +0.103 C 
ATOM     29  C   UNL     1      23.342   3.645  22.744  0.00  0.00    +0.105 C 
ENDBRANCH  21  23
ENDBRANCH  18  21
ENDBRANCH  14  18
BRANCH   5  19
ATOM     19  C   UNL     1      11.236   9.304  22.638  0.00  0.00    +0.143 C 
BRANCH  19  22
ATOM      1  S   UNL     1      10.819  13.172  23.461  0.00  0.00    +0.028 S 
ATOM      9  N   UNL     1      10.692  10.887  24.478  0.00  0.00    -0.145 NA
ATOM     10  N   UNL     1      10.548  12.168  24.774  0.00  0.00    -0.110 NA
ATOM     22  C   UNL     1      11.032  10.708  23.146  0.00  0.00    +0.086 A 
ATOM     28  C   UNL     1      11.154  11.865  22.403  0.00  0.00    +0.093 A 
ENDBRANCH  19  22
ENDBRANCH   5  19
TORSDOF 5
ENDMDL
MODEL 2
REMARK VINA RESULT:      -6.7      4.235      9.640
REMARK  Name = 45361153
REMARK  7 active torsions:
REMARK  status: ('A' for Active; 'I' for Inactive)
REMARK    1  A    between atoms: N_4  and  C_20
REMARK    2  A    between atoms: N_5  and  C_19
REMARK    3  A    between atoms: N_8  and  C_29
REMARK    4  A    between atoms: C_14  and  C_18
REMARK    5  A    between atoms: C_18  and  C_21
REMARK    6  A    between atoms: C_19  and  C_22
REMARK    7  A    between atoms: C_21  and  C_23
REMARK                            x       y       z     vdW  Elec       q    Type
REMARK                         _______ _______ _______ _____ _____    ______ ____
ROOT
ATOM      2  O   UNL     1      20.077   6.323  23.925  0.00  0.00    -0.274 OA
ATOM      4  N   UNL     1      18.010   6.795  20.685  0.00  0.00    -0.296 NA
ATOM      5  N   UNL     1      21.224   5.356  21.680  0.00  0.00    -0.284 NA
ATOM      6  N   UNL     1      19.199   8.181  22.918  0.00  0.00    -0.312 N 
ATOM     11  C   UNL     1      19.403   6.366  20.432  0.00  0.00    +0.084 C 
ATOM     12  C   UNL     1      20.469   6.615  21.540  0.00  0.00    +0.161 C 
ATOM     13  C   UNL     1      19.555   4.855  20.175  0.00  0.00    +0.036 C 
ATOM     14  C   UNL     1      17.838   8.265  20.849  0.00  0.00    +0.074 C 
ATOM     15  C   UNL     1      21.022   4.595  20.451  0.00  0.00    +0.087 C 
ATOM     16  C   UNL     1      18.908   8.949  21.723  0.00  0.00    +0.123 C 
ATOM     17  C   UNL     1      19.903   6.992  22.907  0.00  0.00    +0.232 C 
ATOM     20  C   UNL     1      17.109   6.290  19.635  0.00  0.00    +0.105 C 
ATOM     30  H   UNL     1      18.863   8.528  23.810  0.00  0.00    +0.149 HD
ENDROOT
BRANCH  14  18
ATOM     18  C   UNL     1      16.461   8.581  21.470  0.00  0.00    +0.029 C 
BRANCH  18  21
ATOM     21  C   UNL     1      15.536   9.263  20.482  0.00  0.00    +0.097 C 
BRANCH  21  23
ATOM      3  O   UNL     1      13.667   8.110  21.373  0.00  0.00    -0.276 OA
ATOM      7  N   UNL     1      13.733   8.349  19.063  0.00  0.00    -0.299 N 
ATOM      8  N   UNL     1      12.292   8.633  16.602  0.00  0.00    -0.302 NA
ATOM     23  C   UNL     1      14.229   8.520  20.355  0.00  0.00    +0.216 C 
ATOM     24  C   UNL     1      12.469   7.643  18.856  0.00  0.00    +0.123 C 
ATOM     25  C   UNL     1      14.439   8.706  17.829  0.00  0.00    +0.123 C 
ATOM     26  C   UNL     1      11.577   8.384  17.862  0.00  0.00    +0.103 C 
ATOM     27  C   UNL     1      13.508   9.423  16.850  0.00  0.00    +0.103 C 
ATOM     29  C   UNL     1      11.424   9.311  15.643  0.00  0.00    +0.105 C 
ENDBRANCH  21  23
ENDBRANCH  18  21
ENDBRANCH  14  18
BRANCH   5  19
ATOM     19  C   UNL     1      22.638   5.560  21.971  0.00  0.00    +0.143 C 
BRANCH  19  22
ATOM      1  S   UNL     1      24.453   3.235  24.637  0.00  0.00    +0.028 S 
ATOM      9  N   UNL     1      22.199   3.918  23.785  0.00  0.00    -0.145 NA
ATOM     10  N   UNL     1      22.781   3.136  24.680  0.00  0.00    -0.110 NA
ATOM     22  C   UNL     1      23.132   4.620  23.039  0.00  0.00    +0.086 A 
ATOM     28  C   UNL     1      24.453   4.379  23.360  0.00  0.00    +0.093 A 
ENDBRANCH  19  22
ENDBRANCH   5  19
TORSDOF 5
ENDMDL
MODEL 3
REMARK VINA RESULT:      -6.5      2.939      4.049
REMARK  Name = 45361153
REMARK  7 active torsions:
REMARK  status: ('A' for Active; 'I' for Inactive)
REMARK    1  A    between atoms: N_4  and  C_20
REMARK    2  A    between atoms: N_5  and  C_19
REMARK    3  A    between atoms: N_8  and  C_29
REMARK    4  A    between atoms: C_14  and  C_18
REMARK    5  A    between atoms: C_18  and  C_21
REMARK    6  A    between atoms: C_19  and  C_22
REMARK    7  A    between atoms: C_21  and  C_23
REMARK                            x       y       z     vdW  Elec       q    Type
REMARK                         _______ _______ _______ _____ _____    ______ ____
ROOT
ATOM      2  O   UNL     1      13.137   6.610  20.879  0.00  0.00    -0.274 OA
ATOM      4  N   UNL     1      16.575   8.388  20.990  0.00  0.00    -0.296 NA
ATOM      5  N   UNL     1      13.134   9.169  20.019  0.00  0.00    -0.284 NA
ATOM      6  N   UNL     1      15.167   6.090  19.959  0.00  0.00    -0.312 N 
ATOM     11  C   UNL     1      15.552   9.140  20.229  0.00  0.00    +0.084 C 
ATOM     12  C   UNL     1      14.321   8.364  19.676  0.00  0.00    +0.161 C 
ATOM     13  C   UNL     1      14.884  10.272  21.030  0.00  0.00    +0.036 C 
ATOM     14  C   UNL     1      17.289   7.346  20.201  0.00  0.00    +0.074 C 
ATOM     15  C   UNL     1      13.598  10.530  20.273  0.00  0.00    +0.087 C 
ATOM     16  C   UNL     1      16.386   6.493  19.287  0.00  0.00    +0.123 C 
ATOM     17  C   UNL     1      14.132   6.961  20.246  0.00  0.00    +0.232 C 
ATOM     20  C   UNL     1      17.541   9.307  21.616  0.00  0.00    +0.105 C 
ATOM     30  H   UNL     1      15.067   5.121  20.242  0.00  0.00    +0.149 HD
ENDROOT
BRANCH  14  18
ATOM     18  C   UNL     1      18.044   6.381  21.139  0.00  0.00    +0.029 C 
BRANCH  18  21
ATOM     21  C   UNL     1      19.214   5.713  20.445  0.00  0.00    +0.097 C 
BRANCH  21  23
ATOM      3  O   UNL     1      20.616   7.577  20.861  0.00  0.00    -0.276 OA
ATOM      7  N   UNL     1      21.559   5.478  21.183  0.00  0.00    -0.299 N 
ATOM      8  N   UNL     1      23.433   3.843  22.605  0.00  0.00    -0.302 NA
ATOM     23  C   UNL     1      20.522   6.348  20.845  0.00  0.00    +0.216 C 
ATOM     24  C   UNL     1      22.857   6.016  21.587  0.00  0.00    +0.123 C 
ATOM     25  C   UNL     1      21.520   4.019  21.047  0.00  0.00    +0.123 C 
ATOM     26  C   UNL     1      23.394   5.296  22.823  0.00  0.00    +0.103 C 
ATOM     27  C   UNL     1      22.088   3.335  22.292  0.00  0.00    +0.103 C 
ATOM     29  C   UNL     1      23.979   3.162  23.777  0.00  0.00    +0.105 C 
ENDBRANCH  21  23
ENDBRANCH  18  21
ENDBRANCH  14  18
BRANCH   5  19
ATOM     19  C   UNL     1      12.093   9.127  19.000  0.00  0.00    +0.143 C 
BRANCH  19  22
ATOM      1  S   UNL     1      13.718  10.221  15.539  0.00  0.00    +0.028 S 
ATOM      9  N   UNL     1      12.528   8.336  16.683  0.00  0.00    -0.145 NA
ATOM     10  N   UNL     1      13.062   8.679  15.522  0.00  0.00    -0.110 NA
ATOM     22  C   UNL     1      12.651   9.351  17.619  0.00  0.00    +0.086 A 
ATOM     28  C   UNL     1      13.288  10.493  17.177  0.00  0.00    +0.093 A 
ENDBRANCH  19  22
ENDBRANCH   5  19
TORSDOF 5
ENDMDL
MODEL 4
REMARK VINA RESULT:      -6.4      3.821      9.544
REMARK  Name = 45361153
REMARK  7 active torsions:
REMARK  status: ('A' for Active; 'I' for Inactive)
REMARK    1  A    between atoms: N_4  and  C_20
REMARK    2  A    between atoms: N_5  and  C_19
REMARK    3  A    between atoms: N_8  and  C_29
REMARK    4  A    between atoms: C_14  and  C_18
REMARK    5  A    between atoms: C_18  and  C_21
REMARK    6  A    between atoms: C_19  and  C_22
REMARK    7  A    between atoms: C_21  and  C_23
REMARK                            x       y       z     vdW  Elec       q    Type
REMARK                         _______ _______ _______ _____ _____    ______ ____
ROOT
ATOM      2  O   UNL     1      19.992   6.524  23.857  0.00  0.00    -0.274 OA
ATOM      4  N   UNL     1      17.857   7.134  20.685  0.00  0.00    -0.296 NA
ATOM      5  N   UNL     1      20.992   5.472  21.581  0.00  0.00    -0.284 NA
ATOM      6  N   UNL     1      19.215   8.438  22.870  0.00  0.00    -0.312 N 
ATOM     11  C   UNL     1      19.207   6.606  20.388  0.00  0.00    +0.084 C 
ATOM     12  C   UNL     1      20.324   6.781  21.459  0.00  0.00    +0.161 C 
ATOM     13  C   UNL     1      19.242   5.087  20.134  0.00  0.00    +0.036 C 
ATOM     14  C   UNL     1      17.796   8.613  20.848  0.00  0.00    +0.074 C 
ATOM     15  C   UNL     1      20.695   4.724  20.363  0.00  0.00    +0.087 C 
ATOM     16  C   UNL     1      18.940   9.221  21.682  0.00  0.00    +0.123 C 
ATOM     17  C   UNL     1      19.832   7.201  22.842  0.00  0.00    +0.232 C 
ATOM     20  C   UNL     1      16.887   6.692  19.668  0.00  0.00    +0.105 C 
ATOM     30  H   UNL     1      18.936   8.810  23.772  0.00  0.00    +0.149 HD
ENDROOT
BRANCH  14  18
ATOM     18  C   UNL     1      16.466   9.028  21.512  0.00  0.00    +0.029 C 
BRANCH  18  21
ATOM     21  C   UNL     1      15.850  10.240  20.842  0.00  0.00    +0.097 C 
BRANCH  21  23
ATOM      3  O   UNL     1      15.091   9.703  18.662  0.00  0.00    -0.276 OA
ATOM      7  N   UNL     1      13.507   9.629  20.360  0.00  0.00    -0.299 N 
ATOM      8  N   UNL     1      11.111   8.455  21.405  0.00  0.00    -0.302 NA
ATOM     23  C   UNL     1      14.788   9.835  19.851  0.00  0.00    +0.216 C 
ATOM     24  C   UNL     1      12.422   9.230  19.463  0.00  0.00    +0.123 C 
ATOM     25  C   UNL     1      13.087   9.905  21.737  0.00  0.00    +0.123 C 
ATOM     26  C   UNL     1      11.596   8.095  20.065  0.00  0.00    +0.103 C 
ATOM     27  C   UNL     1      12.242   8.759  22.295  0.00  0.00    +0.103 C 
ATOM     29  C   UNL     1      10.293   7.380  21.962  0.00  0.00    +0.105 C 
ENDBRANCH  21  23
ENDBRANCH  18  21
ENDBRANCH  14  18
BRANCH   5  19
ATOM     19  C   UNL     1      22.425   5.575  21.824  0.00  0.00    +0.143 C 
BRANCH  19  22
ATOM      1  S   UNL     1      24.217   2.601  23.761  0.00  0.00    +0.028 S 
ATOM      9  N   UNL     1      22.129   3.984  23.711  0.00  0.00    -0.145 NA
ATOM     10  N   UNL     1      22.706   2.993  24.371  0.00  0.00    -0.110 NA
ATOM     22  C   UNL     1      22.932   4.444  22.680  0.00  0.00    +0.086 A 
ATOM     28  C   UNL     1      24.145   3.801  22.538  0.00  0.00    +0.093 A 
ENDBRANCH  19  22
ENDBRANCH   5  19
TORSDOF 5
ENDMDL
MODEL 5
REMARK VINA RESULT:      -6.3     27.574     29.798
REMARK  Name = 45361153
REMARK  7 active torsions:
REMARK  status: ('A' for Active; 'I' for Inactive)
REMARK    1  A    between atoms: N_4  and  C_20
REMARK    2  A    between atoms: N_5  and  C_19
REMARK    3  A    between atoms: N_8  and  C_29
REMARK    4  A    between atoms: C_14  and  C_18
REMARK    5  A    between atoms: C_18  and  C_21
REMARK    6  A    between atoms: C_19  and  C_22
REMARK    7  A    between atoms: C_21  and  C_23
REMARK                            x       y       z     vdW  Elec       q    Type
REMARK                         _______ _______ _______ _____ _____    ______ ____
ROOT
ATOM      2  O   UNL     1      -6.447  -9.511  16.374  0.00  0.00    -0.274 OA
ATOM      4  N   UNL     1      -4.296 -12.474  15.114  0.00  0.00    -0.296 NA
ATOM      5  N   UNL     1      -6.924 -11.875  17.589  0.00  0.00    -0.284 NA
ATOM      6  N   UNL     1      -4.183  -9.815  16.226  0.00  0.00    -0.312 N 
ATOM     11  C   UNL     1      -5.035 -12.777  16.359  0.00  0.00    +0.084 C 
ATOM     12  C   UNL     1      -5.520 -11.589  17.242  0.00  0.00    +0.161 C 
ATOM     13  C   UNL     1      -6.340 -13.563  16.137  0.00  0.00    +0.036 C 
ATOM     14  C   UNL     1      -2.990 -11.789  15.323  0.00  0.00    +0.074 C 
ATOM     15  C   UNL     1      -7.128 -13.309  17.405  0.00  0.00    +0.087 C 
ATOM     16  C   UNL     1      -3.013 -10.657  16.369  0.00  0.00    +0.123 C 
ATOM     17  C   UNL     1      -5.460 -10.219  16.570  0.00  0.00    +0.232 C 
ATOM     20  C   UNL     1      -4.110 -13.693  14.307  0.00  0.00    +0.105 C 
ATOM     30  H   UNL     1      -4.066  -8.881  15.847  0.00  0.00    +0.149 HD
ENDROOT
BRANCH  14  18
ATOM     18  C   UNL     1      -2.479 -11.186  13.997  0.00  0.00    +0.029 C 
BRANCH  18  21
ATOM     21  C   UNL     1      -3.601 -10.578  13.180  0.00  0.00    +0.097 C 
BRANCH  21  23
ATOM      3  O   UNL     1      -1.948 -10.380  11.495  0.00  0.00    -0.276 OA
ATOM      7  N   UNL     1      -4.044  -9.510  10.998  0.00  0.00    -0.299 N 
ATOM      8  N   UNL     1      -6.029  -8.921   9.018  0.00  0.00    -0.302 NA
ATOM     23  C   UNL     1      -3.115 -10.150  11.818  0.00  0.00    +0.216 C 
ATOM     24  C   UNL     1      -3.651  -9.067   9.661  0.00  0.00    +0.123 C 
ATOM     25  C   UNL     1      -5.393  -9.104  11.401  0.00  0.00    +0.123 C 
ATOM     26  C   UNL     1      -4.709  -9.435   8.623  0.00  0.00    +0.103 C 
ATOM     27  C   UNL     1      -6.421  -9.465  10.327  0.00  0.00    +0.103 C 
ATOM     29  C   UNL     1      -7.031  -9.245   8.005  0.00  0.00    +0.105 C 
ENDBRANCH  21  23
ENDBRANCH  18  21
ENDBRANCH  14  18
BRANCH   5  19
ATOM     19  C   UNL     1      -7.288 -11.438  18.931  0.00  0.00    +0.143 C 
BRANCH  19  22
ATOM      1  S   UNL     1     -10.897  -9.823  18.514  0.00  0.00    +0.028 S 
ATOM      9  N   UNL     1      -9.370 -10.903  20.180  0.00  0.00    -0.145 NA
ATOM     10  N   UNL     1     -10.575 -10.370  20.065  0.00  0.00    -0.110 NA
ATOM     22  C   UNL     1      -8.682 -10.870  18.978  0.00  0.00    +0.086 A 
ATOM     28  C   UNL     1      -9.363 -10.304  17.919  0.00  0.00    +0.093 A 
ENDBRANCH  19  22
ENDBRANCH   5  19
TORSDOF 5
ENDMDL
MODEL 6
REMARK VINA RESULT:      -6.3     18.170     21.726
REMARK  Name = 45361153
REMARK  7 active torsions:
REMARK  status: ('A' for Active; 'I' for Inactive)
REMARK    1  A    between atoms: N_4  and  C_20
REMARK    2  A    between atoms: N_5  and  C_19
REMARK    3  A    between atoms: N_8  and  C_29
REMARK    4  A    between atoms: C_14  and  C_18
REMARK    5  A    between atoms: C_18  and  C_21
REMARK    6  A    between atoms: C_19  and  C_22
REMARK    7  A    between atoms: C_21  and  C_23
REMARK                            x       y       z     vdW  Elec       q    Type
REMARK                         _______ _______ _______ _____ _____    ______ ____
ROOT
ATOM      2  O   UNL     1       9.975   4.721  -0.936  0.00  0.00    -0.274 OA
ATOM      4  N   UNL     1      12.635   6.115   1.509  0.00  0.00    -0.296 NA
ATOM      5  N   UNL     1      12.486   3.808  -1.329  0.00  0.00    -0.284 NA
ATOM      6  N   UNL     1      10.115   4.719   1.349  0.00  0.00    -0.312 N 
ATOM     11  C   UNL     1      13.122   4.972   0.705  0.00  0.00    +0.084 C 
ATOM     12  C   UNL     1      12.073   4.009   0.073  0.00  0.00    +0.161 C 
ATOM     13  C   UNL     1      13.960   5.381  -0.520  0.00  0.00    +0.036 C 
ATOM     14  C   UNL     1      11.896   5.729   2.744  0.00  0.00    +0.074 C 
ATOM     15  C   UNL     1      13.900   4.160  -1.414  0.00  0.00    +0.087 C 
ATOM     16  C   UNL     1      10.892   4.574   2.564  0.00  0.00    +0.123 C 
ATOM     17  C   UNL     1      10.636   4.524   0.083  0.00  0.00    +0.232 C 
ATOM     20  C   UNL     1      13.741   7.029   1.841  0.00  0.00    +0.105 C 
ATOM     30  H   UNL     1       9.139   4.985   1.426  0.00  0.00    +0.149 HD
ENDROOT
BRANCH  14  18
ATOM     18  C   UNL     1      11.117   6.938   3.305  0.00  0.00    +0.029 C 
BRANCH  18  21
ATOM     21  C   UNL     1       9.842   6.515   4.007  0.00  0.00    +0.097 C 
BRANCH  21  23
ATOM      3  O   UNL     1       9.129   8.501   5.085  0.00  0.00    -0.276 OA
ATOM      7  N   UNL     1       9.878   6.785   6.461  0.00  0.00    -0.299 N 
ATOM      8  N   UNL     1       9.713   5.441   8.986  0.00  0.00    -0.302 NA
ATOM     23  C   UNL     1       9.583   7.362   5.227  0.00  0.00    +0.216 C 
ATOM     24  C   UNL     1       9.650   7.541   7.692  0.00  0.00    +0.123 C 
ATOM     25  C   UNL     1      10.539   5.492   6.656  0.00  0.00    +0.123 C 
ATOM     26  C   UNL     1       8.961   6.682   8.750  0.00  0.00    +0.103 C 
ATOM     27  C   UNL     1       9.837   4.671   7.739  0.00  0.00    +0.103 C 
ATOM     29  C   UNL     1       9.068   4.639  10.024  0.00  0.00    +0.105 C 
ENDBRANCH  21  23
ENDBRANCH  18  21
ENDBRANCH  14  18
BRANCH   5  19
ATOM     19  C   UNL     1      12.226   2.461  -1.819  0.00  0.00    +0.143 C 
BRANCH  19  22
ATOM      1  S   UNL     1       9.713   2.774  -4.885  0.00  0.00    +0.028 S 
ATOM      9  N   UNL     1      10.025   1.667  -2.659  0.00  0.00    -0.145 NA
ATOM     10  N   UNL     1       9.173   1.756  -3.668  0.00  0.00    -0.110 NA
ATOM     22  C   UNL     1      11.151   2.446  -2.874  0.00  0.00    +0.086 A 
ATOM     28  C   UNL     1      11.171   3.146  -4.063  0.00  0.00    +0.093 A 
ENDBRANCH  19  22
ENDBRANCH   5  19
TORSDOF 5
ENDMDL
MODEL 7
REMARK VINA RESULT:      -6.3     27.417     30.236
REMARK  Name = 45361153
REMARK  7 active torsions:
REMARK  status: ('A' for Active; 'I' for Inactive)
REMARK    1  A    between atoms: N_4  and  C_20
REMARK    2  A    between atoms: N_5  and  C_19
REMARK    3  A    between atoms: N_8  and  C_29
REMARK    4  A    between atoms: C_14  and  C_18
REMARK    5  A    between atoms: C_18  and  C_21
REMARK    6  A    between atoms: C_19  and  C_22
REMARK    7  A    between atoms: C_21  and  C_23
REMARK                            x       y       z     vdW  Elec       q    Type
REMARK                         _______ _______ _______ _____ _____    ______ ____
ROOT
ATOM      2  O   UNL     1      -1.175 -10.738  15.464  0.00  0.00    -0.274 OA
ATOM      4  N   UNL     1      -4.320 -12.802  16.387  0.00  0.00    -0.296 NA
ATOM      5  N   UNL     1      -2.167 -12.271  13.475  0.00  0.00    -0.284 NA
ATOM      6  N   UNL     1      -3.222 -10.135  16.293  0.00  0.00    -0.312 N 
ATOM     11  C   UNL     1      -4.039 -12.782  14.934  0.00  0.00    +0.084 C 
ATOM     12  C   UNL     1      -3.155 -11.633  14.365  0.00  0.00    +0.161 C 
ATOM     13  C   UNL     1      -3.304 -14.035  14.421  0.00  0.00    +0.036 C 
ATOM     14  C   UNL     1      -5.104 -11.636  16.879  0.00  0.00    +0.074 C 
ATOM     15  C   UNL     1      -2.701 -13.579  13.109  0.00  0.00    +0.087 C 
ATOM     16  C   UNL     1      -4.665 -10.272  16.310  0.00  0.00    +0.123 C 
ATOM     17  C   UNL     1      -2.402 -10.818  15.414  0.00  0.00    +0.232 C 
ATOM     20  C   UNL     1      -4.978 -14.061  16.774  0.00  0.00    +0.105 C 
ATOM     30  H   UNL     1      -2.786  -9.513  16.966  0.00  0.00    +0.149 HD
ENDROOT
BRANCH  14  18
ATOM     18  C   UNL     1      -5.026 -11.544  18.418  0.00  0.00    +0.029 C 
BRANCH  18  21
ATOM     21  C   UNL     1      -5.930 -10.459  18.968  0.00  0.00    +0.097 C 
BRANCH  21  23
ATOM      3  O   UNL     1      -7.525 -11.779  20.122  0.00  0.00    -0.276 OA
ATOM      7  N   UNL     1      -8.321 -10.505  18.349  0.00  0.00    -0.299 N 
ATOM      8  N   UNL     1     -10.487  -9.032  17.189  0.00  0.00    -0.302 NA
ATOM     23  C   UNL     1      -7.326 -10.979  19.204  0.00  0.00    +0.216 C 
ATOM     24  C   UNL     1      -9.701 -10.958  18.516  0.00  0.00    +0.123 C 
ATOM     25  C   UNL     1      -8.095  -9.662  17.172  0.00  0.00    +0.123 C 
ATOM     26  C   UNL     1     -10.681  -9.790  18.433  0.00  0.00    +0.103 C 
ATOM     27  C   UNL     1      -9.110  -8.519  17.110  0.00  0.00    +0.103 C 
ATOM     29  C   UNL     1     -11.450  -7.936  17.098  0.00  0.00    +0.105 C 
ENDBRANCH  21  23
ENDBRANCH  18  21
ENDBRANCH  14  18
BRANCH   5  19
ATOM     19  C   UNL     1      -1.840 -11.466  12.304  0.00  0.00    +0.143 C 
BRANCH  19  22
ATOM      1  S   UNL     1      -4.980 -11.219   9.878  0.00  0.00    +0.028 S 
ATOM      9  N   UNL     1      -3.675  -9.946  11.595  0.00  0.00    -0.145 NA
ATOM     10  N   UNL     1      -4.725  -9.841  10.796  0.00  0.00    -0.110 NA
ATOM     22  C   UNL     1      -3.057 -11.179  11.464  0.00  0.00    +0.086 A 
ATOM     28  C   UNL     1      -3.633 -12.039  10.551  0.00  0.00    +0.093 A 
ENDBRANCH  19  22
ENDBRANCH   5  19
TORSDOF 5
ENDMDL
MODEL 8
REMARK VINA RESULT:      -6.3      2.383      3.319
REMARK  Name = 45361153
REMARK  7 active torsions:
REMARK  status: ('A' for Active; 'I' for Inactive)
REMARK    1  A    between atoms: N_4  and  C_20
REMARK    2  A    between atoms: N_5  and  C_19
REMARK    3  A    between atoms: N_8  and  C_29
REMARK    4  A    between atoms: C_14  and  C_18
REMARK    5  A    between atoms: C_18  and  C_21
REMARK    6  A    between atoms: C_19  and  C_22
REMARK    7  A    between atoms: C_21  and  C_23
REMARK                            x       y       z     vdW  Elec       q    Type
REMARK                         _______ _______ _______ _____ _____    ______ ____
ROOT
ATOM      2  O   UNL     1      14.821   9.999  23.105  0.00  0.00    -0.274 OA
ATOM      4  N   UNL     1      13.246   9.326  19.632  0.00  0.00    -0.296 NA
ATOM      5  N   UNL     1      12.719  11.571  22.474  0.00  0.00    -0.284 NA
ATOM      6  N   UNL     1      13.953   8.108  22.150  0.00  0.00    -0.312 N 
ATOM     11  C   UNL     1      12.421  10.208  20.487  0.00  0.00    +0.084 C 
ATOM     12  C   UNL     1      12.644  10.167  22.028  0.00  0.00    +0.161 C 
ATOM     13  C   UNL     1      12.583  11.708  20.179  0.00  0.00    +0.036 C 
ATOM     14  C   UNL     1      13.034   7.870  19.861  0.00  0.00    +0.074 C 
ATOM     15  C   UNL     1      12.085  12.384  21.440  0.00  0.00    +0.087 C 
ATOM     16  C   UNL     1      12.941   7.455  21.343  0.00  0.00    +0.123 C 
ATOM     17  C   UNL     1      13.915   9.451  22.477  0.00  0.00    +0.232 C 
ATOM     20  C   UNL     1      13.055   9.652  18.208  0.00  0.00    +0.105 C 
ATOM     30  H   UNL     1      14.734   7.557  22.488  0.00  0.00    +0.149 HD
ENDROOT
BRANCH  14  18
ATOM     18  C   UNL     1      14.173   7.051  19.219  0.00  0.00    +0.029 C 
BRANCH  18  21
ATOM     21  C   UNL     1      15.524   7.713  19.409  0.00  0.00    +0.097 C 
BRANCH  21  23
ATOM      3  O   UNL     1      16.588   5.682  18.811  0.00  0.00    -0.276 OA
ATOM      7  N   UNL     1      17.629   6.954  20.453  0.00  0.00    -0.299 N 
ATOM      8  N   UNL     1      20.066   7.774  21.718  0.00  0.00    -0.302 NA
ATOM     23  C   UNL     1      16.623   6.687  19.525  0.00  0.00    +0.216 C 
ATOM     24  C   UNL     1      18.733   6.010  20.622  0.00  0.00    +0.123 C 
ATOM     25  C   UNL     1      17.630   8.067  21.406  0.00  0.00    +0.123 C 
ATOM     26  C   UNL     1      20.077   6.733  20.680  0.00  0.00    +0.103 C 
ATOM     27  C   UNL     1      18.997   8.751  21.454  0.00  0.00    +0.103 C 
ATOM     29  C   UNL     1      21.364   8.440  21.793  0.00  0.00    +0.105 C 
ENDBRANCH  21  23
ENDBRANCH  18  21
ENDBRANCH  14  18
BRANCH   5  19
ATOM     19  C   UNL     1      12.124  11.792  23.786  0.00  0.00    +0.143 C 
BRANCH  19  22
ATOM      1  S   UNL     1      14.816  13.740  25.970  0.00  0.00    +0.028 S 
ATOM      9  N   UNL     1      13.313  11.736  25.968  0.00  0.00    -0.145 NA
ATOM     10  N   UNL     1      14.206  12.367  26.713  0.00  0.00    -0.110 NA
ATOM     22  C   UNL     1      13.113  12.380  24.758  0.00  0.00    +0.086 A 
ATOM     28  C   UNL     1      13.860  13.524  24.562  0.00  0.00    +0.093 A 
ENDBRANCH  19  22
ENDBRANCH   5  19
TORSDOF 5
ENDMDL
MODEL 9
REMARK VINA RESULT:      -6.2     28.391     31.844
REMARK  Name = 45361153
REMARK  7 active torsions:
REMARK  status: ('A' for Active; 'I' for Inactive)
REMARK    1  A    between atoms: N_4  and  C_20
REMARK    2  A    between atoms: N_5  and  C_19
REMARK    3  A    between atoms: N_8  and  C_29
REMARK    4  A    between atoms: C_14  and  C_18
REMARK    5  A    between atoms: C_18  and  C_21
REMARK    6  A    between atoms: C_19  and  C_22
REMARK    7  A    between atoms: C_21  and  C_23
REMARK                            x       y       z     vdW  Elec       q    Type
REMARK                         _______ _______ _______ _____ _____    ______ ____
ROOT
ATOM      2  O   UNL     1      -5.815  -9.298  16.102  0.00  0.00    -0.274 OA
ATOM      4  N   UNL     1      -8.747 -10.535  18.309  0.00  0.00    -0.296 NA
ATOM      5  N   UNL     1      -5.620 -11.857  16.941  0.00  0.00    -0.284 NA
ATOM      6  N   UNL     1      -8.077  -9.372  15.755  0.00  0.00    -0.312 N 
ATOM     11  C   UNL     1      -7.860 -11.627  17.849  0.00  0.00    +0.084 C 
ATOM     12  C   UNL     1      -6.973 -11.383  16.593  0.00  0.00    +0.161 C 
ATOM     13  C   UNL     1      -6.819 -12.069  18.895  0.00  0.00    +0.036 C 
ATOM     14  C   UNL     1      -9.812 -10.158  17.339  0.00  0.00    +0.074 C 
ATOM     15  C   UNL     1      -5.764 -12.773  18.068  0.00  0.00    +0.087 C 
ATOM     16  C   UNL     1      -9.348 -10.058  15.872  0.00  0.00    +0.123 C 
ATOM     17  C   UNL     1      -6.873  -9.926  16.146  0.00  0.00    +0.232 C 
ATOM     20  C   UNL     1      -9.339 -10.859  19.618  0.00  0.00    +0.105 C 
ATOM     30  H   UNL     1      -8.067  -8.432  15.373  0.00  0.00    +0.149 HD
ENDROOT
BRANCH  14  18
ATOM     18  C   UNL     1     -10.433  -8.798  17.722  0.00  0.00    +0.029 C 
BRANCH  18  21
ATOM     21  C   UNL     1     -11.640  -8.464  16.868  0.00  0.00    +0.097 C 
BRANCH  21  23
ATOM      3  O   UNL     1     -10.218  -6.917  15.774  0.00  0.00    -0.276 OA
ATOM      7  N   UNL     1     -12.503  -6.584  15.519  0.00  0.00    -0.299 N 
ATOM      8  N   UNL     1     -14.660  -5.649  13.881  0.00  0.00    -0.302 NA
ATOM     23  C   UNL     1     -11.381  -7.253  16.007  0.00  0.00    +0.216 C 
ATOM     24  C   UNL     1     -12.336  -5.403  14.672  0.00  0.00    +0.123 C 
ATOM     25  C   UNL     1     -13.891  -6.878  15.885  0.00  0.00    +0.123 C 
ATOM     26  C   UNL     1     -13.265  -5.454  13.461  0.00  0.00    +0.103 C 
ATOM     27  C   UNL     1     -14.795  -6.896  14.650  0.00  0.00    +0.103 C 
ATOM     29  C   UNL     1     -15.549  -5.663  12.720  0.00  0.00    +0.105 C 
ENDBRANCH  21  23
ENDBRANCH  18  21
ENDBRANCH  14  18
BRANCH   5  19
ATOM     19  C   UNL     1      -4.918 -12.472  15.822  0.00  0.00    +0.143 C 
BRANCH  19  22
ATOM      1  S   UNL     1      -1.390 -10.639  15.790  0.00  0.00    +0.028 S 
ATOM      9  N   UNL     1      -2.739 -12.398  14.625  0.00  0.00    -0.145 NA
ATOM     10  N   UNL     1      -1.559 -11.802  14.596  0.00  0.00    -0.110 NA
ATOM     22  C   UNL     1      -3.535 -11.901  15.645  0.00  0.00    +0.086 A 
ATOM     28  C   UNL     1      -2.964 -10.907  16.414  0.00  0.00    +0.093 A 
ENDBRANCH  19  22
ENDBRANCH   5  19
TORSDOF 5
ENDMDL
MODEL 10
REMARK VINA RESULT:      -6.2     27.692     29.968
REMARK  Name = 45361153
REMARK  7 active torsions:
REMARK  status: ('A' for Active; 'I' for Inactive)
REMARK    1  A    between atoms: N_4  and  C_20
REMARK    2  A    between atoms: N_5  and  C_19
REMARK    3  A    between atoms: N_8  and  C_29
REMARK    4  A    between atoms: C_14  and  C_18
REMARK    5  A    between atoms: C_18  and  C_21
REMARK    6  A    between atoms: C_19  and  C_22
REMARK    7  A    between atoms: C_21  and  C_23
REMARK                            x       y       z     vdW  Elec       q    Type
REMARK                         _______ _______ _______ _____ _____    ______ ____
ROOT
ATOM      2  O   UNL     1      -6.709 -12.907  15.694  0.00  0.00    -0.274 OA
ATOM      4  N   UNL     1      -3.243 -11.198  15.447  0.00  0.00    -0.296 NA
ATOM      5  N   UNL     1      -6.123 -11.204  17.705  0.00  0.00    -0.284 NA
ATOM      6  N   UNL     1      -5.735 -11.633  14.060  0.00  0.00    -0.312 N 
ATOM     11  C   UNL     1      -4.119 -10.596  16.476  0.00  0.00    +0.084 C 
ATOM     12  C   UNL     1      -5.657 -10.815  16.361  0.00  0.00    +0.161 C 
ATOM     13  C   UNL     1      -3.832 -11.087  17.907  0.00  0.00    +0.036 C 
ATOM     14  C   UNL     1      -3.453 -10.668  14.071  0.00  0.00    +0.074 C 
ATOM     15  C   UNL     1      -5.108 -10.760  18.655  0.00  0.00    +0.087 C 
ATOM     16  C   UNL     1      -4.929 -10.496  13.662  0.00  0.00    +0.123 C 
ATOM     17  C   UNL     1      -6.083 -11.898  15.372  0.00  0.00    +0.232 C 
ATOM     20  C   UNL     1      -1.826 -11.075  15.830  0.00  0.00    +0.105 C 
ATOM     30  H   UNL     1      -6.058 -12.274  13.343  0.00  0.00    +0.149 HD
ENDROOT
BRANCH  14  18
ATOM     18  C   UNL     1      -2.788 -11.593  13.029  0.00  0.00    +0.029 C 
BRANCH  18  21
ATOM     21  C   UNL     1      -2.506 -10.870  11.727  0.00  0.00    +0.097 C 
BRANCH  21  23
ATOM      3  O   UNL     1      -3.439 -12.614  10.423  0.00  0.00    -0.276 OA
ATOM      7  N   UNL     1      -4.059 -10.449   9.854  0.00  0.00    -0.299 N 
ATOM      8  N   UNL     1      -6.052  -8.686   8.791  0.00  0.00    -0.302 NA
ATOM     23  C   UNL     1      -3.372 -11.397  10.611  0.00  0.00    +0.216 C 
ATOM     24  C   UNL     1      -4.923 -10.880   8.756  0.00  0.00    +0.123 C 
ATOM     25  C   UNL     1      -3.898  -8.996   9.966  0.00  0.00    +0.123 C 
ATOM     26  C   UNL     1      -6.260 -10.142   8.781  0.00  0.00    +0.103 C 
ATOM     27  C   UNL     1      -5.255  -8.290   9.962  0.00  0.00    +0.103 C 
ATOM     29  C   UNL     1      -7.334  -7.984   8.780  0.00  0.00    +0.105 C 
ENDBRANCH  21  23
ENDBRANCH  18  21
ENDBRANCH  14  18
BRANCH   5  19
ATOM     19  C   UNL     1      -7.444 -10.682  18.032  0.00  0.00    +0.143 C 
BRANCH  19  22
ATOM      1  S   UNL     1      -9.176 -13.568  20.149  0.00  0.00    +0.028 S 
ATOM      9  N   UNL     1      -9.165 -11.090  19.780  0.00  0.00    -0.145 NA
ATOM     10  N   UNL     1      -9.755 -12.034  20.495  0.00  0.00    -0.110 NA
ATOM     22  C   UNL     1      -8.213 -11.622  18.923  0.00  0.00    +0.086 A 
ATOM     28  C   UNL     1      -8.066 -12.993  18.976  0.00  0.00    +0.093 A 
ENDBRANCH  19  22
ENDBRANCH   5  19
TORSDOF 5
ENDMDL
