REMARK  Name = 56774062
REMARK  8 active torsions:
REMARK  status: ('A' for Active; 'I' for Inactive)
REMARK    1  A    between atoms: N_3  and  C_8
REMARK    2  A    between atoms: N_3  and  C_14
REMARK    3  A    between atoms: C_6  and  C_11
REMARK    4  A    between atoms: C_6  and  C_12
REMARK    5  A    between atoms: C_7  and  C_10
REMARK    6  A    between atoms: C_10  and  C_13
REMARK    7  A    between atoms: C_14  and  C_16
REMARK    8  A    between atoms: C_17  and  C_20
REMARK                            x       y       z     vdW  Elec       q    Type
REMARK                         _______ _______ _______ _____ _____    ______ ____
ROOT
ATOM      6  C   UNL     1      -2.163   2.774  -0.042  0.00  0.00    -0.016 C 
ATOM      7  C   UNL     1      -0.685   2.455   0.265  0.00  0.00    +0.004 C 
ATOM      8  C   UNL     1      -2.530   1.605   0.895  0.00  0.00    +0.060 C 
ATOM      9  C   UNL     1      -1.140   1.014   0.578  0.00  0.00    +0.023 C 
ATOM     11  C   UNL     1      -2.586   4.166   0.375  0.00  0.00    +0.013 C 
ATOM     12  C   UNL     1      -2.605   2.517  -1.473  0.00  0.00    +0.013 C 
ENDROOT
BRANCH   8   3
ATOM      3  N   UNL     1      -3.557   0.749   0.298  0.00  0.00    -0.309 NA
ATOM     28  H   UNL     1      -4.453   1.225   0.187  0.00  0.00    +0.123 HD
BRANCH   3  14
ATOM     14  C   UNL     1      -3.749  -0.433   1.131  0.00  0.00    +0.118 C 
BRANCH  14  16
ATOM      5  N   UNL     1      -5.091  -3.471  -0.685  0.00  0.00    -0.263 NA
ATOM     16  C   UNL     1      -4.719  -1.404   0.511  0.00  0.00    -0.015 A 
ATOM     18  C   UNL     1      -6.089  -1.166   0.541  0.00  0.00    +0.008 A 
ATOM     19  C   UNL     1      -4.275  -2.561  -0.109  0.00  0.00    +0.115 A 
ATOM     21  C   UNL     1      -6.960  -2.080  -0.041  0.00  0.00    +0.020 A 
ATOM     22  C   UNL     1      -6.416  -3.207  -0.636  0.00  0.00    +0.111 A 
ENDBRANCH  14  16
ENDBRANCH   3  14
ENDBRANCH   8   3
BRANCH   7  10
ATOM     10  C   UNL     1       0.312   2.572  -0.896  0.00  0.00    +0.063 C 
BRANCH  10  13
ATOM      2  O   UNL     1       3.631   1.868   0.222  0.00  0.00    -0.354 OA
ATOM      4  N   UNL     1       2.557   2.728   0.027  0.00  0.00    -0.083 NA
ATOM     13  C   UNL     1       1.611   1.976  -0.543  0.00  0.00    +0.084 A 
ATOM     15  C   UNL     1       2.027   0.646  -0.730  0.00  0.00    +0.076 A 
ATOM     17  C   UNL     1       3.303   0.632  -0.233  0.00  0.00    +0.167 A 
BRANCH  17  20
ATOM      1  F   UNL     1       7.249  -3.265   0.304  0.00  0.00    -0.205 F 
ATOM     20  C   UNL     1       4.325  -0.377  -0.095  0.00  0.00    +0.020 A 
ATOM     23  C   UNL     1       4.082  -1.680  -0.530  0.00  0.00    +0.014 A 
ATOM     24  C   UNL     1       5.555  -0.050   0.475  0.00  0.00    +0.014 A 
ATOM     25  C   UNL     1       5.070  -2.655  -0.395  0.00  0.00    +0.039 A 
ATOM     26  C   UNL     1       6.543  -1.025   0.610  0.00  0.00    +0.039 A 
ATOM     27  C   UNL     1       6.301  -2.328   0.175  0.00  0.00    +0.123 A 
ENDBRANCH  17  20
ENDBRANCH  10  13
ENDBRANCH   7  10
TORSDOF 6
