MODEL 1
REMARK VINA RESULT:      -6.8      0.000      0.000
REMARK  Name = 45783692
REMARK  6 active torsions:
REMARK  status: ('A' for Active; 'I' for Inactive)
REMARK    1  A    between atoms: O_3  and  C_25
REMARK    2  A    between atoms: O_3  and  C_26
REMARK    3  A    between atoms: N_4  and  C_12
REMARK    4  A    between atoms: C_8  and  C_13
REMARK    5  A    between atoms: C_12  and  C_14
REMARK    6  A    between atoms: C_17  and  C_20
REMARK                            x       y       z     vdW  Elec       q    Type
REMARK                         _______ _______ _______ _____ _____    ______ ____
ROOT
ATOM      4  N   UNL     1      11.683   8.931  21.617  0.00  0.00    -0.287 NA
ATOM      8  C   UNL     1      12.414   7.814  20.985  0.00  0.00    +0.146 C 
ATOM      9  C   UNL     1      11.499   6.591  21.174  0.00  0.00    +0.030 C 
ATOM     10  C   UNL     1      10.310   7.103  21.974  0.00  0.00    +0.017 C 
ATOM     11  C   UNL     1      10.851   8.340  22.664  0.00  0.00    +0.085 C 
ENDROOT
BRANCH   8  13
ATOM      2  O   UNL     1      12.107   7.300  18.615  0.00  0.00    -0.336 OA
ATOM      5  N   UNL     1      13.552   8.966  19.009  0.00  0.00    -0.190 NA
ATOM      6  N   UNL     1      12.563   7.726  17.361  0.00  0.00    -0.056 NA
ATOM     13  C   UNL     1      12.740   8.081  19.530  0.00  0.00    +0.245 A 
ATOM     17  C   UNL     1      13.410   8.710  17.677  0.00  0.00    +0.204 A 
BRANCH  17  20
ATOM      7  N   UNL     1      15.072   9.567  14.463  0.00  0.00    -0.221 NA
ATOM     20  C   UNL     1      14.130   9.458  16.686  0.00  0.00    +0.041 A 
ATOM     22  C   UNL     1      14.579  10.747  16.948  0.00  0.00    +0.018 A 
ATOM     23  C   UNL     1      14.400   8.918  15.439  0.00  0.00    +0.126 A 
ATOM     24  C   UNL     1      15.275  11.447  15.969  0.00  0.00    +0.068 A 
ATOM     25  C   UNL     1      15.494  10.818  14.753  0.00  0.00    +0.214 A 
BRANCH  25   3
ATOM      3  O   UNL     1      16.177  11.487  13.772  0.00  0.00    -0.480 OA
ATOM     26  C   UNL     1      15.427  11.901  12.637  0.00  0.00    +0.279 C 
ENDBRANCH  25   3
ENDBRANCH  17  20
ENDBRANCH   8  13
BRANCH   4  12
ATOM     12  C   UNL     1      12.561   9.971  22.136  0.00  0.00    +0.123 C 
BRANCH  12  14
ATOM      1  F   UNL     1      10.560  11.515  23.416  0.00  0.00    -0.205 F 
ATOM     14  C   UNL     1      12.150  11.340  21.662  0.00  0.00    +0.002 A 
ATOM     15  C   UNL     1      11.156  12.046  22.340  0.00  0.00    +0.128 A 
ATOM     16  C   UNL     1      12.766  11.902  20.544  0.00  0.00    +0.008 A 
ATOM     18  C   UNL     1      10.777  13.315  21.899  0.00  0.00    +0.038 A 
ATOM     19  C   UNL     1      12.387  13.170  20.102  0.00  0.00    +0.000 A 
ATOM     21  C   UNL     1      11.393  13.876  20.780  0.00  0.00    +0.003 A 
ENDBRANCH  12  14
ENDBRANCH   4  12
TORSDOF 5
ENDMDL
MODEL 2
REMARK VINA RESULT:      -6.6      4.693      5.989
REMARK  Name = 45783692
REMARK  6 active torsions:
REMARK  status: ('A' for Active; 'I' for Inactive)
REMARK    1  A    between atoms: O_3  and  C_25
REMARK    2  A    between atoms: O_3  and  C_26
REMARK    3  A    between atoms: N_4  and  C_12
REMARK    4  A    between atoms: C_8  and  C_13
REMARK    5  A    between atoms: C_12  and  C_14
REMARK    6  A    between atoms: C_17  and  C_20
REMARK                            x       y       z     vdW  Elec       q    Type
REMARK                         _______ _______ _______ _____ _____    ______ ____
ROOT
ATOM      4  N   UNL     1      12.606   8.486  18.719  0.00  0.00    -0.287 NA
ATOM      8  C   UNL     1      13.573   7.410  18.425  0.00  0.00    +0.146 C 
ATOM      9  C   UNL     1      14.049   7.692  16.988  0.00  0.00    +0.030 C 
ATOM     10  C   UNL     1      13.252   8.907  16.537  0.00  0.00    +0.017 C 
ATOM     11  C   UNL     1      12.030   8.886  17.435  0.00  0.00    +0.085 C 
ENDROOT
BRANCH   8  13
ATOM      2  O   UNL     1      14.431   7.779  20.684  0.00  0.00    -0.336 OA
ATOM      5  N   UNL     1      15.953   6.980  19.248  0.00  0.00    -0.190 NA
ATOM      6  N   UNL     1      15.621   7.648  21.410  0.00  0.00    -0.056 NA
ATOM     13  C   UNL     1      14.713   7.364  19.421  0.00  0.00    +0.245 A 
ATOM     17  C   UNL     1      16.471   7.172  20.495  0.00  0.00    +0.204 A 
BRANCH  17  20
ATOM      7  N   UNL     1      19.813   7.335  22.117  0.00  0.00    -0.221 NA
ATOM     20  C   UNL     1      17.842   6.876  20.794  0.00  0.00    +0.041 A 
ATOM     22  C   UNL     1      18.531   5.891  20.096  0.00  0.00    +0.018 A 
ATOM     23  C   UNL     1      18.522   7.563  21.787  0.00  0.00    +0.126 A 
ATOM     24  C   UNL     1      19.860   5.627  20.407  0.00  0.00    +0.068 A 
ATOM     25  C   UNL     1      20.451   6.370  21.417  0.00  0.00    +0.214 A 
BRANCH  25   3
ATOM      3  O   UNL     1      21.760   6.129  21.742  0.00  0.00    -0.480 OA
ATOM     26  C   UNL     1      22.726   6.364  20.726  0.00  0.00    +0.279 C 
ENDBRANCH  25   3
ENDBRANCH  17  20
ENDBRANCH   8  13
BRANCH   4  12
ATOM     12  C   UNL     1      11.583   8.093  19.679  0.00  0.00    +0.123 C 
BRANCH  12  14
ATOM      1  F   UNL     1      10.225   7.536  22.102  0.00  0.00    -0.205 F 
ATOM     14  C   UNL     1      11.446   9.096  20.794  0.00  0.00    +0.002 A 
ATOM     15  C   UNL     1      10.764   8.755  21.962  0.00  0.00    +0.128 A 
ATOM     16  C   UNL     1      12.006  10.366  20.658  0.00  0.00    +0.008 A 
ATOM     18  C   UNL     1      10.639   9.686  22.994  0.00  0.00    +0.038 A 
ATOM     19  C   UNL     1      11.880  11.297  21.690  0.00  0.00    +0.000 A 
ATOM     21  C   UNL     1      11.198  10.956  22.858  0.00  0.00    +0.003 A 
ENDBRANCH  12  14
ENDBRANCH   4  12
TORSDOF 5
ENDMDL
MODEL 3
REMARK VINA RESULT:      -6.6     26.056     29.043
REMARK  Name = 45783692
REMARK  6 active torsions:
REMARK  status: ('A' for Active; 'I' for Inactive)
REMARK    1  A    between atoms: O_3  and  C_25
REMARK    2  A    between atoms: O_3  and  C_26
REMARK    3  A    between atoms: N_4  and  C_12
REMARK    4  A    between atoms: C_8  and  C_13
REMARK    5  A    between atoms: C_12  and  C_14
REMARK    6  A    between atoms: C_17  and  C_20
REMARK                            x       y       z     vdW  Elec       q    Type
REMARK                         _______ _______ _______ _____ _____    ______ ____
ROOT
ATOM      4  N   UNL     1      -3.437 -10.698  14.517  0.00  0.00    -0.287 NA
ATOM      8  C   UNL     1      -3.880 -11.307  15.787  0.00  0.00    +0.146 C 
ATOM      9  C   UNL     1      -2.712 -11.074  16.763  0.00  0.00    +0.030 C 
ATOM     10  C   UNL     1      -1.636 -10.383  15.936  0.00  0.00    +0.017 C 
ATOM     11  C   UNL     1      -1.976 -10.773  14.511  0.00  0.00    +0.085 C 
ENDROOT
BRANCH   8  13
ATOM      2  O   UNL     1      -5.552  -9.523  15.765  0.00  0.00    -0.336 OA
ATOM      5  N   UNL     1      -6.030 -11.207  17.163  0.00  0.00    -0.190 NA
ATOM      6  N   UNL     1      -6.771  -9.193  16.371  0.00  0.00    -0.056 NA
ATOM     13  C   UNL     1      -5.185 -10.724  16.288  0.00  0.00    +0.245 A 
ATOM     17  C   UNL     1      -6.986 -10.234  17.181  0.00  0.00    +0.204 A 
BRANCH  17  20
ATOM      7  N   UNL     1      -9.172 -11.192  20.033  0.00  0.00    -0.221 NA
ATOM     20  C   UNL     1      -8.146 -10.333  18.020  0.00  0.00    +0.041 A 
ATOM     22  C   UNL     1      -9.336  -9.705  17.672  0.00  0.00    +0.018 A 
ATOM     23  C   UNL     1      -8.116 -11.059  19.200  0.00  0.00    +0.126 A 
ATOM     24  C   UNL     1     -10.444  -9.820  18.504  0.00  0.00    +0.068 A 
ATOM     25  C   UNL     1     -10.312 -10.568  19.663  0.00  0.00    +0.214 A 
BRANCH  25   3
ATOM      3  O   UNL     1     -11.390 -10.696  20.498  0.00  0.00    -0.480 OA
ATOM     26  C   UNL     1     -12.552  -9.948  20.164  0.00  0.00    +0.279 C 
ENDBRANCH  25   3
ENDBRANCH  17  20
ENDBRANCH   8  13
BRANCH   4  12
ATOM     12  C   UNL     1      -4.023 -11.330  13.342  0.00  0.00    +0.123 C 
BRANCH  12  14
ATOM      1  F   UNL     1      -2.185 -10.811  11.249  0.00  0.00    -0.205 F 
ATOM     14  C   UNL     1      -4.287 -10.334  12.244  0.00  0.00    +0.002 A 
ATOM     15  C   UNL     1      -3.338 -10.127  11.243  0.00  0.00    +0.128 A 
ATOM     16  C   UNL     1      -5.485  -9.618  12.228  0.00  0.00    +0.008 A 
ATOM     18  C   UNL     1      -3.585  -9.204  10.226  0.00  0.00    +0.038 A 
ATOM     19  C   UNL     1      -5.732  -8.695  11.212  0.00  0.00    +0.000 A 
ATOM     21  C   UNL     1      -4.783  -8.489  10.211  0.00  0.00    +0.003 A 
ENDBRANCH  12  14
ENDBRANCH   4  12
TORSDOF 5
ENDMDL
MODEL 4
REMARK VINA RESULT:      -6.6     25.944     28.436
REMARK  Name = 45783692
REMARK  6 active torsions:
REMARK  status: ('A' for Active; 'I' for Inactive)
REMARK    1  A    between atoms: O_3  and  C_25
REMARK    2  A    between atoms: O_3  and  C_26
REMARK    3  A    between atoms: N_4  and  C_12
REMARK    4  A    between atoms: C_8  and  C_13
REMARK    5  A    between atoms: C_12  and  C_14
REMARK    6  A    between atoms: C_17  and  C_20
REMARK                            x       y       z     vdW  Elec       q    Type
REMARK                         _______ _______ _______ _____ _____    ______ ____
ROOT
ATOM      4  N   UNL     1      -3.327 -10.591  14.415  0.00  0.00    -0.287 NA
ATOM      8  C   UNL     1      -3.730 -11.202  15.697  0.00  0.00    +0.146 C 
ATOM      9  C   UNL     1      -2.556 -10.920  16.652  0.00  0.00    +0.030 C 
ATOM     10  C   UNL     1      -1.516 -10.202  15.803  0.00  0.00    +0.017 C 
ATOM     11  C   UNL     1      -1.864 -10.617  14.386  0.00  0.00    +0.085 C 
ENDROOT
BRANCH   8  13
ATOM      2  O   UNL     1      -5.242 -10.718  17.556  0.00  0.00    -0.336 OA
ATOM      5  N   UNL     1      -6.043 -10.128  15.549  0.00  0.00    -0.190 NA
ATOM      6  N   UNL     1      -6.507 -10.165  17.788  0.00  0.00    -0.056 NA
ATOM     13  C   UNL     1      -5.046 -10.657  16.212  0.00  0.00    +0.245 A 
ATOM     17  C   UNL     1      -6.915  -9.842  16.557  0.00  0.00    +0.204 A 
BRANCH  17  20
ATOM      7  N   UNL     1     -10.002  -8.803  14.762  0.00  0.00    -0.221 NA
ATOM     20  C   UNL     1      -8.188  -9.230  16.301  0.00  0.00    +0.041 A 
ATOM     22  C   UNL     1      -8.838  -8.493  17.284  0.00  0.00    +0.018 A 
ATOM     23  C   UNL     1      -8.806  -9.354  15.068  0.00  0.00    +0.126 A 
ATOM     24  C   UNL     1     -10.070  -7.910  17.007  0.00  0.00    +0.068 A 
ATOM     25  C   UNL     1     -10.605  -8.093  15.742  0.00  0.00    +0.214 A 
BRANCH  25   3
ATOM      3  O   UNL     1     -11.817  -7.529  15.444  0.00  0.00    -0.480 OA
ATOM     26  C   UNL     1     -11.939  -6.127  15.649  0.00  0.00    +0.279 C 
ENDBRANCH  25   3
ENDBRANCH  17  20
ENDBRANCH   8  13
BRANCH   4  12
ATOM     12  C   UNL     1      -3.909 -11.253  13.254  0.00  0.00    +0.123 C 
BRANCH  12  14
ATOM      1  F   UNL     1      -2.055 -10.729  11.177  0.00  0.00    -0.205 F 
ATOM     14  C   UNL     1      -4.181 -10.283  12.134  0.00  0.00    +0.002 A 
ATOM     15  C   UNL     1      -3.223 -10.073  11.143  0.00  0.00    +0.128 A 
ATOM     16  C   UNL     1      -5.395  -9.597  12.089  0.00  0.00    +0.008 A 
ATOM     18  C   UNL     1      -3.478  -9.175  10.105  0.00  0.00    +0.038 A 
ATOM     19  C   UNL     1      -5.650  -8.699  11.053  0.00  0.00    +0.000 A 
ATOM     21  C   UNL     1      -4.692  -8.488  10.061  0.00  0.00    +0.003 A 
ENDBRANCH  12  14
ENDBRANCH   4  12
TORSDOF 5
ENDMDL
MODEL 5
REMARK VINA RESULT:      -6.6      4.766      6.108
REMARK  Name = 45783692
REMARK  6 active torsions:
REMARK  status: ('A' for Active; 'I' for Inactive)
REMARK    1  A    between atoms: O_3  and  C_25
REMARK    2  A    between atoms: O_3  and  C_26
REMARK    3  A    between atoms: N_4  and  C_12
REMARK    4  A    between atoms: C_8  and  C_13
REMARK    5  A    between atoms: C_12  and  C_14
REMARK    6  A    between atoms: C_17  and  C_20
REMARK                            x       y       z     vdW  Elec       q    Type
REMARK                         _______ _______ _______ _____ _____    ______ ____
ROOT
ATOM      4  N   UNL     1      12.373   8.832  20.083  0.00  0.00    -0.287 NA
ATOM      8  C   UNL     1      13.125   8.325  21.247  0.00  0.00    +0.146 C 
ATOM      9  C   UNL     1      12.145   7.381  21.966  0.00  0.00    +0.030 C 
ATOM     10  C   UNL     1      10.851   7.468  21.169  0.00  0.00    +0.017 C 
ATOM     11  C   UNL     1      10.959   8.804  20.459  0.00  0.00    +0.085 C 
ENDROOT
BRANCH   8  13
ATOM      2  O   UNL     1      14.331   6.722  19.851  0.00  0.00    -0.336 OA
ATOM      5  N   UNL     1      15.622   7.795  21.335  0.00  0.00    -0.190 NA
ATOM      6  N   UNL     1      15.630   6.230  19.667  0.00  0.00    -0.056 NA
ATOM     13  C   UNL     1      14.416   7.638  20.852  0.00  0.00    +0.245 A 
ATOM     17  C   UNL     1      16.332   6.910  20.578  0.00  0.00    +0.204 A 
BRANCH  17  20
ATOM      7  N   UNL     1      19.783   7.376  21.884  0.00  0.00    -0.221 NA
ATOM     20  C   UNL     1      17.745   6.731  20.755  0.00  0.00    +0.041 A 
ATOM     22  C   UNL     1      18.445   5.788  20.013  0.00  0.00    +0.018 A 
ATOM     23  C   UNL     1      18.454   7.494  21.669  0.00  0.00    +0.126 A 
ATOM     24  C   UNL     1      19.814   5.637  20.205  0.00  0.00    +0.068 A 
ATOM     25  C   UNL     1      20.431   6.448  21.144  0.00  0.00    +0.214 A 
BRANCH  25   3
ATOM      3  O   UNL     1      21.779   6.320  21.351  0.00  0.00    -0.480 OA
ATOM     26  C   UNL     1      22.424   5.226  20.711  0.00  0.00    +0.279 C 
ENDBRANCH  25   3
ENDBRANCH  17  20
ENDBRANCH   8  13
BRANCH   4  12
ATOM     12  C   UNL     1      12.799  10.159  19.656  0.00  0.00    +0.123 C 
BRANCH  12  14
ATOM      1  F   UNL     1      15.038  11.662  18.788  0.00  0.00    -0.205 F 
ATOM     14  C   UNL     1      13.287  10.159  18.231  0.00  0.00    +0.002 A 
ATOM     15  C   UNL     1      14.397  10.924  17.872  0.00  0.00    +0.128 A 
ATOM     16  C   UNL     1      12.628   9.392  17.271  0.00  0.00    +0.008 A 
ATOM     18  C   UNL     1      14.848  10.922  16.551  0.00  0.00    +0.038 A 
ATOM     19  C   UNL     1      13.078   9.391  15.950  0.00  0.00    +0.000 A 
ATOM     21  C   UNL     1      14.188  10.155  15.591  0.00  0.00    +0.003 A 
ENDBRANCH  12  14
ENDBRANCH   4  12
TORSDOF 5
ENDMDL
MODEL 6
REMARK VINA RESULT:      -6.6      2.960      6.938
REMARK  Name = 45783692
REMARK  6 active torsions:
REMARK  status: ('A' for Active; 'I' for Inactive)
REMARK    1  A    between atoms: O_3  and  C_25
REMARK    2  A    between atoms: O_3  and  C_26
REMARK    3  A    between atoms: N_4  and  C_12
REMARK    4  A    between atoms: C_8  and  C_13
REMARK    5  A    between atoms: C_12  and  C_14
REMARK    6  A    between atoms: C_17  and  C_20
REMARK                            x       y       z     vdW  Elec       q    Type
REMARK                         _______ _______ _______ _____ _____    ______ ____
ROOT
ATOM      4  N   UNL     1      14.148   7.895  19.321  0.00  0.00    -0.287 NA
ATOM      8  C   UNL     1      13.524   7.126  20.416  0.00  0.00    +0.146 C 
ATOM      9  C   UNL     1      14.708   6.543  21.209  0.00  0.00    +0.030 C 
ATOM     10  C   UNL     1      15.951   6.987  20.451  0.00  0.00    +0.017 C 
ATOM     11  C   UNL     1      15.438   7.259  19.051  0.00  0.00    +0.085 C 
ENDROOT
BRANCH   8  13
ATOM      2  O   UNL     1      11.576   7.326  21.878  0.00  0.00    -0.336 OA
ATOM      5  N   UNL     1      12.654   9.257  21.523  0.00  0.00    -0.190 NA
ATOM      6  N   UNL     1      10.879   8.301  22.602  0.00  0.00    -0.056 NA
ATOM     13  C   UNL     1      12.606   7.973  21.272  0.00  0.00    +0.245 A 
ATOM     17  C   UNL     1      11.575   9.412  22.342  0.00  0.00    +0.204 A 
BRANCH  17  20
ATOM      7  N   UNL     1      10.603  12.018  24.811  0.00  0.00    -0.221 NA
ATOM     20  C   UNL     1      11.220  10.691  22.886  0.00  0.00    +0.041 A 
ATOM     22  C   UNL     1      11.141  11.817  22.075  0.00  0.00    +0.018 A 
ATOM     23  C   UNL     1      10.944  10.843  24.235  0.00  0.00    +0.126 A 
ATOM     24  C   UNL     1      10.793  13.044  22.630  0.00  0.00    +0.068 A 
ATOM     25  C   UNL     1      10.536  13.091  23.991  0.00  0.00    +0.214 A 
BRANCH  25   3
ATOM      3  O   UNL     1      10.191  14.288  24.562  0.00  0.00    -0.480 OA
ATOM     26  C   UNL     1       9.654  15.280  23.695  0.00  0.00    +0.279 C 
ENDBRANCH  25   3
ENDBRANCH  17  20
ENDBRANCH   8  13
BRANCH   4  12
ATOM     12  C   UNL     1      13.316   7.974  18.127  0.00  0.00    +0.123 C 
BRANCH  12  14
ATOM      1  F   UNL     1      13.012  10.681  18.905  0.00  0.00    -0.205 F 
ATOM     14  C   UNL     1      13.708   9.131  17.246  0.00  0.00    +0.002 A 
ATOM     15  C   UNL     1      13.530  10.441  17.693  0.00  0.00    +0.128 A 
ATOM     16  C   UNL     1      14.250   8.892  15.984  0.00  0.00    +0.008 A 
ATOM     18  C   UNL     1      13.895  11.512  16.875  0.00  0.00    +0.038 A 
ATOM     19  C   UNL     1      14.613   9.962  15.166  0.00  0.00    +0.000 A 
ATOM     21  C   UNL     1      14.436  11.271  15.612  0.00  0.00    +0.003 A 
ENDBRANCH  12  14
ENDBRANCH   4  12
TORSDOF 5
ENDMDL
MODEL 7
REMARK VINA RESULT:      -6.6     25.572     28.567
REMARK  Name = 45783692
REMARK  6 active torsions:
REMARK  status: ('A' for Active; 'I' for Inactive)
REMARK    1  A    between atoms: O_3  and  C_25
REMARK    2  A    between atoms: O_3  and  C_26
REMARK    3  A    between atoms: N_4  and  C_12
REMARK    4  A    between atoms: C_8  and  C_13
REMARK    5  A    between atoms: C_12  and  C_14
REMARK    6  A    between atoms: C_17  and  C_20
REMARK                            x       y       z     vdW  Elec       q    Type
REMARK                         _______ _______ _______ _____ _____    ______ ____
ROOT
ATOM      4  N   UNL     1      -3.126 -10.496  14.398  0.00  0.00    -0.287 NA
ATOM      8  C   UNL     1      -3.055 -11.246  15.667  0.00  0.00    +0.146 C 
ATOM      9  C   UNL     1      -1.729 -10.803  16.312  0.00  0.00    +0.030 C 
ATOM     10  C   UNL     1      -1.097  -9.851  15.306  0.00  0.00    +0.017 C 
ATOM     11  C   UNL     1      -1.744 -10.241  13.991  0.00  0.00    +0.085 C 
ENDROOT
BRANCH   8  13
ATOM      2  O   UNL     1      -4.069 -11.198  17.891  0.00  0.00    -0.336 OA
ATOM      5  N   UNL     1      -5.460 -10.602  16.239  0.00  0.00    -0.190 NA
ATOM      6  N   UNL     1      -5.295 -10.906  18.501  0.00  0.00    -0.056 NA
ATOM     13  C   UNL     1      -4.252 -10.994  16.560  0.00  0.00    +0.245 A 
ATOM     17  C   UNL     1      -6.063 -10.563  17.462  0.00  0.00    +0.204 A 
BRANCH  17  20
ATOM      7  N   UNL     1      -9.207  -8.610  17.102  0.00  0.00    -0.221 NA
ATOM     20  C   UNL     1      -7.436 -10.174  17.612  0.00  0.00    +0.041 A 
ATOM     22  C   UNL     1      -8.315 -10.932  18.377  0.00  0.00    +0.018 A 
ATOM     23  C   UNL     1      -7.927  -9.032  17.000  0.00  0.00    +0.126 A 
ATOM     24  C   UNL     1      -9.640 -10.530  18.506  0.00  0.00    +0.068 A 
ATOM     25  C   UNL     1     -10.033  -9.372  17.854  0.00  0.00    +0.214 A 
BRANCH  25   3
ATOM      3  O   UNL     1     -11.333  -8.954  17.966  0.00  0.00    -0.480 OA
ATOM     26  C   UNL     1     -12.148  -9.641  18.908  0.00  0.00    +0.279 C 
ENDBRANCH  25   3
ENDBRANCH  17  20
ENDBRANCH   8  13
BRANCH   4  12
ATOM     12  C   UNL     1      -3.882 -11.187  13.363  0.00  0.00    +0.123 C 
BRANCH  12  14
ATOM      1  F   UNL     1      -6.075  -9.401  13.205  0.00  0.00    -0.205 F 
ATOM     14  C   UNL     1      -4.138 -10.303  12.171  0.00  0.00    +0.002 A 
ATOM     15  C   UNL     1      -5.238  -9.446  12.159  0.00  0.00    +0.128 A 
ATOM     16  C   UNL     1      -3.272 -10.341  11.078  0.00  0.00    +0.008 A 
ATOM     18  C   UNL     1      -5.473  -8.626  11.054  0.00  0.00    +0.038 A 
ATOM     19  C   UNL     1      -3.507  -9.523   9.973  0.00  0.00    +0.000 A 
ATOM     21  C   UNL     1      -4.607  -8.665   9.961  0.00  0.00    +0.003 A 
ENDBRANCH  12  14
ENDBRANCH   4  12
TORSDOF 5
ENDMDL
MODEL 8
REMARK VINA RESULT:      -6.2      5.739      6.880
REMARK  Name = 45783692
REMARK  6 active torsions:
REMARK  status: ('A' for Active; 'I' for Inactive)
REMARK    1  A    between atoms: O_3  and  C_25
REMARK    2  A    between atoms: O_3  and  C_26
REMARK    3  A    between atoms: N_4  and  C_12
REMARK    4  A    between atoms: C_8  and  C_13
REMARK    5  A    between atoms: C_12  and  C_14
REMARK    6  A    between atoms: C_17  and  C_20
REMARK                            x       y       z     vdW  Elec       q    Type
REMARK                         _______ _______ _______ _____ _____    ______ ____
ROOT
ATOM      4  N   UNL     1      14.605   8.390  20.112  0.00  0.00    -0.287 NA
ATOM      8  C   UNL     1      14.739   7.106  19.395  0.00  0.00    +0.146 C 
ATOM      9  C   UNL     1      14.256   7.403  17.964  0.00  0.00    +0.030 C 
ATOM     10  C   UNL     1      13.814   8.859  17.988  0.00  0.00    +0.017 C 
ATOM     11  C   UNL     1      13.521   9.119  19.453  0.00  0.00    +0.085 C 
ENDROOT
BRANCH   8  13
ATOM      2  O   UNL     1      16.520   5.758  18.402  0.00  0.00    -0.336 OA
ATOM      5  N   UNL     1      17.091   6.753  20.326  0.00  0.00    -0.190 NA
ATOM      6  N   UNL     1      17.846   5.386  18.656  0.00  0.00    -0.056 NA
ATOM     13  C   UNL     1      16.153   6.563  19.434  0.00  0.00    +0.245 A 
ATOM     17  C   UNL     1      18.111   6.012  19.807  0.00  0.00    +0.204 A 
BRANCH  17  20
ATOM      7  N   UNL     1      21.088   6.961  21.823  0.00  0.00    -0.221 NA
ATOM     20  C   UNL     1      19.384   5.918  20.461  0.00  0.00    +0.041 A 
ATOM     22  C   UNL     1      20.143   4.756  20.388  0.00  0.00    +0.018 A 
ATOM     23  C   UNL     1      19.897   6.983  21.185  0.00  0.00    +0.126 A 
ATOM     24  C   UNL     1      21.374   4.695  21.032  0.00  0.00    +0.068 A 
ATOM     25  C   UNL     1      21.798   5.814  21.730  0.00  0.00    +0.214 A 
BRANCH  25   3
ATOM      3  O   UNL     1      23.008   5.779  22.372  0.00  0.00    -0.480 OA
ATOM     26  C   UNL     1      23.108   4.923  23.504  0.00  0.00    +0.279 C 
ENDBRANCH  25   3
ENDBRANCH  17  20
ENDBRANCH   8  13
BRANCH   4  12
ATOM     12  C   UNL     1      14.367   8.229  21.540  0.00  0.00    +0.123 C 
BRANCH  12  14
ATOM      1  F   UNL     1      11.971   6.721  21.653  0.00  0.00    -0.205 F 
ATOM     14  C   UNL     1      13.045   8.816  21.958  0.00  0.00    +0.002 A 
ATOM     15  C   UNL     1      11.903   8.016  21.991  0.00  0.00    +0.128 A 
ATOM     16  C   UNL     1      12.964  10.162  22.314  0.00  0.00    +0.008 A 
ATOM     18  C   UNL     1      10.679   8.562  22.379  0.00  0.00    +0.038 A 
ATOM     19  C   UNL     1      11.740  10.709  22.701  0.00  0.00    +0.000 A 
ATOM     21  C   UNL     1      10.598   9.909  22.734  0.00  0.00    +0.003 A 
ENDBRANCH  12  14
ENDBRANCH   4  12
TORSDOF 5
ENDMDL
MODEL 9
REMARK VINA RESULT:      -6.1     26.797     29.279
REMARK  Name = 45783692
REMARK  6 active torsions:
REMARK  status: ('A' for Active; 'I' for Inactive)
REMARK    1  A    between atoms: O_3  and  C_25
REMARK    2  A    between atoms: O_3  and  C_26
REMARK    3  A    between atoms: N_4  and  C_12
REMARK    4  A    between atoms: C_8  and  C_13
REMARK    5  A    between atoms: C_12  and  C_14
REMARK    6  A    between atoms: C_17  and  C_20
REMARK                            x       y       z     vdW  Elec       q    Type
REMARK                         _______ _______ _______ _____ _____    ______ ____
ROOT
ATOM      4  N   UNL     1      -9.962 -11.520  18.953  0.00  0.00    -0.287 NA
ATOM      8  C   UNL     1      -8.804 -12.023  19.718  0.00  0.00    +0.146 C 
ATOM      9  C   UNL     1      -8.953 -13.555  19.693  0.00  0.00    +0.030 C 
ATOM     10  C   UNL     1     -10.254 -13.815  18.946  0.00  0.00    +0.017 C 
ATOM     11  C   UNL     1     -11.021 -12.517  19.103  0.00  0.00    +0.085 C 
ENDROOT
BRANCH   8  13
ATOM      2  O   UNL     1      -6.630 -10.943  20.012  0.00  0.00    -0.336 OA
ATOM      5  N   UNL     1      -7.024 -11.651  17.923  0.00  0.00    -0.190 NA
ATOM      6  N   UNL     1      -5.495 -10.606  19.265  0.00  0.00    -0.056 NA
ATOM     13  C   UNL     1      -7.481 -11.555  19.146  0.00  0.00    +0.245 A 
ATOM     17  C   UNL     1      -5.804 -11.055  18.045  0.00  0.00    +0.204 A 
BRANCH  17  20
ATOM      7  N   UNL     1      -4.616 -10.547  14.558  0.00  0.00    -0.221 NA
ATOM     20  C   UNL     1      -4.914 -10.926  16.926  0.00  0.00    +0.041 A 
ATOM     22  C   UNL     1      -3.539 -11.047  17.088  0.00  0.00    +0.018 A 
ATOM     23  C   UNL     1      -5.398 -10.678  15.652  0.00  0.00    +0.126 A 
ATOM     24  C   UNL     1      -2.701 -10.919  15.986  0.00  0.00    +0.068 A 
ATOM     25  C   UNL     1      -3.284 -10.671  14.753  0.00  0.00    +0.214 A 
BRANCH  25   3
ATOM      3  O   UNL     1      -2.479 -10.541  13.651  0.00  0.00    -0.480 OA
ATOM     26  C   UNL     1      -2.169 -11.733  12.940  0.00  0.00    +0.279 C 
ENDBRANCH  25   3
ENDBRANCH  17  20
ENDBRANCH   8  13
BRANCH   4  12
ATOM     12  C   UNL     1     -10.395 -10.193  19.373  0.00  0.00    +0.123 C 
BRANCH  12  14
ATOM      1  F   UNL     1      -8.463  -8.800  17.839  0.00  0.00    -0.205 F 
ATOM     14  C   UNL     1     -10.751  -9.322  18.197  0.00  0.00    +0.002 A 
ATOM     15  C   UNL     1      -9.749  -8.664  17.485  0.00  0.00    +0.128 A 
ATOM     16  C   UNL     1     -12.086  -9.176  17.819  0.00  0.00    +0.008 A 
ATOM     18  C   UNL     1     -10.081  -7.858  16.395  0.00  0.00    +0.038 A 
ATOM     19  C   UNL     1     -12.419  -8.370  16.730  0.00  0.00    +0.000 A 
ATOM     21  C   UNL     1     -11.416  -7.712  16.018  0.00  0.00    +0.003 A 
ENDBRANCH  12  14
ENDBRANCH   4  12
TORSDOF 5
ENDMDL
MODEL 10
REMARK VINA RESULT:      -6.0     26.126     28.722
REMARK  Name = 45783692
REMARK  6 active torsions:
REMARK  status: ('A' for Active; 'I' for Inactive)
REMARK    1  A    between atoms: O_3  and  C_25
REMARK    2  A    between atoms: O_3  and  C_26
REMARK    3  A    between atoms: N_4  and  C_12
REMARK    4  A    between atoms: C_8  and  C_13
REMARK    5  A    between atoms: C_12  and  C_14
REMARK    6  A    between atoms: C_17  and  C_20
REMARK                            x       y       z     vdW  Elec       q    Type
REMARK                         _______ _______ _______ _____ _____    ______ ____
ROOT
ATOM      4  N   UNL     1      -3.786 -10.146  11.479  0.00  0.00    -0.287 NA
ATOM      8  C   UNL     1      -2.714 -10.772  12.278  0.00  0.00    +0.146 C 
ATOM      9  C   UNL     1      -1.433 -10.022  11.871  0.00  0.00    +0.030 C 
ATOM     10  C   UNL     1      -1.873  -9.037  10.797  0.00  0.00    +0.017 C 
ATOM     11  C   UNL     1      -3.154  -9.646  10.259  0.00  0.00    +0.085 C 
ENDROOT
BRANCH   8  13
ATOM      2  O   UNL     1      -1.899 -10.538  14.571  0.00  0.00    -0.336 OA
ATOM      5  N   UNL     1      -4.120 -10.783  14.411  0.00  0.00    -0.190 NA
ATOM      6  N   UNL     1      -2.391 -10.506  15.882  0.00  0.00    -0.056 NA
ATOM     13  C   UNL     1      -2.983 -10.704  13.767  0.00  0.00    +0.245 A 
ATOM     17  C   UNL     1      -3.707 -10.657  15.704  0.00  0.00    +0.204 A 
BRANCH  17  20
ATOM      7  N   UNL     1      -6.797 -10.065  17.687  0.00  0.00    -0.221 NA
ATOM     20  C   UNL     1      -4.636 -10.683  16.797  0.00  0.00    +0.041 A 
ATOM     22  C   UNL     1      -4.317 -11.317  17.993  0.00  0.00    +0.018 A 
ATOM     23  C   UNL     1      -5.878 -10.077  16.696  0.00  0.00    +0.126 A 
ATOM     24  C   UNL     1      -5.236 -11.325  19.036  0.00  0.00    +0.068 A 
ATOM     25  C   UNL     1      -6.452 -10.691  18.835  0.00  0.00    +0.214 A 
BRANCH  25   3
ATOM      3  O   UNL     1      -7.375 -10.685  19.847  0.00  0.00    -0.480 OA
ATOM     26  C   UNL     1      -8.652 -11.237  19.553  0.00  0.00    +0.279 C 
ENDBRANCH  25   3
ENDBRANCH  17  20
ENDBRANCH   8  13
BRANCH   4  12
ATOM     12  C   UNL     1      -4.891 -11.052  11.192  0.00  0.00    +0.123 C 
BRANCH  12  14
ATOM      1  F   UNL     1      -5.401 -11.785   8.503  0.00  0.00    -0.205 F 
ATOM     14  C   UNL     1      -5.949 -10.393  10.346  0.00  0.00    +0.002 A 
ATOM     15  C   UNL     1      -6.148 -10.804   9.028  0.00  0.00    +0.128 A 
ATOM     16  C   UNL     1      -6.733  -9.372  10.884  0.00  0.00    +0.008 A 
ATOM     18  C   UNL     1      -7.130 -10.193   8.247  0.00  0.00    +0.038 A 
ATOM     19  C   UNL     1      -7.714  -8.760  10.103  0.00  0.00    +0.000 A 
ATOM     21  C   UNL     1      -7.912  -9.171   8.785  0.00  0.00    +0.003 A 
ENDBRANCH  12  14
ENDBRANCH   4  12
TORSDOF 5
ENDMDL
