MODEL 1
REMARK VINA RESULT:      -6.1      0.000      0.000
REMARK  Name = 75536894
REMARK  3 active torsions:
REMARK  status: ('A' for Active; 'I' for Inactive)
REMARK    1  A    between atoms: O_3  and  C_13
REMARK    2  A    between atoms: O_3  and  C_16
REMARK    3  A    between atoms: C_6  and  C_10
REMARK                            x       y       z     vdW  Elec       q    Type
REMARK                         _______ _______ _______ _____ _____    ______ ____
ROOT
ATOM      1  O   UNL     1      10.566   7.654  20.602  0.00  0.00    -0.375 OA
ATOM      2  O   UNL     1      13.303  11.533  22.701  0.00  0.00    -0.275 OA
ATOM      4  N   UNL     1      12.030   9.602  22.439  0.00  0.00    -0.295 N 
ATOM     10  C   UNL     1      12.237  10.926  22.882  0.00  0.00    +0.219 C 
ATOM     11  C   UNL     1      13.100   8.912  21.717  0.00  0.00    +0.154 C 
ATOM     12  C   UNL     1      10.756   8.909  22.668  0.00  0.00    +0.136 C 
ATOM     13  C   UNL     1      12.764   8.709  20.240  0.00  0.00    +0.216 C 
ATOM     14  C   UNL     1      10.598   7.540  22.021  0.00  0.00    +0.179 C 
ATOM     15  C   UNL     1      11.842   7.516  19.992  0.00  0.00    +0.206 C 
ENDROOT
BRANCH  10   6
ATOM      6  C   UNL     1      11.073  11.597  23.614  0.00  0.00    +0.075 C 
ATOM      7  C   UNL     1      11.235  11.881  25.131  0.00  0.00    +0.013 C 
ATOM      8  C   UNL     1      10.904  13.129  23.439  0.00  0.00    +0.013 C 
ATOM      9  C   UNL     1      10.441  13.181  24.907  0.00  0.00    +0.001 C 
ENDBRANCH  10   6
BRANCH  13   3
ATOM      3  O   UNL     1      13.987   8.491  19.538  0.00  0.00    -0.483 OA
BRANCH   3  16
ATOM      5  N   UNL     1      14.060   8.361  15.885  0.00  0.00    -0.260 NA
ATOM     16  C   UNL     1      14.029   8.915  18.239  0.00  0.00    +0.139 A 
ATOM     17  C   UNL     1      14.085  10.269  17.928  0.00  0.00    +0.049 A 
ATOM     18  C   UNL     1      14.018   8.009  17.190  0.00  0.00    +0.156 A 
ATOM     19  C   UNL     1      14.129  10.671  16.598  0.00  0.00    +0.023 A 
ATOM     20  C   UNL     1      14.114   9.686  15.623  0.00  0.00    +0.111 A 
ENDBRANCH   3  16
ENDBRANCH  13   3
TORSDOF 3
ENDMDL
MODEL 2
REMARK VINA RESULT:      -6.1      2.537      6.620
REMARK  Name = 75536894
REMARK  3 active torsions:
REMARK  status: ('A' for Active; 'I' for Inactive)
REMARK    1  A    between atoms: O_3  and  C_13
REMARK    2  A    between atoms: O_3  and  C_16
REMARK    3  A    between atoms: C_6  and  C_10
REMARK                            x       y       z     vdW  Elec       q    Type
REMARK                         _______ _______ _______ _____ _____    ______ ____
ROOT
ATOM      1  O   UNL     1      10.963   7.465  22.338  0.00  0.00    -0.375 OA
ATOM      2  O   UNL     1      15.277   9.633  20.434  0.00  0.00    -0.275 OA
ATOM      4  N   UNL     1      13.397   8.285  20.692  0.00  0.00    -0.295 N 
ATOM     10  C   UNL     1      14.789   8.508  20.616  0.00  0.00    +0.219 C 
ATOM     11  C   UNL     1      12.482   9.421  20.574  0.00  0.00    +0.154 C 
ATOM     12  C   UNL     1      12.848   6.941  20.907  0.00  0.00    +0.136 C 
ATOM     13  C   UNL     1      11.789   9.744  21.898  0.00  0.00    +0.216 C 
ATOM     14  C   UNL     1      11.343   6.843  21.115  0.00  0.00    +0.179 C 
ATOM     15  C   UNL     1      10.600   8.831  22.192  0.00  0.00    +0.206 C 
ENDROOT
BRANCH  10   6
ATOM      6  C   UNL     1      15.692   7.282  20.764  0.00  0.00    +0.075 C 
ATOM      7  C   UNL     1      16.247   6.627  19.471  0.00  0.00    +0.013 C 
ATOM      8  C   UNL     1      17.169   7.524  21.166  0.00  0.00    +0.013 C 
ATOM      9  C   UNL     1      17.547   6.346  20.248  0.00  0.00    +0.001 C 
ENDBRANCH  10   6
BRANCH  13   3
ATOM      3  O   UNL     1      11.320  11.090  21.830  0.00  0.00    -0.483 OA
BRANCH   3  16
ATOM      5  N   UNL     1      11.347  11.725  25.430  0.00  0.00    -0.260 NA
ATOM     16  C   UNL     1      11.119  11.728  23.022  0.00  0.00    +0.139 A 
ATOM     17  C   UNL     1      10.508  12.976  23.074  0.00  0.00    +0.049 A 
ATOM     18  C   UNL     1      11.517  11.150  24.218  0.00  0.00    +0.156 A 
ATOM     19  C   UNL     1      10.315  13.599  24.303  0.00  0.00    +0.023 A 
ATOM     20  C   UNL     1      10.749  12.938  25.440  0.00  0.00    +0.111 A 
ENDBRANCH   3  16
ENDBRANCH  13   3
TORSDOF 3
ENDMDL
MODEL 3
REMARK VINA RESULT:      -5.8     13.723     16.914
REMARK  Name = 75536894
REMARK  3 active torsions:
REMARK  status: ('A' for Active; 'I' for Inactive)
REMARK    1  A    between atoms: O_3  and  C_13
REMARK    2  A    between atoms: O_3  and  C_16
REMARK    3  A    between atoms: C_6  and  C_10
REMARK                            x       y       z     vdW  Elec       q    Type
REMARK                         _______ _______ _______ _____ _____    ______ ____
ROOT
ATOM      1  O   UNL     1      13.888   7.394   5.311  0.00  0.00    -0.375 OA
ATOM      2  O   UNL     1       9.185   5.257   5.812  0.00  0.00    -0.275 OA
ATOM      4  N   UNL     1      10.999   6.702   6.007  0.00  0.00    -0.295 N 
ATOM     10  C   UNL     1      10.064   5.776   6.515  0.00  0.00    +0.219 C 
ATOM     11  C   UNL     1      10.954   7.060   4.588  0.00  0.00    +0.154 C 
ATOM     12  C   UNL     1      12.030   7.300   6.865  0.00  0.00    +0.136 C 
ATOM     13  C   UNL     1      12.147   6.503   3.813  0.00  0.00    +0.216 C 
ATOM     14  C   UNL     1      13.069   8.174   6.177  0.00  0.00    +0.179 C 
ATOM     15  C   UNL     1      13.413   7.342   3.973  0.00  0.00    +0.206 C 
ENDROOT
BRANCH  10   6
ATOM      6  C   UNL     1      10.177   5.430   8.002  0.00  0.00    +0.075 C 
ATOM      7  C   UNL     1       9.077   5.964   8.958  0.00  0.00    +0.013 C 
ATOM      8  C   UNL     1       9.741   4.009   8.442  0.00  0.00    +0.013 C 
ATOM      9  C   UNL     1       9.206   4.644   9.740  0.00  0.00    +0.001 C 
ENDBRANCH  10   6
BRANCH  13   3
ATOM      3  O   UNL     1      11.796   6.472   2.430  0.00  0.00    -0.483 OA
BRANCH   3  16
ATOM      5  N   UNL     1      13.466   4.812  -0.366  0.00  0.00    -0.260 NA
ATOM     16  C   UNL     1      12.361   5.480   1.679  0.00  0.00    +0.139 A 
ATOM     17  C   UNL     1      12.418   4.171   2.145  0.00  0.00    +0.049 A 
ATOM     18  C   UNL     1      12.895   5.746   0.428  0.00  0.00    +0.156 A 
ATOM     19  C   UNL     1      12.997   3.182   1.357  0.00  0.00    +0.023 A 
ATOM     20  C   UNL     1      13.502   3.551   0.121  0.00  0.00    +0.111 A 
ENDBRANCH   3  16
ENDBRANCH  13   3
TORSDOF 3
ENDMDL
MODEL 4
REMARK VINA RESULT:      -5.4     26.954     27.745
REMARK  Name = 75536894
REMARK  3 active torsions:
REMARK  status: ('A' for Active; 'I' for Inactive)
REMARK    1  A    between atoms: O_3  and  C_13
REMARK    2  A    between atoms: O_3  and  C_16
REMARK    3  A    between atoms: C_6  and  C_10
REMARK                            x       y       z     vdW  Elec       q    Type
REMARK                         _______ _______ _______ _____ _____    ______ ____
ROOT
ATOM      1  O   UNL     1      -4.781 -13.826  13.369  0.00  0.00    -0.375 OA
ATOM      2  O   UNL     1      -3.840  -9.975  16.718  0.00  0.00    -0.275 OA
ATOM      4  N   UNL     1      -3.919 -12.072  15.711  0.00  0.00    -0.295 N 
ATOM     10  C   UNL     1      -4.258 -11.141  16.717  0.00  0.00    +0.219 C 
ATOM     11  C   UNL     1      -3.056 -11.650  14.607  0.00  0.00    +0.154 C 
ATOM     12  C   UNL     1      -4.430 -13.448  15.737  0.00  0.00    +0.136 C 
ATOM     13  C   UNL     1      -3.813 -11.562  13.282  0.00  0.00    +0.216 C 
ATOM     14  C   UNL     1      -4.114 -14.316  14.528  0.00  0.00    +0.179 C 
ATOM     15  C   UNL     1      -3.999 -12.918  12.605  0.00  0.00    +0.206 C 
ENDROOT
BRANCH  10   6
ATOM      6  C   UNL     1      -5.179 -11.640  17.833  0.00  0.00    +0.075 C 
ATOM      7  C   UNL     1      -4.558 -11.876  19.236  0.00  0.00    +0.013 C 
ATOM      8  C   UNL     1      -6.103 -10.600  18.518  0.00  0.00    +0.013 C 
ATOM      9  C   UNL     1      -5.881 -11.365  19.837  0.00  0.00    +0.001 C 
ENDBRANCH  10   6
BRANCH  13   3
ATOM      3  O   UNL     1      -3.069 -10.716  12.407  0.00  0.00    -0.483 OA
BRANCH   3  16
ATOM      5  N   UNL     1      -5.844  -8.830  10.957  0.00  0.00    -0.260 NA
ATOM     16  C   UNL     1      -3.790  -9.981  11.508  0.00  0.00    +0.139 A 
ATOM     17  C   UNL     1      -3.256  -9.635  10.272  0.00  0.00    +0.049 A 
ATOM     18  C   UNL     1      -5.077  -9.558  11.800  0.00  0.00    +0.156 A 
ATOM     19  C   UNL     1      -4.014  -8.888   9.377  0.00  0.00    +0.023 A 
ATOM     20  C   UNL     1      -5.290  -8.514   9.764  0.00  0.00    +0.111 A 
ENDBRANCH   3  16
ENDBRANCH  13   3
TORSDOF 3
ENDMDL
MODEL 5
REMARK VINA RESULT:      -5.4      2.972      4.056
REMARK  Name = 75536894
REMARK  3 active torsions:
REMARK  status: ('A' for Active; 'I' for Inactive)
REMARK    1  A    between atoms: O_3  and  C_13
REMARK    2  A    between atoms: O_3  and  C_16
REMARK    3  A    between atoms: C_6  and  C_10
REMARK                            x       y       z     vdW  Elec       q    Type
REMARK                         _______ _______ _______ _____ _____    ______ ____
ROOT
ATOM      1  O   UNL     1      14.709  10.638  18.816  0.00  0.00    -0.375 OA
ATOM      2  O   UNL     1      11.716   8.853  22.663  0.00  0.00    -0.275 OA
ATOM      4  N   UNL     1      12.437   9.912  20.720  0.00  0.00    -0.295 N 
ATOM     10  C   UNL     1      11.911   9.900  22.029  0.00  0.00    +0.219 C 
ATOM     11  C   UNL     1      12.792   8.644  20.079  0.00  0.00    +0.154 C 
ATOM     12  C   UNL     1      12.657  11.169  19.994  0.00  0.00    +0.136 C 
ATOM     13  C   UNL     1      14.303   8.476  19.926  0.00  0.00    +0.216 C 
ATOM     14  C   UNL     1      13.360  11.066  18.648  0.00  0.00    +0.179 C 
ATOM     15  C   UNL     1      14.873   9.230  18.726  0.00  0.00    +0.206 C 
ENDROOT
BRANCH  10   6
ATOM      6  C   UNL     1      11.578  11.259  22.649  0.00  0.00    +0.075 C 
ATOM      7  C   UNL     1      10.740  11.277  23.955  0.00  0.00    +0.013 C 
ATOM      8  C   UNL     1      12.692  11.967  23.463  0.00  0.00    +0.013 C 
ATOM      9  C   UNL     1      11.588  12.480  24.407  0.00  0.00    +0.001 C 
ENDBRANCH  10   6
BRANCH  13   3
ATOM      3  O   UNL     1      14.575   7.085  19.759  0.00  0.00    -0.483 OA
BRANCH   3  16
ATOM      5  N   UNL     1      17.839   6.575  21.323  0.00  0.00    -0.260 NA
ATOM     16  C   UNL     1      15.875   6.694  19.918  0.00  0.00    +0.139 A 
ATOM     17  C   UNL     1      16.558   6.043  18.896  0.00  0.00    +0.049 A 
ATOM     18  C   UNL     1      16.554   6.933  21.101  0.00  0.00    +0.156 A 
ATOM     19  C   UNL     1      17.881   5.659  19.086  0.00  0.00    +0.023 A 
ATOM     20  C   UNL     1      18.469   5.945  20.306  0.00  0.00    +0.111 A 
ENDBRANCH   3  16
ENDBRANCH  13   3
TORSDOF 3
ENDMDL
MODEL 6
REMARK VINA RESULT:      -5.2     23.314     25.191
REMARK  Name = 75536894
REMARK  3 active torsions:
REMARK  status: ('A' for Active; 'I' for Inactive)
REMARK    1  A    between atoms: O_3  and  C_13
REMARK    2  A    between atoms: O_3  and  C_16
REMARK    3  A    between atoms: C_6  and  C_10
REMARK                            x       y       z     vdW  Elec       q    Type
REMARK                         _______ _______ _______ _____ _____    ______ ____
ROOT
ATOM      1  O   UNL     1     -12.133  12.436  18.233  0.00  0.00    -0.375 OA
ATOM      2  O   UNL     1     -10.412   7.667  17.122  0.00  0.00    -0.275 OA
ATOM      4  N   UNL     1     -10.589   9.983  17.282  0.00  0.00    -0.295 N 
ATOM     10  C   UNL     1     -10.569   8.765  16.568  0.00  0.00    +0.219 C 
ATOM     11  C   UNL     1     -10.439   9.961  18.738  0.00  0.00    +0.154 C 
ATOM     12  C   UNL     1     -10.776  11.268  16.598  0.00  0.00    +0.136 C 
ATOM     13  C   UNL     1     -11.735  10.335  19.457  0.00  0.00    +0.216 C 
ATOM     14  C   UNL     1     -10.923  12.497  17.484  0.00  0.00    +0.179 C 
ATOM     15  C   UNL     1     -11.978  11.842  19.514  0.00  0.00    +0.206 C 
ENDROOT
BRANCH  10   6
ATOM      6  C   UNL     1     -10.748   8.854  15.051  0.00  0.00    +0.075 C 
ATOM      7  C   UNL     1     -10.313   7.635  14.195  0.00  0.00    +0.013 C 
ATOM      8  C   UNL     1     -12.173   8.627  14.483  0.00  0.00    +0.013 C 
ATOM      9  C   UNL     1     -11.513   7.932  13.277  0.00  0.00    +0.001 C 
ENDBRANCH  10   6
BRANCH  13   3
ATOM      3  O   UNL     1     -11.654   9.838  20.792  0.00  0.00    -0.483 OA
BRANCH   3  16
ATOM      5  N   UNL     1     -14.329   7.554  21.790  0.00  0.00    -0.260 NA
ATOM     16  C   UNL     1     -12.315   8.669  21.049  0.00  0.00    +0.139 A 
ATOM     17  C   UNL     1     -11.697   7.438  20.852  0.00  0.00    +0.049 A 
ATOM     18  C   UNL     1     -13.620   8.672  21.515  0.00  0.00    +0.156 A 
ATOM     19  C   UNL     1     -12.393   6.265  21.125  0.00  0.00    +0.023 A 
ATOM     20  C   UNL     1     -13.694   6.377  21.587  0.00  0.00    +0.111 A 
ENDBRANCH   3  16
ENDBRANCH  13   3
TORSDOF 3
ENDMDL
MODEL 7
REMARK VINA RESULT:      -5.1     26.243     28.619
REMARK  Name = 75536894
REMARK  3 active torsions:
REMARK  status: ('A' for Active; 'I' for Inactive)
REMARK    1  A    between atoms: O_3  and  C_13
REMARK    2  A    between atoms: O_3  and  C_16
REMARK    3  A    between atoms: C_6  and  C_10
REMARK                            x       y       z     vdW  Elec       q    Type
REMARK                         _______ _______ _______ _____ _____    ______ ____
ROOT
ATOM      1  O   UNL     1      -7.056 -13.328  18.087  0.00  0.00    -0.375 OA
ATOM      2  O   UNL     1      -8.701  -8.475  17.259  0.00  0.00    -0.275 OA
ATOM      4  N   UNL     1      -8.377 -10.579  18.199  0.00  0.00    -0.295 N 
ATOM     10  C   UNL     1      -9.157  -9.584  17.573  0.00  0.00    +0.219 C 
ATOM     11  C   UNL     1      -6.964 -10.313  18.476  0.00  0.00    +0.154 C 
ATOM     12  C   UNL     1      -8.945 -11.884  18.559  0.00  0.00    +0.136 C 
ATOM     13  C   UNL     1      -6.035 -11.141  17.589  0.00  0.00    +0.216 C 
ATOM     14  C   UNL     1      -7.975 -12.926  19.098  0.00  0.00    +0.179 C 
ATOM     15  C   UNL     1      -5.851 -12.574  18.083  0.00  0.00    +0.206 C 
ENDROOT
BRANCH  10   6
ATOM      6  C   UNL     1     -10.621  -9.931  17.294  0.00  0.00    +0.075 C 
ATOM      7  C   UNL     1     -11.704  -9.304  18.212  0.00  0.00    +0.013 C 
ATOM      8  C   UNL     1     -11.321  -9.197  16.121  0.00  0.00    +0.013 C 
ATOM      9  C   UNL     1     -12.608  -9.203  16.969  0.00  0.00    +0.001 C 
ENDBRANCH  10   6
BRANCH  13   3
ATOM      3  O   UNL     1      -4.760 -10.500  17.572  0.00  0.00    -0.483 OA
BRANCH   3  16
ATOM      5  N   UNL     1      -4.097 -10.546  13.977  0.00  0.00    -0.260 NA
ATOM     16  C   UNL     1      -4.066 -10.553  16.395  0.00  0.00    +0.139 A 
ATOM     17  C   UNL     1      -2.680 -10.664  16.384  0.00  0.00    +0.049 A 
ATOM     18  C   UNL     1      -4.722 -10.498  15.175  0.00  0.00    +0.156 A 
ATOM     19  C   UNL     1      -2.002 -10.718  15.171  0.00  0.00    +0.023 A 
ATOM     20  C   UNL     1      -2.750 -10.655  14.007  0.00  0.00    +0.111 A 
ENDBRANCH   3  16
ENDBRANCH  13   3
TORSDOF 3
ENDMDL
MODEL 8
REMARK VINA RESULT:      -4.9     27.647     30.011
REMARK  Name = 75536894
REMARK  3 active torsions:
REMARK  status: ('A' for Active; 'I' for Inactive)
REMARK    1  A    between atoms: O_3  and  C_13
REMARK    2  A    between atoms: O_3  and  C_16
REMARK    3  A    between atoms: C_6  and  C_10
REMARK                            x       y       z     vdW  Elec       q    Type
REMARK                         _______ _______ _______ _____ _____    ______ ____
ROOT
ATOM      1  O   UNL     1     -10.919 -10.728  20.288  0.00  0.00    -0.375 OA
ATOM      2  O   UNL     1      -7.327 -10.898  16.546  0.00  0.00    -0.275 OA
ATOM      4  N   UNL     1      -8.738 -11.496  18.297  0.00  0.00    -0.295 N 
ATOM     10  C   UNL     1      -7.473 -11.240  17.728  0.00  0.00    +0.219 C 
ATOM     11  C   UNL     1      -9.939 -11.336  17.474  0.00  0.00    +0.154 C 
ATOM     12  C   UNL     1      -8.879 -11.899  19.701  0.00  0.00    +0.136 C 
ATOM     13  C   UNL     1     -10.776 -10.130  17.901  0.00  0.00    +0.216 C 
ATOM     14  C   UNL     1     -10.299 -12.009  20.241  0.00  0.00    +0.179 C 
ATOM     15  C   UNL     1     -11.658 -10.411  19.116  0.00  0.00    +0.206 C 
ENDROOT
BRANCH  10   6
ATOM      6  C   UNL     1      -6.259 -11.407  18.646  0.00  0.00    +0.075 C 
ATOM      7  C   UNL     1      -5.409 -12.697  18.498  0.00  0.00    +0.013 C 
ATOM      8  C   UNL     1      -4.971 -10.626  18.280  0.00  0.00    +0.013 C 
ATOM      9  C   UNL     1      -4.167 -11.836  18.794  0.00  0.00    +0.001 C 
ENDBRANCH  10   6
BRANCH  13   3
ATOM      3  O   UNL     1     -11.615  -9.769  16.805  0.00  0.00    -0.483 OA
BRANCH   3  16
ATOM      5  N   UNL     1     -10.180  -6.601  15.676  0.00  0.00    -0.260 NA
ATOM     16  C   UNL     1     -11.542  -8.471  16.383  0.00  0.00    +0.139 A 
ATOM     17  C   UNL     1     -12.691  -7.701  16.230  0.00  0.00    +0.049 A 
ATOM     18  C   UNL     1     -10.322  -7.879  16.096  0.00  0.00    +0.156 A 
ATOM     19  C   UNL     1     -12.585  -6.383  15.801  0.00  0.00    +0.023 A 
ATOM     20  C   UNL     1     -11.319  -5.885  15.540  0.00  0.00    +0.111 A 
ENDBRANCH   3  16
ENDBRANCH  13   3
TORSDOF 3
ENDMDL
MODEL 9
REMARK VINA RESULT:      -4.9     14.547     19.349
REMARK  Name = 75536894
REMARK  3 active torsions:
REMARK  status: ('A' for Active; 'I' for Inactive)
REMARK    1  A    between atoms: O_3  and  C_13
REMARK    2  A    between atoms: O_3  and  C_16
REMARK    3  A    between atoms: C_6  and  C_10
REMARK                            x       y       z     vdW  Elec       q    Type
REMARK                         _______ _______ _______ _____ _____    ______ ____
ROOT
ATOM      1  O   UNL     1      12.454   7.307   3.555  0.00  0.00    -0.375 OA
ATOM      2  O   UNL     1       9.611   3.939   0.815  0.00  0.00    -0.275 OA
ATOM      4  N   UNL     1      11.406   5.144   1.676  0.00  0.00    -0.295 N 
ATOM     10  C   UNL     1      10.524   4.759   0.644  0.00  0.00    +0.219 C 
ATOM     11  C   UNL     1      11.235   4.575   3.014  0.00  0.00    +0.154 C 
ATOM     12  C   UNL     1      12.479   6.118   1.443  0.00  0.00    +0.136 C 
ATOM     13  C   UNL     1      10.731   5.608   4.021  0.00  0.00    +0.216 C 
ATOM     14  C   UNL     1      13.275   6.562   2.662  0.00  0.00    +0.179 C 
ATOM     15  C   UNL     1      11.838   6.512   4.559  0.00  0.00    +0.206 C 
ENDROOT
BRANCH  10   6
ATOM      6  C   UNL     1      10.745   5.404  -0.726  0.00  0.00    +0.075 C 
ATOM      7  C   UNL     1      10.548   4.520  -1.986  0.00  0.00    +0.013 C 
ATOM      8  C   UNL     1       9.611   6.299  -1.289  0.00  0.00    +0.013 C 
ATOM      9  C   UNL     1       9.967   5.761  -2.688  0.00  0.00    +0.001 C 
ENDBRANCH  10   6
BRANCH  13   3
ATOM      3  O   UNL     1      10.148   4.904   5.117  0.00  0.00    -0.483 OA
BRANCH   3  16
ATOM      5  N   UNL     1       8.238   7.440   6.929  0.00  0.00    -0.260 NA
ATOM     16  C   UNL     1       9.686   5.664   6.154  0.00  0.00    +0.139 A 
ATOM     17  C   UNL     1      10.153   5.471   7.450  0.00  0.00    +0.049 A 
ATOM     18  C   UNL     1       8.736   6.653   5.949  0.00  0.00    +0.156 A 
ATOM     19  C   UNL     1       9.665   6.261   8.485  0.00  0.00    +0.023 A 
ATOM     20  C   UNL     1       8.718   7.222   8.174  0.00  0.00    +0.111 A 
ENDBRANCH   3  16
ENDBRANCH  13   3
TORSDOF 3
ENDMDL
MODEL 10
REMARK VINA RESULT:      -4.8     13.464     16.070
REMARK  Name = 75536894
REMARK  3 active torsions:
REMARK  status: ('A' for Active; 'I' for Inactive)
REMARK    1  A    between atoms: O_3  and  C_13
REMARK    2  A    between atoms: O_3  and  C_16
REMARK    3  A    between atoms: C_6  and  C_10
REMARK                            x       y       z     vdW  Elec       q    Type
REMARK                         _______ _______ _______ _____ _____    ______ ____
ROOT
ATOM      1  O   UNL     1      12.124   9.384   4.807  0.00  0.00    -0.375 OA
ATOM      2  O   UNL     1       8.325   7.748   7.942  0.00  0.00    -0.275 OA
ATOM      4  N   UNL     1      10.386   8.477   7.146  0.00  0.00    -0.295 N 
ATOM     10  C   UNL     1       9.520   7.517   7.711  0.00  0.00    +0.219 C 
ATOM     11  C   UNL     1       9.860   9.798   6.795  0.00  0.00    +0.154 C 
ATOM     12  C   UNL     1      11.798   8.175   6.883  0.00  0.00    +0.136 C 
ATOM     13  C   UNL     1       9.788  10.008   5.283  0.00  0.00    +0.216 C 
ATOM     14  C   UNL     1      12.598   9.237   6.142  0.00  0.00    +0.179 C 
ATOM     15  C   UNL     1      11.131  10.391   4.665  0.00  0.00    +0.206 C 
ENDROOT
BRANCH  10   6
ATOM      6  C   UNL     1      10.127   6.151   8.037  0.00  0.00    +0.075 C 
ATOM      7  C   UNL     1       9.454   5.304   9.150  0.00  0.00    +0.013 C 
ATOM      8  C   UNL     1       9.807   4.976   7.077  0.00  0.00    +0.013 C 
ATOM      9  C   UNL     1       9.787   4.055   8.312  0.00  0.00    +0.001 C 
ENDBRANCH  10   6
BRANCH  13   3
ATOM      3  O   UNL     1       8.857  11.060   5.031  0.00  0.00    -0.483 OA
BRANCH   3  16
ATOM      5  N   UNL     1       5.358  10.967   3.976  0.00  0.00    -0.260 NA
ATOM     16  C   UNL     1       7.741  10.728   4.315  0.00  0.00    +0.139 A 
ATOM     17  C   UNL     1       7.813   9.851   3.238  0.00  0.00    +0.049 A 
ATOM     18  C   UNL     1       6.500  11.254   4.640  0.00  0.00    +0.156 A 
ATOM     19  C   UNL     1       6.660   9.531   2.530  0.00  0.00    +0.023 A 
ATOM     20  C   UNL     1       5.469  10.110   2.936  0.00  0.00    +0.111 A 
ENDBRANCH   3  16
ENDBRANCH  13   3
TORSDOF 3
ENDMDL
