MODEL 1
REMARK VINA RESULT:      -6.4      0.000      0.000
REMARK  Name = 11883082
REMARK  8 active torsions:
REMARK  status: ('A' for Active; 'I' for Inactive)
REMARK    1  A    between atoms: O_2  and  C_15
REMARK    2  A    between atoms: O_3  and  C_20
REMARK    3  A    between atoms: C_10  and  C_18
REMARK    4  A    between atoms: C_12  and  C_20
REMARK    5  A    between atoms: C_12  and  C_21
REMARK    6  A    between atoms: C_13  and  C_23
REMARK    7  A    between atoms: C_23  and  C_24
REMARK    8  A    between atoms: C_31  and  C_32
REMARK                            x       y       z     vdW  Elec       q    Type
REMARK                         _______ _______ _______ _____ _____    ______ ____
ROOT
ATOM      1  S   UNL     1      -6.454  -7.521  39.219  0.00  0.00    -0.057 S 
ATOM      5  O   UNL     1     -10.674  -5.640  39.366  0.00  0.00    -0.266 OA
ATOM      7  N   UNL     1      -8.982  -7.970  38.900  0.00  0.00    -0.229 NA
ATOM      9  N   UNL     1      -8.346  -5.731  39.526  0.00  0.00    -0.258 N 
ATOM     10  C   UNL     1      -8.065 -11.500  37.651  0.00  0.00    -0.019 C 
ATOM     11  C   UNL     1      -6.767 -11.575  38.572  0.00  0.00    +0.011 C 
ATOM     12  C   UNL     1      -5.839 -12.839  38.401  0.00  0.00    +0.021 C 
ATOM     13  C   UNL     1      -9.054 -10.414  38.279  0.00  0.00    +0.054 C 
ATOM     14  C   UNL     1      -8.781 -12.875  37.658  0.00  0.00    +0.010 C 
ATOM     15  C   UNL     1      -6.719 -14.121  38.382  0.00  0.00    +0.123 C 
ATOM     16  C   UNL     1      -5.993 -10.224  38.574  0.00  0.00    +0.049 C 
ATOM     17  C   UNL     1      -7.860 -14.053  37.373  0.00  0.00    +0.032 C 
ATOM     18  C   UNL     1      -7.741 -11.116  36.187  0.00  0.00    +0.012 C 
ATOM     19  C   UNL     1      -8.313  -9.151  38.640  0.00  0.00    +0.058 A 
ATOM     21  C   UNL     1      -4.895 -12.944  39.631  0.00  0.00    +0.016 C 
ATOM     22  C   UNL     1      -6.942  -9.094  38.785  0.00  0.00    +0.015 A 
ATOM     25  C   UNL     1      -8.103  -7.041  39.209  0.00  0.00    +0.165 A 
ATOM     31  C   UNL     1      -9.601  -5.086  39.592  0.00  0.00    +0.285 C 
ATOM     38  H   UNL     1      -7.517  -5.177  39.726  0.00  0.00    +0.157 HD
ENDROOT
BRANCH  31  32
ATOM      6  O   UNL     1      -8.856  -3.321  41.010  0.00  0.00    -0.458 OA
ATOM     32  C   UNL     1      -9.548  -3.649  39.916  0.00  0.00    +0.189 A 
ATOM     33  C   UNL     1     -10.094  -2.602  39.276  0.00  0.00    +0.054 A 
ATOM     34  C   UNL     1      -9.707  -1.478  40.046  0.00  0.00    +0.042 A 
ATOM     35  C   UNL     1      -8.957  -1.968  41.089  0.00  0.00    +0.196 A 
ENDBRANCH  31  32
BRANCH  15   2
ATOM      2  O   UNL     1      -5.924 -15.272  38.100  0.00  0.00    -0.391 OA
ATOM     36  H   UNL     1      -6.445 -16.060  38.324  0.00  0.00    +0.210 HD
ENDBRANCH  15   2
BRANCH  12  20
ATOM     20  C   UNL     1      -4.911 -12.790  37.167  0.00  0.00    +0.165 C 
BRANCH  20   3
ATOM      3  O   UNL     1      -3.696 -13.415  37.517  0.00  0.00    -0.394 OA
ATOM     37  H   UNL     1      -3.853 -13.957  38.307  0.00  0.00    +0.209 HD
ENDBRANCH  20   3
ENDBRANCH  12  20
BRANCH  13  23
ATOM     23  C   UNL     1     -10.294 -10.113  37.428  0.00  0.00    +0.106 C 
BRANCH  23  24
ATOM      4  O   UNL     1     -11.511 -10.845  39.324  0.00  0.00    -0.276 OA
ATOM      8  N   UNL     1     -12.618 -10.937  37.284  0.00  0.00    -0.301 N 
ATOM     24  C   UNL     1     -11.524 -10.663  38.105  0.00  0.00    +0.216 C 
ATOM     26  C   UNL     1     -13.849 -11.476  37.867  0.00  0.00    +0.108 C 
ATOM     27  C   UNL     1     -12.679 -10.689  35.839  0.00  0.00    +0.108 C 
ATOM     28  C   UNL     1     -14.273 -12.758  37.157  0.00  0.00    +0.019 C 
ATOM     29  C   UNL     1     -13.082 -11.957  35.089  0.00  0.00    +0.019 C 
ATOM     30  C   UNL     1     -14.377 -12.547  35.647  0.00  0.00    +0.003 C 
ENDBRANCH  23  24
ENDBRANCH  13  23
TORSDOF 6
ENDMDL
MODEL 2
REMARK VINA RESULT:      -6.4     19.762     22.911
REMARK  Name = 11883082
REMARK  8 active torsions:
REMARK  status: ('A' for Active; 'I' for Inactive)
REMARK    1  A    between atoms: O_2  and  C_15
REMARK    2  A    between atoms: O_3  and  C_20
REMARK    3  A    between atoms: C_10  and  C_18
REMARK    4  A    between atoms: C_12  and  C_20
REMARK    5  A    between atoms: C_12  and  C_21
REMARK    6  A    between atoms: C_13  and  C_23
REMARK    7  A    between atoms: C_23  and  C_24
REMARK    8  A    between atoms: C_31  and  C_32
REMARK                            x       y       z     vdW  Elec       q    Type
REMARK                         _______ _______ _______ _____ _____    ______ ____
ROOT
ATOM      1  S   UNL     1     -10.950 -10.881  19.344  0.00  0.00    -0.057 S 
ATOM      5  O   UNL     1      -7.321  -9.204  17.023  0.00  0.00    -0.266 OA
ATOM      7  N   UNL     1     -10.197  -9.223  17.506  0.00  0.00    -0.229 NA
ATOM      9  N   UNL     1      -8.469 -10.523  18.570  0.00  0.00    -0.258 N 
ATOM     10  C   UNL     1     -13.922  -8.519  16.799  0.00  0.00    -0.019 C 
ATOM     11  C   UNL     1     -14.341  -8.786  18.312  0.00  0.00    +0.011 C 
ATOM     12  C   UNL     1     -15.882  -8.757  18.644  0.00  0.00    +0.021 C 
ATOM     13  C   UNL     1     -12.365  -8.160  16.774  0.00  0.00    +0.054 C 
ATOM     14  C   UNL     1     -14.712  -7.303  16.252  0.00  0.00    +0.010 C 
ATOM     15  C   UNL     1     -16.525  -7.505  17.984  0.00  0.00    +0.123 C 
ATOM     16  C   UNL     1     -13.595 -10.019  18.900  0.00  0.00    +0.049 C 
ATOM     17  C   UNL     1     -16.213  -7.381  16.497  0.00  0.00    +0.032 C 
ATOM     18  C   UNL     1     -14.184  -9.737  15.879  0.00  0.00    +0.012 C 
ATOM     19  C   UNL     1     -11.572  -9.127  17.615  0.00  0.00    +0.058 A 
ATOM     21  C   UNL     1     -16.067  -8.617  20.181  0.00  0.00    +0.016 C 
ATOM     22  C   UNL     1     -12.142  -9.939  18.575  0.00  0.00    +0.015 A 
ATOM     25  C   UNL     1      -9.762 -10.120  18.364  0.00  0.00    +0.165 A 
ATOM     31  C   UNL     1      -7.313 -10.059  17.904  0.00  0.00    +0.285 C 
ATOM     38  H   UNL     1      -8.352 -11.240  19.282  0.00  0.00    +0.157 HD
ENDROOT
BRANCH  31  32
ATOM      6  O   UNL     1      -5.104 -10.781  17.374  0.00  0.00    -0.458 OA
ATOM     32  C   UNL     1      -6.056 -10.714  18.309  0.00  0.00    +0.189 A 
ATOM     33  C   UNL     1      -5.709 -11.262  19.485  0.00  0.00    +0.054 A 
ATOM     34  C   UNL     1      -4.390 -11.731  19.282  0.00  0.00    +0.042 A 
ATOM     35  C   UNL     1      -4.067 -11.415  17.983  0.00  0.00    +0.196 A 
ENDBRANCH  31  32
BRANCH  15   2
ATOM      2  O   UNL     1     -17.942  -7.517  18.157  0.00  0.00    -0.391 OA
ATOM     36  H   UNL     1     -18.129  -7.555  19.109  0.00  0.00    +0.210 HD
ENDBRANCH  15   2
BRANCH  12  20
ATOM     20  C   UNL     1     -16.646 -10.041  18.249  0.00  0.00    +0.165 C 
BRANCH  20   3
ATOM      3  O   UNL     1     -17.654 -10.256  19.211  0.00  0.00    -0.394 OA
ATOM     37  H   UNL     1     -17.303  -9.995  20.079  0.00  0.00    +0.209 HD
ENDBRANCH  20   3
ENDBRANCH  12  20
BRANCH  13  23
ATOM     23  C   UNL     1     -11.766  -8.017  15.369  0.00  0.00    +0.106 C 
BRANCH  23  24
ATOM      4  O   UNL     1     -11.029  -5.795  15.737  0.00  0.00    -0.276 OA
ATOM      8  N   UNL     1     -12.310  -6.160  13.833  0.00  0.00    -0.301 N 
ATOM     24  C   UNL     1     -11.663  -6.557  15.004  0.00  0.00    +0.216 C 
ATOM     26  C   UNL     1     -12.258  -4.758  13.412  0.00  0.00    +0.108 C 
ATOM     27  C   UNL     1     -13.033  -7.051  12.917  0.00  0.00    +0.108 C 
ATOM     28  C   UNL     1     -13.661  -4.205  13.181  0.00  0.00    +0.019 C 
ATOM     29  C   UNL     1     -14.452  -6.541  12.675  0.00  0.00    +0.019 C 
ATOM     30  C   UNL     1     -14.449  -5.085  12.211  0.00  0.00    +0.003 C 
ENDBRANCH  23  24
ENDBRANCH  13  23
TORSDOF 6
ENDMDL
MODEL 3
REMARK VINA RESULT:      -6.3     21.852     24.011
REMARK  Name = 11883082
REMARK  8 active torsions:
REMARK  status: ('A' for Active; 'I' for Inactive)
REMARK    1  A    between atoms: O_2  and  C_15
REMARK    2  A    between atoms: O_3  and  C_20
REMARK    3  A    between atoms: C_10  and  C_18
REMARK    4  A    between atoms: C_12  and  C_20
REMARK    5  A    between atoms: C_12  and  C_21
REMARK    6  A    between atoms: C_13  and  C_23
REMARK    7  A    between atoms: C_23  and  C_24
REMARK    8  A    between atoms: C_31  and  C_32
REMARK                            x       y       z     vdW  Elec       q    Type
REMARK                         _______ _______ _______ _____ _____    ______ ____
ROOT
ATOM      1  S   UNL     1     -10.371  -8.585  17.116  0.00  0.00    -0.057 S 
ATOM      5  O   UNL     1     -11.582  -7.841  12.717  0.00  0.00    -0.266 OA
ATOM      7  N   UNL     1      -9.773  -9.072  14.646  0.00  0.00    -0.229 NA
ATOM      9  N   UNL     1     -11.707  -7.690  15.044  0.00  0.00    -0.258 N 
ATOM     10  C   UNL     1      -6.572 -10.817  15.900  0.00  0.00    -0.019 C 
ATOM     11  C   UNL     1      -7.263 -11.282  17.258  0.00  0.00    +0.011 C 
ATOM     12  C   UNL     1      -6.345 -12.001  18.320  0.00  0.00    +0.021 C 
ATOM     13  C   UNL     1      -7.726 -10.534  14.831  0.00  0.00    +0.054 C 
ATOM     14  C   UNL     1      -5.676 -11.962  15.360  0.00  0.00    +0.010 C 
ATOM     15  C   UNL     1      -5.484 -13.081  17.605  0.00  0.00    +0.123 C 
ATOM     16  C   UNL     1      -8.152 -10.155  17.858  0.00  0.00    +0.049 C 
ATOM     17  C   UNL     1      -4.725 -12.543  16.397  0.00  0.00    +0.032 C 
ATOM     18  C   UNL     1      -5.706  -9.546  16.072  0.00  0.00    +0.012 C 
ATOM     19  C   UNL     1      -8.832  -9.707  15.435  0.00  0.00    +0.058 A 
ATOM     21  C   UNL     1      -7.244 -12.735  19.353  0.00  0.00    +0.016 C 
ATOM     22  C   UNL     1      -9.016  -9.565  16.795  0.00  0.00    +0.015 A 
ATOM     25  C   UNL     1     -10.629  -8.444  15.424  0.00  0.00    +0.165 A 
ATOM     31  C   UNL     1     -12.139  -7.418  13.727  0.00  0.00    +0.285 C 
ATOM     38  H   UNL     1     -12.237  -7.283  15.811  0.00  0.00    +0.157 HD
ENDROOT
BRANCH  31  32
ATOM      6  O   UNL     1     -13.051  -5.242  13.386  0.00  0.00    -0.458 OA
ATOM     32  C   UNL     1     -13.312  -6.530  13.626  0.00  0.00    +0.189 A 
ATOM     33  C   UNL     1     -14.619  -6.814  13.737  0.00  0.00    +0.054 A 
ATOM     34  C   UNL     1     -15.269  -5.571  13.548  0.00  0.00    +0.042 A 
ATOM     35  C   UNL     1     -14.273  -4.647  13.339  0.00  0.00    +0.196 A 
ENDBRANCH  31  32
BRANCH  15   2
ATOM      2  O   UNL     1      -4.549 -13.661  18.513  0.00  0.00    -0.391 OA
ATOM     36  H   UNL     1      -4.385 -14.577  18.234  0.00  0.00    +0.210 HD
ENDBRANCH  15   2
BRANCH  12  20
ATOM     20  C   UNL     1      -5.454 -11.047  19.147  0.00  0.00    +0.165 C 
BRANCH  20   3
ATOM      3  O   UNL     1      -5.957 -11.021  20.464  0.00  0.00    -0.394 OA
ATOM     37  H   UNL     1      -5.827 -10.126  20.818  0.00  0.00    +0.209 HD
ENDBRANCH  20   3
ENDBRANCH  12  20
BRANCH  13  23
ATOM     23  C   UNL     1      -7.235  -9.935  13.507  0.00  0.00    +0.106 C 
BRANCH  23  24
ATOM      4  O   UNL     1      -7.750 -11.885  12.264  0.00  0.00    -0.276 OA
ATOM      8  N   UNL     1      -5.603 -11.034  12.015  0.00  0.00    -0.301 N 
ATOM     24  C   UNL     1      -6.894 -11.041  12.541  0.00  0.00    +0.216 C 
ATOM     26  C   UNL     1      -5.194 -12.077  11.071  0.00  0.00    +0.108 C 
ATOM     27  C   UNL     1      -4.578 -10.019  12.290  0.00  0.00    +0.108 C 
ATOM     28  C   UNL     1      -3.918 -12.769  11.541  0.00  0.00    +0.019 C 
ATOM     29  C   UNL     1      -3.288 -10.672  12.782  0.00  0.00    +0.019 C 
ATOM     30  C   UNL     1      -2.809 -11.755  11.817  0.00  0.00    +0.003 C 
ENDBRANCH  23  24
ENDBRANCH  13  23
TORSDOF 6
ENDMDL
MODEL 4
REMARK VINA RESULT:      -6.3     17.465     20.777
REMARK  Name = 11883082
REMARK  8 active torsions:
REMARK  status: ('A' for Active; 'I' for Inactive)
REMARK    1  A    between atoms: O_2  and  C_15
REMARK    2  A    between atoms: O_3  and  C_20
REMARK    3  A    between atoms: C_10  and  C_18
REMARK    4  A    between atoms: C_12  and  C_20
REMARK    5  A    between atoms: C_12  and  C_21
REMARK    6  A    between atoms: C_13  and  C_23
REMARK    7  A    between atoms: C_23  and  C_24
REMARK    8  A    between atoms: C_31  and  C_32
REMARK                            x       y       z     vdW  Elec       q    Type
REMARK                         _______ _______ _______ _____ _____    ______ ____
ROOT
ATOM      1  S   UNL     1     -12.788 -12.586  20.360  0.00  0.00    -0.057 S 
ATOM      5  O   UNL     1     -10.059 -14.796  23.367  0.00  0.00    -0.266 OA
ATOM      7  N   UNL     1     -10.338 -13.030  21.062  0.00  0.00    -0.229 NA
ATOM      9  N   UNL     1     -12.054 -14.107  22.367  0.00  0.00    -0.258 N 
ATOM     10  C   UNL     1      -9.224 -11.074  17.931  0.00  0.00    -0.019 C 
ATOM     11  C   UNL     1     -10.508 -10.132  17.966  0.00  0.00    +0.011 C 
ATOM     12  C   UNL     1     -10.686  -9.118  16.771  0.00  0.00    +0.021 C 
ATOM     13  C   UNL     1      -9.013 -11.675  19.397  0.00  0.00    +0.054 C 
ATOM     14  C   UNL     1      -7.976 -10.230  17.564  0.00  0.00    +0.010 C 
ATOM     15  C   UNL     1      -9.334  -8.395  16.508  0.00  0.00    +0.123 C 
ATOM     16  C   UNL     1     -11.796 -10.939  18.301  0.00  0.00    +0.049 C 
ATOM     17  C   UNL     1      -8.163  -9.355  16.333  0.00  0.00    +0.032 C 
ATOM     18  C   UNL     1      -9.357 -12.233  16.914  0.00  0.00    +0.012 C 
ATOM     19  C   UNL     1     -10.311 -12.192  19.963  0.00  0.00    +0.058 A 
ATOM     21  C   UNL     1     -11.720  -8.032  17.177  0.00  0.00    +0.016 C 
ATOM     22  C   UNL     1     -11.548 -11.834  19.467  0.00  0.00    +0.015 A 
ATOM     25  C   UNL     1     -11.589 -13.308  21.356  0.00  0.00    +0.165 A 
ATOM     31  C   UNL     1     -11.286 -14.812  23.320  0.00  0.00    +0.285 C 
ATOM     38  H   UNL     1     -13.066 -14.194  22.413  0.00  0.00    +0.157 HD
ENDROOT
BRANCH  31  32
ATOM      6  O   UNL     1     -13.214 -16.131  23.798  0.00  0.00    -0.458 OA
ATOM     32  C   UNL     1     -12.065 -15.633  24.264  0.00  0.00    +0.189 A 
ATOM     33  C   UNL     1     -11.801 -15.966  25.538  0.00  0.00    +0.054 A 
ATOM     34  C   UNL     1     -12.900 -16.765  25.931  0.00  0.00    +0.042 A 
ATOM     35  C   UNL     1     -13.732 -16.836  24.838  0.00  0.00    +0.196 A 
ENDBRANCH  31  32
BRANCH  15   2
ATOM      2  O   UNL     1      -9.426  -7.566  15.350  0.00  0.00    -0.391 OA
ATOM     36  H   UNL     1     -10.354  -7.547  15.065  0.00  0.00    +0.210 HD
ENDBRANCH  15   2
BRANCH  12  20
ATOM     20  C   UNL     1     -11.234  -9.749  15.472  0.00  0.00    +0.165 C 
BRANCH  20   3
ATOM      3  O   UNL     1     -11.997  -8.769  14.805  0.00  0.00    -0.394 OA
ATOM     37  H   UNL     1     -11.398  -8.253  14.241  0.00  0.00    +0.209 HD
ENDBRANCH  20   3
ENDBRANCH  12  20
BRANCH  13  23
ATOM     23  C   UNL     1      -7.897 -12.723  19.502  0.00  0.00    +0.106 C 
BRANCH  23  24
ATOM      4  O   UNL     1      -6.356 -11.259  20.549  0.00  0.00    -0.276 OA
ATOM      8  N   UNL     1      -5.621 -12.333  18.625  0.00  0.00    -0.301 N 
ATOM     24  C   UNL     1      -6.560 -12.036  19.613  0.00  0.00    +0.216 C 
ATOM     26  C   UNL     1      -4.299 -11.704  18.663  0.00  0.00    +0.108 C 
ATOM     27  C   UNL     1      -5.818 -13.286  17.526  0.00  0.00    +0.108 C 
ATOM     28  C   UNL     1      -3.986 -11.013  17.339  0.00  0.00    +0.019 C 
ATOM     29  C   UNL     1      -5.532 -12.626  16.179  0.00  0.00    +0.019 C 
ATOM     30  C   UNL     1      -4.150 -11.972  16.161  0.00  0.00    +0.003 C 
ENDBRANCH  23  24
ENDBRANCH  13  23
TORSDOF 6
ENDMDL
MODEL 5
REMARK VINA RESULT:      -6.3     22.739     24.969
REMARK  Name = 11883082
REMARK  8 active torsions:
REMARK  status: ('A' for Active; 'I' for Inactive)
REMARK    1  A    between atoms: O_2  and  C_15
REMARK    2  A    between atoms: O_3  and  C_20
REMARK    3  A    between atoms: C_10  and  C_18
REMARK    4  A    between atoms: C_12  and  C_20
REMARK    5  A    between atoms: C_12  and  C_21
REMARK    6  A    between atoms: C_13  and  C_23
REMARK    7  A    between atoms: C_23  and  C_24
REMARK    8  A    between atoms: C_31  and  C_32
REMARK                            x       y       z     vdW  Elec       q    Type
REMARK                         _______ _______ _______ _____ _____    ______ ____
ROOT
ATOM      1  S   UNL     1      -5.576 -10.953  12.581  0.00  0.00    -0.057 S 
ATOM      5  O   UNL     1      -8.729  -8.422  10.340  0.00  0.00    -0.266 OA
ATOM      7  N   UNL     1      -7.739  -9.557  12.838  0.00  0.00    -0.229 NA
ATOM      9  N   UNL     1      -6.827  -9.748  10.616  0.00  0.00    -0.258 N 
ATOM     10  C   UNL     1      -7.858 -10.662  16.531  0.00  0.00    -0.019 C 
ATOM     11  C   UNL     1      -6.271 -10.758  16.635  0.00  0.00    +0.011 C 
ATOM     12  C   UNL     1      -5.675 -11.317  17.984  0.00  0.00    +0.021 C 
ATOM     13  C   UNL     1      -8.214  -9.691  15.312  0.00  0.00    +0.054 C 
ATOM     14  C   UNL     1      -8.423 -10.038  17.833  0.00  0.00    +0.010 C 
ATOM     15  C   UNL     1      -6.382 -10.622  19.182  0.00  0.00    +0.123 C 
ATOM     16  C   UNL     1      -5.657 -11.407  15.361  0.00  0.00    +0.049 C 
ATOM     17  C   UNL     1      -7.903 -10.692  19.106  0.00  0.00    +0.032 C 
ATOM     18  C   UNL     1      -8.530 -12.038  16.306  0.00  0.00    +0.012 C 
ATOM     19  C   UNL     1      -7.399 -10.032  14.091  0.00  0.00    +0.058 A 
ATOM     21  C   UNL     1      -4.166 -10.951  18.061  0.00  0.00    +0.016 C 
ATOM     22  C   UNL     1      -6.245 -10.788  14.139  0.00  0.00    +0.015 A 
ATOM     25  C   UNL     1      -6.853  -9.984  11.965  0.00  0.00    +0.165 A 
ATOM     31  C   UNL     1      -7.749  -8.989   9.863  0.00  0.00    +0.285 C 
ATOM     38  H   UNL     1      -6.052 -10.182  10.120  0.00  0.00    +0.157 HD
ENDROOT
BRANCH  31  32
ATOM      6  O   UNL     1      -8.267  -8.131   7.700  0.00  0.00    -0.458 OA
ATOM     32  C   UNL     1      -7.488  -8.948   8.412  0.00  0.00    +0.189 A 
ATOM     33  C   UNL     1      -6.577  -9.613   7.683  0.00  0.00    +0.054 A 
ATOM     34  C   UNL     1      -6.797  -9.172   6.356  0.00  0.00    +0.042 A 
ATOM     35  C   UNL     1      -7.835  -8.272   6.419  0.00  0.00    +0.196 A 
ENDBRANCH  31  32
BRANCH  15   2
ATOM      2  O   UNL     1      -5.958 -11.198  20.417  0.00  0.00    -0.391 OA
ATOM     36  H   UNL     1      -4.989 -11.142  20.459  0.00  0.00    +0.210 HD
ENDBRANCH  15   2
BRANCH  12  20
ATOM     20  C   UNL     1      -5.738 -12.854  18.124  0.00  0.00    +0.165 C 
BRANCH  20   3
ATOM      3  O   UNL     1      -4.482 -13.296  18.589  0.00  0.00    -0.394 OA
ATOM     37  H   UNL     1      -4.206 -12.710  19.313  0.00  0.00    +0.209 HD
ENDBRANCH  20   3
ENDBRANCH  12  20
BRANCH  13  23
ATOM     23  C   UNL     1      -9.710  -9.603  14.982  0.00  0.00    +0.106 C 
BRANCH  23  24
ATOM      4  O   UNL     1      -9.663  -7.520  16.109  0.00  0.00    -0.276 OA
ATOM      8  N   UNL     1     -11.283  -7.771  14.464  0.00  0.00    -0.301 N 
ATOM     24  C   UNL     1     -10.210  -8.205  15.241  0.00  0.00    +0.216 C 
ATOM     26  C   UNL     1     -11.827  -6.425  14.657  0.00  0.00    +0.108 C 
ATOM     27  C   UNL     1     -11.925  -8.546  13.394  0.00  0.00    +0.108 C 
ATOM     28  C   UNL     1     -13.331  -6.475  14.909  0.00  0.00    +0.019 C 
ATOM     29  C   UNL     1     -13.433  -8.636  13.621  0.00  0.00    +0.019 C 
ATOM     30  C   UNL     1     -14.051  -7.251  13.807  0.00  0.00    +0.003 C 
ENDBRANCH  23  24
ENDBRANCH  13  23
TORSDOF 6
ENDMDL
MODEL 6
REMARK VINA RESULT:      -6.1     22.286     24.559
REMARK  Name = 11883082
REMARK  8 active torsions:
REMARK  status: ('A' for Active; 'I' for Inactive)
REMARK    1  A    between atoms: O_2  and  C_15
REMARK    2  A    between atoms: O_3  and  C_20
REMARK    3  A    between atoms: C_10  and  C_18
REMARK    4  A    between atoms: C_12  and  C_20
REMARK    5  A    between atoms: C_12  and  C_21
REMARK    6  A    between atoms: C_13  and  C_23
REMARK    7  A    between atoms: C_23  and  C_24
REMARK    8  A    between atoms: C_31  and  C_32
REMARK                            x       y       z     vdW  Elec       q    Type
REMARK                         _______ _______ _______ _____ _____    ______ ____
ROOT
ATOM      1  S   UNL     1      -5.012 -11.244  12.603  0.00  0.00    -0.057 S 
ATOM      5  O   UNL     1      -8.114  -8.883  10.118  0.00  0.00    -0.266 OA
ATOM      7  N   UNL     1      -7.224  -9.905  12.701  0.00  0.00    -0.229 NA
ATOM      9  N   UNL     1      -6.192 -10.142  10.536  0.00  0.00    -0.258 N 
ATOM     10  C   UNL     1      -7.505 -10.891  16.418  0.00  0.00    -0.019 C 
ATOM     11  C   UNL     1      -5.924 -10.937  16.606  0.00  0.00    +0.011 C 
ATOM     12  C   UNL     1      -5.384 -11.433  18.003  0.00  0.00    +0.021 C 
ATOM     13  C   UNL     1      -7.824  -9.972  15.150  0.00  0.00    +0.054 C 
ATOM     14  C   UNL     1      -8.154 -10.243  17.667  0.00  0.00    +0.010 C 
ATOM     15  C   UNL     1      -6.171 -10.721  19.139  0.00  0.00    +0.123 C 
ATOM     16  C   UNL     1      -5.225 -11.609  15.389  0.00  0.00    +0.049 C 
ATOM     17  C   UNL     1      -7.684 -10.838  18.987  0.00  0.00    +0.032 C 
ATOM     18  C   UNL     1      -8.126 -12.293  16.206  0.00  0.00    +0.012 C 
ATOM     19  C   UNL     1      -6.937 -10.328  13.985  0.00  0.00    +0.058 A 
ATOM     21  C   UNL     1      -3.892 -11.020  18.144  0.00  0.00    +0.016 C 
ATOM     22  C   UNL     1      -5.766 -11.048  14.117  0.00  0.00    +0.015 A 
ATOM     25  C   UNL     1      -6.282 -10.335  11.889  0.00  0.00    +0.165 A 
ATOM     31  C   UNL     1      -7.095  -9.436   9.711  0.00  0.00    +0.285 C 
ATOM     38  H   UNL     1      -5.381 -10.569  10.095  0.00  0.00    +0.157 HD
ENDROOT
BRANCH  31  32
ATOM      6  O   UNL     1      -7.704  -8.971   7.453  0.00  0.00    -0.458 OA
ATOM     32  C   UNL     1      -6.759  -9.436   8.275  0.00  0.00    +0.189 A 
ATOM     33  C   UNL     1      -5.638  -9.834   7.653  0.00  0.00    +0.054 A 
ATOM     34  C   UNL     1      -5.892  -9.598   6.281  0.00  0.00    +0.042 A 
ATOM     35  C   UNL     1      -7.161  -9.074   6.211  0.00  0.00    +0.196 A 
ENDBRANCH  31  32
BRANCH  15   2
ATOM      2  O   UNL     1      -5.796 -11.243  20.413  0.00  0.00    -0.391 OA
ATOM     36  H   UNL     1      -4.838 -11.401  20.404  0.00  0.00    +0.210 HD
ENDBRANCH  15   2
BRANCH  12  20
ATOM     20  C   UNL     1      -5.410 -12.966  18.192  0.00  0.00    +0.165 C 
BRANCH  20   3
ATOM      3  O   UNL     1      -4.220 -13.340  18.850  0.00  0.00    -0.394 OA
ATOM     37  H   UNL     1      -4.022 -12.666  19.521  0.00  0.00    +0.209 HD
ENDBRANCH  20   3
ENDBRANCH  12  20
BRANCH  13  23
ATOM     23  C   UNL     1      -9.302  -9.940  14.741  0.00  0.00    +0.106 C 
BRANCH  23  24
ATOM      4  O   UNL     1      -9.741  -7.864  15.795  0.00  0.00    -0.276 OA
ATOM      8  N   UNL     1     -11.134  -9.632  16.369  0.00  0.00    -0.301 N 
ATOM     24  C   UNL     1     -10.073  -9.046  15.679  0.00  0.00    +0.216 C 
ATOM     26  C   UNL     1     -11.930  -8.830  17.300  0.00  0.00    +0.108 C 
ATOM     27  C   UNL     1     -11.581 -11.022  16.218  0.00  0.00    +0.108 C 
ATOM     28  C   UNL     1     -11.989  -9.487  18.676  0.00  0.00    +0.019 C 
ATOM     29  C   UNL     1     -11.635 -11.724  17.574  0.00  0.00    +0.019 C 
ATOM     30  C   UNL     1     -12.475 -10.933  18.577  0.00  0.00    +0.003 C 
ENDBRANCH  23  24
ENDBRANCH  13  23
TORSDOF 6
ENDMDL
MODEL 7
REMARK VINA RESULT:      -6.0     19.311     21.881
REMARK  Name = 11883082
REMARK  8 active torsions:
REMARK  status: ('A' for Active; 'I' for Inactive)
REMARK    1  A    between atoms: O_2  and  C_15
REMARK    2  A    between atoms: O_3  and  C_20
REMARK    3  A    between atoms: C_10  and  C_18
REMARK    4  A    between atoms: C_12  and  C_20
REMARK    5  A    between atoms: C_12  and  C_21
REMARK    6  A    between atoms: C_13  and  C_23
REMARK    7  A    between atoms: C_23  and  C_24
REMARK    8  A    between atoms: C_31  and  C_32
REMARK                            x       y       z     vdW  Elec       q    Type
REMARK                         _______ _______ _______ _____ _____    ______ ____
ROOT
ATOM      1  S   UNL     1     -13.887  -9.016  16.873  0.00  0.00    -0.057 S 
ATOM      5  O   UNL     1     -10.890  -6.374  14.547  0.00  0.00    -0.266 OA
ATOM      7  N   UNL     1     -11.383  -8.587  16.382  0.00  0.00    -0.229 NA
ATOM      9  N   UNL     1     -12.968  -7.137  15.291  0.00  0.00    -0.258 N 
ATOM     10  C   UNL     1     -10.540 -11.260  19.031  0.00  0.00    -0.019 C 
ATOM     11  C   UNL     1     -11.871 -12.085  18.736  0.00  0.00    +0.011 C 
ATOM     12  C   UNL     1     -12.164 -13.325  19.665  0.00  0.00    +0.021 C 
ATOM     13  C   UNL     1     -10.222 -10.362  17.747  0.00  0.00    +0.054 C 
ATOM     14  C   UNL     1      -9.361 -12.243  19.245  0.00  0.00    +0.010 C 
ATOM     15  C   UNL     1     -10.870 -14.175  19.809  0.00  0.00    +0.123 C 
ATOM     16  C   UNL     1     -13.093 -11.141  18.544  0.00  0.00    +0.049 C 
ATOM     17  C   UNL     1      -9.658 -13.357  20.239  0.00  0.00    +0.032 C 
ATOM     18  C   UNL     1     -10.661 -10.350  20.278  0.00  0.00    +0.012 C 
ATOM     19  C   UNL     1     -11.459  -9.649  17.264  0.00  0.00    +0.058 A 
ATOM     21  C   UNL     1     -13.235 -14.224  18.986  0.00  0.00    +0.016 C 
ATOM     22  C   UNL     1     -12.738 -10.027  17.620  0.00  0.00    +0.015 A 
ATOM     25  C   UNL     1     -12.601  -8.170  16.112  0.00  0.00    +0.165 A 
ATOM     31  C   UNL     1     -12.116  -6.289  14.550  0.00  0.00    +0.285 C 
ATOM     38  H   UNL     1     -13.971  -6.976  15.227  0.00  0.00    +0.157 HD
ENDROOT
BRANCH  31  32
ATOM      6  O   UNL     1     -14.132  -5.211  13.875  0.00  0.00    -0.458 OA
ATOM     32  C   UNL     1     -12.800  -5.229  13.787  0.00  0.00    +0.189 A 
ATOM     33  C   UNL     1     -12.288  -4.265  13.004  0.00  0.00    +0.054 A 
ATOM     34  C   UNL     1     -13.418  -3.549  12.541  0.00  0.00    +0.042 A 
ATOM     35  C   UNL     1     -14.515  -4.163  13.098  0.00  0.00    +0.196 A 
ENDBRANCH  31  32
BRANCH  15   2
ATOM      2  O   UNL     1     -11.066 -15.234  20.746  0.00  0.00    -0.391 OA
ATOM     36  H   UNL     1     -10.334 -15.209  21.385  0.00  0.00    +0.210 HD
ENDBRANCH  15   2
BRANCH  12  20
ATOM     20  C   UNL     1     -12.743 -12.965  21.051  0.00  0.00    +0.165 C 
BRANCH  20   3
ATOM      3  O   UNL     1     -13.616 -14.003  21.437  0.00  0.00    -0.394 OA
ATOM     37  H   UNL     1     -13.086 -14.704  21.851  0.00  0.00    +0.209 HD
ENDBRANCH  20   3
ENDBRANCH  12  20
BRANCH  13  23
ATOM     23  C   UNL     1      -9.046  -9.392  17.923  0.00  0.00    +0.106 C 
BRANCH  23  24
ATOM      4  O   UNL     1      -8.014  -9.926  15.859  0.00  0.00    -0.276 OA
ATOM      8  N   UNL     1      -6.701 -10.149  17.762  0.00  0.00    -0.301 N 
ATOM     24  C   UNL     1      -7.880  -9.845  17.082  0.00  0.00    +0.216 C 
ATOM     26  C   UNL     1      -5.524 -10.597  17.015  0.00  0.00    +0.108 C 
ATOM     27  C   UNL     1      -6.497 -10.019  19.210  0.00  0.00    +0.108 C 
ATOM     28  C   UNL     1      -4.998 -11.919  17.566  0.00  0.00    +0.019 C 
ATOM     29  C   UNL     1      -5.988 -11.330  19.805  0.00  0.00    +0.019 C 
ATOM     30  C   UNL     1      -4.744 -11.829  19.071  0.00  0.00    +0.003 C 
ENDBRANCH  23  24
ENDBRANCH  13  23
TORSDOF 6
ENDMDL
MODEL 8
REMARK VINA RESULT:      -6.0     12.723     15.942
REMARK  Name = 11883082
REMARK  8 active torsions:
REMARK  status: ('A' for Active; 'I' for Inactive)
REMARK    1  A    between atoms: O_2  and  C_15
REMARK    2  A    between atoms: O_3  and  C_20
REMARK    3  A    between atoms: C_10  and  C_18
REMARK    4  A    between atoms: C_12  and  C_20
REMARK    5  A    between atoms: C_12  and  C_21
REMARK    6  A    between atoms: C_13  and  C_23
REMARK    7  A    between atoms: C_23  and  C_24
REMARK    8  A    between atoms: C_31  and  C_32
REMARK                            x       y       z     vdW  Elec       q    Type
REMARK                         _______ _______ _______ _____ _____    ______ ____
ROOT
ATOM      1  S   UNL     1       4.986  -7.101  38.843  0.00  0.00    -0.057 S 
ATOM      5  O   UNL     1       8.008  -4.380  36.644  0.00  0.00    -0.266 OA
ATOM      7  N   UNL     1       6.402  -6.814  36.696  0.00  0.00    -0.229 NA
ATOM      9  N   UNL     1       6.579  -5.076  38.355  0.00  0.00    -0.258 N 
ATOM     10  C   UNL     1       5.260 -10.339  35.629  0.00  0.00    -0.019 C 
ATOM     11  C   UNL     1       3.859 -10.196  36.373  0.00  0.00    +0.011 C 
ATOM     12  C   UNL     1       2.924 -11.466  36.389  0.00  0.00    +0.021 C 
ATOM     13  C   UNL     1       5.824  -8.870  35.352  0.00  0.00    +0.054 C 
ATOM     14  C   UNL     1       5.049 -11.046  34.265  0.00  0.00    +0.010 C 
ATOM     15  C   UNL     1       2.862 -12.075  34.960  0.00  0.00    +0.123 C 
ATOM     16  C   UNL     1       4.021  -9.518  37.764  0.00  0.00    +0.049 C 
ATOM     17  C   UNL     1       4.238 -12.331  34.354  0.00  0.00    +0.032 C 
ATOM     18  C   UNL     1       6.297 -11.143  36.450  0.00  0.00    +0.012 C 
ATOM     19  C   UNL     1       5.709  -8.005  36.582  0.00  0.00    +0.058 A 
ATOM     21  C   UNL     1       1.482 -11.029  36.769  0.00  0.00    +0.016 C 
ATOM     22  C   UNL     1       4.880  -8.306  37.644  0.00  0.00    +0.015 A 
ATOM     25  C   UNL     1       6.104  -6.256  37.849  0.00  0.00    +0.165 A 
ATOM     31  C   UNL     1       7.499  -4.193  37.746  0.00  0.00    +0.285 C 
ATOM     38  H   UNL     1       6.223  -4.829  39.276  0.00  0.00    +0.157 HD
ENDROOT
BRANCH  31  32
ATOM      6  O   UNL     1       6.912  -2.547  39.367  0.00  0.00    -0.458 OA
ATOM     32  C   UNL     1       7.863  -3.015  38.555  0.00  0.00    +0.189 A 
ATOM     33  C   UNL     1       9.016  -2.328  38.605  0.00  0.00    +0.054 A 
ATOM     34  C   UNL     1       8.777  -1.307  39.556  0.00  0.00    +0.042 A 
ATOM     35  C   UNL     1       7.484  -1.482  39.989  0.00  0.00    +0.196 A 
ENDBRANCH  31  32
BRANCH  15   2
ATOM      2  O   UNL     1       2.129 -13.299  34.966  0.00  0.00    -0.391 OA
ATOM     36  H   UNL     1       2.646 -13.963  34.481  0.00  0.00    +0.210 HD
ENDBRANCH  15   2
BRANCH  12  20
ATOM     20  C   UNL     1       3.320 -12.540  37.427  0.00  0.00    +0.165 C 
BRANCH  20   3
ATOM      3  O   UNL     1       2.138 -13.006  38.038  0.00  0.00    -0.394 OA
ATOM     37  H   UNL     1       1.397 -12.829  37.434  0.00  0.00    +0.209 HD
ENDBRANCH  20   3
ENDBRANCH  12  20
BRANCH  13  23
ATOM     23  C   UNL     1       7.242  -8.830  34.769  0.00  0.00    +0.106 C 
BRANCH  23  24
ATOM      4  O   UNL     1       6.766  -7.175  33.142  0.00  0.00    -0.276 OA
ATOM      8  N   UNL     1       7.661  -9.170  32.358  0.00  0.00    -0.301 N 
ATOM     24  C   UNL     1       7.198  -8.310  33.354  0.00  0.00    +0.216 C 
ATOM     26  C   UNL     1       7.649  -8.739  30.959  0.00  0.00    +0.108 C 
ATOM     27  C   UNL     1       8.223 -10.508  32.585  0.00  0.00    +0.108 C 
ATOM     28  C   UNL     1       6.909  -9.746  30.084  0.00  0.00    +0.019 C 
ATOM     29  C   UNL     1       7.495 -11.551  31.739  0.00  0.00    +0.019 C 
ATOM     30  C   UNL     1       7.475 -11.155  30.262  0.00  0.00    +0.003 C 
ENDBRANCH  23  24
ENDBRANCH  13  23
TORSDOF 6
ENDMDL
MODEL 9
REMARK VINA RESULT:      -5.9     19.590     21.848
REMARK  Name = 11883082
REMARK  8 active torsions:
REMARK  status: ('A' for Active; 'I' for Inactive)
REMARK    1  A    between atoms: O_2  and  C_15
REMARK    2  A    between atoms: O_3  and  C_20
REMARK    3  A    between atoms: C_10  and  C_18
REMARK    4  A    between atoms: C_12  and  C_20
REMARK    5  A    between atoms: C_12  and  C_21
REMARK    6  A    between atoms: C_13  and  C_23
REMARK    7  A    between atoms: C_23  and  C_24
REMARK    8  A    between atoms: C_31  and  C_32
REMARK                            x       y       z     vdW  Elec       q    Type
REMARK                         _______ _______ _______ _____ _____    ______ ____
ROOT
ATOM      1  S   UNL     1      -9.101  -9.180  14.222  0.00  0.00    -0.057 S 
ATOM      5  O   UNL     1     -13.255  -8.720  16.198  0.00  0.00    -0.266 OA
ATOM      7  N   UNL     1     -10.494  -9.647  16.352  0.00  0.00    -0.229 NA
ATOM      9  N   UNL     1     -11.622  -8.530  14.539  0.00  0.00    -0.258 N 
ATOM     10  C   UNL     1      -7.482 -11.621  17.730  0.00  0.00    -0.019 C 
ATOM     11  C   UNL     1      -6.429 -10.709  16.956  0.00  0.00    +0.011 C 
ATOM     12  C   UNL     1      -4.913 -11.133  17.046  0.00  0.00    +0.021 C 
ATOM     13  C   UNL     1      -8.841 -10.792  17.875  0.00  0.00    +0.054 C 
ATOM     14  C   UNL     1      -6.946 -11.933  19.151  0.00  0.00    +0.010 C 
ATOM     15  C   UNL     1      -4.557 -11.453  18.526  0.00  0.00    +0.123 C 
ATOM     16  C   UNL     1      -6.908 -10.392  15.510  0.00  0.00    +0.049 C 
ATOM     17  C   UNL     1      -5.514 -12.449  19.172  0.00  0.00    +0.032 C 
ATOM     18  C   UNL     1      -7.769 -12.957  17.003  0.00  0.00    +0.012 C 
ATOM     19  C   UNL     1      -9.222 -10.145  16.568  0.00  0.00    +0.058 A 
ATOM     21  C   UNL     1      -4.026  -9.935  16.606  0.00  0.00    +0.016 C 
ATOM     22  C   UNL     1      -8.335  -9.960  15.527  0.00  0.00    +0.015 A 
ATOM     25  C   UNL     1     -10.547  -9.122  15.147  0.00  0.00    +0.165 A 
ATOM     31  C   UNL     1     -12.917  -8.353  15.075  0.00  0.00    +0.285 C 
ATOM     38  H   UNL     1     -11.449  -8.194  13.595  0.00  0.00    +0.157 HD
ENDROOT
BRANCH  31  32
ATOM      6  O   UNL     1     -14.023  -6.396  14.282  0.00  0.00    -0.458 OA
ATOM     32  C   UNL     1     -13.888  -7.719  14.165  0.00  0.00    +0.189 A 
ATOM     33  C   UNL     1     -14.670  -8.270  13.222  0.00  0.00    +0.054 A 
ATOM     34  C   UNL     1     -15.385  -7.178  12.674  0.00  0.00    +0.042 A 
ATOM     35  C   UNL     1     -14.957  -6.061  13.353  0.00  0.00    +0.196 A 
ENDBRANCH  31  32
BRANCH  15   2
ATOM      2  O   UNL     1      -3.228 -11.964  18.624  0.00  0.00    -0.391 OA
ATOM     36  H   UNL     1      -2.739 -11.412  19.256  0.00  0.00    +0.210 HD
ENDBRANCH  15   2
BRANCH  12  20
ATOM     20  C   UNL     1      -4.518 -12.304  16.119  0.00  0.00    +0.165 C 
BRANCH  20   3
ATOM      3  O   UNL     1      -3.158 -12.149  15.783  0.00  0.00    -0.394 OA
ATOM     37  H   UNL     1      -2.625 -12.532  16.500  0.00  0.00    +0.209 HD
ENDBRANCH  20   3
ENDBRANCH  12  20
BRANCH  13  23
ATOM     23  C   UNL     1     -10.010 -11.585  18.472  0.00  0.00    +0.106 C 
BRANCH  23  24
ATOM      4  O   UNL     1      -9.868 -10.337  20.482  0.00  0.00    -0.276 OA
ATOM      8  N   UNL     1     -12.002 -10.704  19.639  0.00  0.00    -0.301 N 
ATOM     24  C   UNL     1     -10.611 -10.818  19.623  0.00  0.00    +0.216 C 
ATOM     26  C   UNL     1     -12.661  -9.976  20.725  0.00  0.00    +0.108 C 
ATOM     27  C   UNL     1     -12.909 -11.226  18.609  0.00  0.00    +0.108 C 
ATOM     28  C   UNL     1     -13.729 -10.839  21.390  0.00  0.00    +0.019 C 
ATOM     29  C   UNL     1     -13.984 -12.113  19.234  0.00  0.00    +0.019 C 
ATOM     30  C   UNL     1     -14.718 -11.387  20.361  0.00  0.00    +0.003 C 
ENDBRANCH  23  24
ENDBRANCH  13  23
TORSDOF 6
ENDMDL
MODEL 10
REMARK VINA RESULT:      -5.9     26.609     28.723
REMARK  Name = 11883082
REMARK  8 active torsions:
REMARK  status: ('A' for Active; 'I' for Inactive)
REMARK    1  A    between atoms: O_2  and  C_15
REMARK    2  A    between atoms: O_3  and  C_20
REMARK    3  A    between atoms: C_10  and  C_18
REMARK    4  A    between atoms: C_12  and  C_20
REMARK    5  A    between atoms: C_12  and  C_21
REMARK    6  A    between atoms: C_13  and  C_23
REMARK    7  A    between atoms: C_23  and  C_24
REMARK    8  A    between atoms: C_31  and  C_32
REMARK                            x       y       z     vdW  Elec       q    Type
REMARK                         _______ _______ _______ _____ _____    ______ ____
ROOT
ATOM      1  S   UNL     1      -4.035 -12.483  11.913  0.00  0.00    -0.057 S 
ATOM      5  O   UNL     1      -6.525  -9.924  14.849  0.00  0.00    -0.266 OA
ATOM      7  N   UNL     1      -5.940 -10.745  12.112  0.00  0.00    -0.229 NA
ATOM      9  N   UNL     1      -4.901 -11.458  14.166  0.00  0.00    -0.258 N 
ATOM     10  C   UNL     1      -6.002 -10.565   8.261  0.00  0.00    -0.019 C 
ATOM     11  C   UNL     1      -5.546 -12.083   8.104  0.00  0.00    +0.011 C 
ATOM     12  C   UNL     1      -5.266 -12.599   6.640  0.00  0.00    +0.021 C 
ATOM     13  C   UNL     1      -6.641 -10.389   9.715  0.00  0.00    +0.054 C 
ATOM     14  C   UNL     1      -7.091 -10.243   7.206  0.00  0.00    +0.010 C 
ATOM     15  C   UNL     1      -6.426 -12.151   5.708  0.00  0.00    +0.123 C 
ATOM     16  C   UNL     1      -4.429 -12.449   9.124  0.00  0.00    +0.049 C 
ATOM     17  C   UNL     1      -6.721 -10.657   5.789  0.00  0.00    +0.032 C 
ATOM     18  C   UNL     1      -4.832  -9.566   8.089  0.00  0.00    +0.012 C 
ATOM     19  C   UNL     1      -5.774 -11.028  10.769  0.00  0.00    +0.058 A 
ATOM     21  C   UNL     1      -5.249 -14.153   6.645  0.00  0.00    +0.016 C 
ATOM     22  C   UNL     1      -4.799 -11.963  10.483  0.00  0.00    +0.015 A 
ATOM     25  C   UNL     1      -5.074 -11.449  12.807  0.00  0.00    +0.165 A 
ATOM     31  C   UNL     1      -5.619 -10.708  15.124  0.00  0.00    +0.285 C 
ATOM     38  H   UNL     1      -4.165 -12.074  14.501  0.00  0.00    +0.157 HD
ENDROOT
BRANCH  31  32
ATOM      6  O   UNL     1      -5.976 -10.377  17.457  0.00  0.00    -0.458 OA
ATOM     32  C   UNL     1      -5.177 -10.890  16.518  0.00  0.00    +0.189 A 
ATOM     33  C   UNL     1      -4.082 -11.499  17.002  0.00  0.00    +0.054 A 
ATOM     34  C   UNL     1      -4.193 -11.362  18.406  0.00  0.00    +0.042 A 
ATOM     35  C   UNL     1      -5.360 -10.672  18.633  0.00  0.00    +0.196 A 
ENDBRANCH  31  32
BRANCH  15   2
ATOM      2  O   UNL     1      -6.141 -12.490   4.351  0.00  0.00    -0.391 OA
ATOM     36  H   UNL     1      -5.688 -13.350   4.345  0.00  0.00    +0.210 HD
ENDBRANCH  15   2
BRANCH  12  20
ATOM     20  C   UNL     1      -3.898 -12.171   6.061  0.00  0.00    +0.165 C 
BRANCH  20   3
ATOM      3  O   UNL     1      -3.427 -13.222   5.248  0.00  0.00    -0.394 OA
ATOM     37  H   UNL     1      -3.498 -14.049   5.753  0.00  0.00    +0.209 HD
ENDBRANCH  20   3
ENDBRANCH  12  20
BRANCH  13  23
ATOM     23  C   UNL     1      -7.001  -8.944  10.083  0.00  0.00    +0.106 C 
BRANCH  23  24
ATOM      4  O   UNL     1      -9.204  -9.490  10.765  0.00  0.00    -0.276 OA
ATOM      8  N   UNL     1      -8.996  -7.776   9.212  0.00  0.00    -0.301 N 
ATOM     24  C   UNL     1      -8.498  -8.768  10.057  0.00  0.00    +0.216 C 
ATOM     26  C   UNL     1     -10.439  -7.545   9.129  0.00  0.00    +0.108 C 
ATOM     27  C   UNL     1      -8.180  -6.871   8.392  0.00  0.00    +0.108 C 
ATOM     28  C   UNL     1     -10.921  -7.610   7.683  0.00  0.00    +0.019 C 
ATOM     29  C   UNL     1      -8.619  -6.922   6.930  0.00  0.00    +0.019 C 
ATOM     30  C   UNL     1     -10.119  -6.664   6.790  0.00  0.00    +0.003 C 
ENDBRANCH  23  24
ENDBRANCH  13  23
TORSDOF 6
ENDMDL
