MODEL 1
REMARK VINA RESULT:      -6.2      0.000      0.000
REMARK  Name = 40779319
REMARK  8 active torsions:
REMARK  status: ('A' for Active; 'I' for Inactive)
REMARK    1  A    between atoms: O_3  and  C_22
REMARK    2  A    between atoms: O_3  and  C_26
REMARK    3  A    between atoms: N_5  and  C_19
REMARK    4  A    between atoms: N_6  and  C_16
REMARK    5  A    between atoms: C_9  and  C_15
REMARK    6  A    between atoms: C_10  and  C_16
REMARK    7  A    between atoms: C_18  and  C_21
REMARK    8  A    between atoms: C_20  and  C_22
REMARK                            x       y       z     vdW  Elec       q    Type
REMARK                         _______ _______ _______ _____ _____    ______ ____
ROOT
ATOM      4  N   UNL     1      -6.157 -10.381  17.841  0.00  0.00    -0.297 NA
ATOM      8  C   UNL     1      -4.587 -12.259  16.950  0.00  0.00    +0.002 C 
ATOM      9  C   UNL     1      -4.095 -10.865  16.469  0.00  0.00    +0.055 C 
ATOM     10  C   UNL     1      -6.961 -11.457  17.203  0.00  0.00    +0.074 C 
ATOM     11  C   UNL     1      -6.044 -12.473  16.489  0.00  0.00    +0.024 C 
ATOM     12  C   UNL     1      -4.601 -12.218  18.493  0.00  0.00    +0.019 C 
ATOM     13  C   UNL     1      -5.185  -9.828  16.865  0.00  0.00    +0.094 C 
ATOM     14  C   UNL     1      -5.396 -10.986  18.961  0.00  0.00    +0.085 C 
ENDROOT
BRANCH   9  15
ATOM      5  N   UNL     1      -2.353 -10.620  14.641  0.00  0.00    -0.270 N 
ATOM      7  N   UNL     1      -2.179 -10.495  13.313  0.00  0.00    -0.168 NA
ATOM     15  C   UNL     1      -3.660 -10.719  15.018  0.00  0.00    +0.044 A 
ATOM     17  C   UNL     1      -4.391 -10.654  13.858  0.00  0.00    +0.056 A 
ATOM     18  C   UNL     1      -3.427 -10.517  12.840  0.00  0.00    +0.128 A 
ATOM     19  C   UNL     1      -1.195 -10.638  15.505  0.00  0.00    +0.172 C 
BRANCH  18  21
ATOM      1  O   UNL     1      -3.934 -11.468  10.579  0.00  0.00    -0.461 OA
ATOM     21  C   UNL     1      -3.713 -10.407  11.399  0.00  0.00    +0.155 A 
ATOM     23  C   UNL     1      -3.793  -9.228  10.696  0.00  0.00    +0.051 A 
ATOM     24  C   UNL     1      -4.083  -9.586   9.358  0.00  0.00    +0.042 A 
ATOM     25  C   UNL     1      -4.158 -10.960   9.338  0.00  0.00    +0.196 A 
ENDBRANCH  18  21
ENDBRANCH   9  15
BRANCH  10  16
ATOM     16  C   UNL     1      -8.037 -10.903  16.266  0.00  0.00    +0.123 C 
BRANCH  16   6
ATOM      2  O   UNL     1      -9.419  -8.754  14.911  0.00  0.00    -0.273 OA
ATOM      6  N   UNL     1      -8.719  -9.800  16.869  0.00  0.00    -0.312 N 
ATOM     20  C   UNL     1      -9.362  -8.803  16.137  0.00  0.00    +0.239 C 
ATOM     27  H   UNL     1      -8.699  -9.727  17.883  0.00  0.00    +0.149 HD
BRANCH  20  22
ATOM     22  C   UNL     1     -10.002  -7.761  17.030  0.00  0.00    +0.255 C 
BRANCH  22   3
ATOM      3  O   UNL     1     -11.284  -7.413  16.549  0.00  0.00    -0.374 OA
ATOM     26  C   UNL     1     -11.352  -6.043  16.167  0.00  0.00    +0.194 C 
ENDBRANCH  22   3
ENDBRANCH  20  22
ENDBRANCH  16   6
ENDBRANCH  10  16
TORSDOF 6
ENDMDL
MODEL 2
REMARK VINA RESULT:      -6.0      1.761      7.322
REMARK  Name = 40779319
REMARK  8 active torsions:
REMARK  status: ('A' for Active; 'I' for Inactive)
REMARK    1  A    between atoms: O_3  and  C_22
REMARK    2  A    between atoms: O_3  and  C_26
REMARK    3  A    between atoms: N_5  and  C_19
REMARK    4  A    between atoms: N_6  and  C_16
REMARK    5  A    between atoms: C_9  and  C_15
REMARK    6  A    between atoms: C_10  and  C_16
REMARK    7  A    between atoms: C_18  and  C_21
REMARK    8  A    between atoms: C_20  and  C_22
REMARK                            x       y       z     vdW  Elec       q    Type
REMARK                         _______ _______ _______ _____ _____    ______ ____
ROOT
ATOM      4  N   UNL     1      -5.308 -12.690  17.050  0.00  0.00    -0.297 NA
ATOM      8  C   UNL     1      -5.585 -10.666  18.665  0.00  0.00    +0.002 C 
ATOM      9  C   UNL     1      -6.956 -11.355  18.417  0.00  0.00    +0.055 C 
ATOM     10  C   UNL     1      -4.650 -11.487  16.475  0.00  0.00    +0.074 C 
ATOM     11  C   UNL     1      -4.979 -10.234  17.313  0.00  0.00    +0.024 C 
ATOM     12  C   UNL     1      -4.648 -11.740  19.259  0.00  0.00    +0.019 C 
ATOM     13  C   UNL     1      -6.745 -12.414  17.298  0.00  0.00    +0.094 C 
ATOM     14  C   UNL     1      -4.662 -12.983  18.352  0.00  0.00    +0.085 C 
ENDROOT
BRANCH   9  15
ATOM      5  N   UNL     1      -9.342 -10.602  18.835  0.00  0.00    -0.270 N 
ATOM      7  N   UNL     1     -10.290  -9.727  18.454  0.00  0.00    -0.168 NA
ATOM     15  C   UNL     1      -8.167 -10.472  18.155  0.00  0.00    +0.044 A 
ATOM     17  C   UNL     1      -8.359  -9.442  17.267  0.00  0.00    +0.056 A 
ATOM     18  C   UNL     1      -9.683  -9.021  17.496  0.00  0.00    +0.128 A 
ATOM     19  C   UNL     1      -9.641 -11.552  19.881  0.00  0.00    +0.172 C 
BRANCH  18  21
ATOM      1  O   UNL     1      -9.745  -7.024  15.985  0.00  0.00    -0.461 OA
ATOM     21  C   UNL     1     -10.369  -7.928  16.786  0.00  0.00    +0.155 A 
ATOM     23  C   UNL     1     -11.721  -7.678  16.836  0.00  0.00    +0.051 A 
ATOM     24  C   UNL     1     -11.942  -6.547  16.013  0.00  0.00    +0.042 A 
ATOM     25  C   UNL     1     -10.710  -6.187  15.520  0.00  0.00    +0.196 A 
ENDBRANCH  18  21
ENDBRANCH   9  15
BRANCH  10  16
ATOM     16  C   UNL     1      -4.989 -11.289  14.996  0.00  0.00    +0.123 C 
BRANCH  16   6
ATOM      2  O   UNL     1      -2.695 -12.479  13.696  0.00  0.00    -0.273 OA
ATOM      6  N   UNL     1      -3.930 -10.607  14.317  0.00  0.00    -0.312 N 
ATOM     20  C   UNL     1      -2.857 -11.262  13.716  0.00  0.00    +0.239 C 
ATOM     27  H   UNL     1      -3.950  -9.591  14.309  0.00  0.00    +0.149 HD
BRANCH  20  22
ATOM     22  C   UNL     1      -1.887 -10.296  13.070  0.00  0.00    +0.255 C 
BRANCH  22   3
ATOM      3  O   UNL     1      -1.763 -10.563  11.689  0.00  0.00    -0.374 OA
ATOM     26  C   UNL     1      -2.798  -9.941  10.934  0.00  0.00    +0.194 C 
ENDBRANCH  22   3
ENDBRANCH  20  22
ENDBRANCH  16   6
ENDBRANCH  10  16
TORSDOF 6
ENDMDL
MODEL 3
REMARK VINA RESULT:      -5.8     24.618     26.564
REMARK  Name = 40779319
REMARK  8 active torsions:
REMARK  status: ('A' for Active; 'I' for Inactive)
REMARK    1  A    between atoms: O_3  and  C_22
REMARK    2  A    between atoms: O_3  and  C_26
REMARK    3  A    between atoms: N_5  and  C_19
REMARK    4  A    between atoms: N_6  and  C_16
REMARK    5  A    between atoms: C_9  and  C_15
REMARK    6  A    between atoms: C_10  and  C_16
REMARK    7  A    between atoms: C_18  and  C_21
REMARK    8  A    between atoms: C_20  and  C_22
REMARK                            x       y       z     vdW  Elec       q    Type
REMARK                         _______ _______ _______ _____ _____    ______ ____
ROOT
ATOM      4  N   UNL     1      10.482   5.865   6.299  0.00  0.00    -0.297 NA
ATOM      8  C   UNL     1      11.105   8.335   5.761  0.00  0.00    +0.002 C 
ATOM      9  C   UNL     1       9.595   8.219   6.112  0.00  0.00    +0.055 C 
ATOM     10  C   UNL     1      11.230   5.933   5.017  0.00  0.00    +0.074 C 
ATOM     11  C   UNL     1      11.427   7.399   4.578  0.00  0.00    +0.024 C 
ATOM     12  C   UNL     1      11.887   7.808   6.983  0.00  0.00    +0.019 C 
ATOM     13  C   UNL     1       9.260   6.704   6.220  0.00  0.00    +0.094 C 
ATOM     14  C   UNL     1      11.354   6.416   7.365  0.00  0.00    +0.085 C 
ENDROOT
BRANCH   9  15
ATOM      5  N   UNL     1       8.356  10.307   5.374  0.00  0.00    -0.270 N 
ATOM      7  N   UNL     1       7.437  10.780   4.514  0.00  0.00    -0.168 NA
ATOM     15  C   UNL     1       8.596   8.970   5.244  0.00  0.00    +0.044 A 
ATOM     17  C   UNL     1       7.777   8.539   4.230  0.00  0.00    +0.056 A 
ATOM     18  C   UNL     1       7.087   9.695   3.817  0.00  0.00    +0.128 A 
ATOM     19  C   UNL     1       8.977  11.214   6.311  0.00  0.00    +0.172 C 
BRANCH  18  21
ATOM      1  O   UNL     1       4.750   9.928   2.946  0.00  0.00    -0.461 OA
ATOM     21  C   UNL     1       6.082   9.756   2.741  0.00  0.00    +0.155 A 
ATOM     23  C   UNL     1       6.355   9.646   1.397  0.00  0.00    +0.051 A 
ATOM     24  C   UNL     1       5.110   9.759   0.733  0.00  0.00    +0.042 A 
ATOM     25  C   UNL     1       4.166   9.930   1.719  0.00  0.00    +0.196 A 
ENDBRANCH  18  21
ENDBRANCH   9  15
BRANCH  10  16
ATOM     16  C   UNL     1      10.580   5.091   3.917  0.00  0.00    +0.123 C 
BRANCH  16   6
ATOM      2  O   UNL     1      10.079   3.813   1.371  0.00  0.00    -0.273 OA
ATOM      6  N   UNL     1      11.553   4.664   2.958  0.00  0.00    -0.312 N 
ATOM     20  C   UNL     1      11.222   4.052   1.750  0.00  0.00    +0.239 C 
ATOM     27  H   UNL     1      12.534   4.782   3.195  0.00  0.00    +0.149 HD
BRANCH  20  22
ATOM     22  C   UNL     1      12.447   3.707   0.931  0.00  0.00    +0.255 C 
BRANCH  22   3
ATOM      3  O   UNL     1      13.358   2.944   1.696  0.00  0.00    -0.374 OA
ATOM     26  C   UNL     1      14.680   3.468   1.623  0.00  0.00    +0.194 C 
ENDBRANCH  22   3
ENDBRANCH  20  22
ENDBRANCH  16   6
ENDBRANCH  10  16
TORSDOF 6
ENDMDL
MODEL 4
REMARK VINA RESULT:      -5.8      3.098      5.124
REMARK  Name = 40779319
REMARK  8 active torsions:
REMARK  status: ('A' for Active; 'I' for Inactive)
REMARK    1  A    between atoms: O_3  and  C_22
REMARK    2  A    between atoms: O_3  and  C_26
REMARK    3  A    between atoms: N_5  and  C_19
REMARK    4  A    between atoms: N_6  and  C_16
REMARK    5  A    between atoms: C_9  and  C_15
REMARK    6  A    between atoms: C_10  and  C_16
REMARK    7  A    between atoms: C_18  and  C_21
REMARK    8  A    between atoms: C_20  and  C_22
REMARK                            x       y       z     vdW  Elec       q    Type
REMARK                         _______ _______ _______ _____ _____    ______ ____
ROOT
ATOM      4  N   UNL     1      -7.463 -12.146  17.455  0.00  0.00    -0.297 NA
ATOM      8  C   UNL     1      -6.966  -9.647  16.914  0.00  0.00    +0.002 C 
ATOM      9  C   UNL     1      -7.642 -10.342  15.700  0.00  0.00    +0.055 C 
ATOM     10  C   UNL     1      -6.051 -11.823  17.793  0.00  0.00    +0.074 C 
ATOM     11  C   UNL     1      -5.680 -10.412  17.290  0.00  0.00    +0.024 C 
ATOM     12  C   UNL     1      -7.940  -9.785  18.105  0.00  0.00    +0.019 C 
ATOM     13  C   UNL     1      -7.720 -11.862  16.021  0.00  0.00    +0.094 C 
ATOM     14  C   UNL     1      -8.337 -11.263  18.266  0.00  0.00    +0.085 C 
ENDROOT
BRANCH   9  15
ATOM      5  N   UNL     1      -7.861  -9.819  13.227  0.00  0.00    -0.270 N 
ATOM      7  N   UNL     1      -7.168  -9.611  12.093  0.00  0.00    -0.168 NA
ATOM     15  C   UNL     1      -7.076 -10.075  14.313  0.00  0.00    +0.044 A 
ATOM     17  C   UNL     1      -5.781 -10.031  13.858  0.00  0.00    +0.056 A 
ATOM     18  C   UNL     1      -5.898  -9.741  12.485  0.00  0.00    +0.128 A 
ATOM     19  C   UNL     1      -9.303  -9.755  13.193  0.00  0.00    +0.172 C 
BRANCH  18  21
ATOM      1  O   UNL     1      -3.511 -10.027  11.780  0.00  0.00    -0.461 OA
ATOM     21  C   UNL     1      -4.775  -9.587  11.543  0.00  0.00    +0.155 A 
ATOM     23  C   UNL     1      -4.855  -8.984  10.310  0.00  0.00    +0.051 A 
ATOM     24  C   UNL     1      -3.556  -9.058   9.752  0.00  0.00    +0.042 A 
ATOM     25  C   UNL     1      -2.776  -9.701  10.684  0.00  0.00    +0.196 A 
ENDBRANCH  18  21
ENDBRANCH   9  15
BRANCH  10  16
ATOM     16  C   UNL     1      -5.073 -12.885  17.286  0.00  0.00    +0.123 C 
BRANCH  16   6
ATOM      2  O   UNL     1      -4.271 -13.314  14.540  0.00  0.00    -0.273 OA
ATOM      6  N   UNL     1      -3.971 -12.280  16.603  0.00  0.00    -0.312 N 
ATOM     20  C   UNL     1      -3.654 -12.545  15.272  0.00  0.00    +0.239 C 
ATOM     27  H   UNL     1      -3.372 -11.654  17.134  0.00  0.00    +0.149 HD
BRANCH  20  22
ATOM     22  C   UNL     1      -2.442 -11.767  14.808  0.00  0.00    +0.255 C 
BRANCH  22   3
ATOM      3  O   UNL     1      -1.824 -11.112  15.897  0.00  0.00    -0.374 OA
ATOM     26  C   UNL     1      -1.051  -9.994  15.474  0.00  0.00    +0.194 C 
ENDBRANCH  22   3
ENDBRANCH  20  22
ENDBRANCH  16   6
ENDBRANCH  10  16
TORSDOF 6
ENDMDL
MODEL 5
REMARK VINA RESULT:      -5.7     24.273     26.564
REMARK  Name = 40779319
REMARK  8 active torsions:
REMARK  status: ('A' for Active; 'I' for Inactive)
REMARK    1  A    between atoms: O_3  and  C_22
REMARK    2  A    between atoms: O_3  and  C_26
REMARK    3  A    between atoms: N_5  and  C_19
REMARK    4  A    between atoms: N_6  and  C_16
REMARK    5  A    between atoms: C_9  and  C_15
REMARK    6  A    between atoms: C_10  and  C_16
REMARK    7  A    between atoms: C_18  and  C_21
REMARK    8  A    between atoms: C_20  and  C_22
REMARK                            x       y       z     vdW  Elec       q    Type
REMARK                         _______ _______ _______ _____ _____    ______ ____
ROOT
ATOM      4  N   UNL     1      10.394   5.997   7.657  0.00  0.00    -0.297 NA
ATOM      8  C   UNL     1       9.535   7.653   5.839  0.00  0.00    +0.002 C 
ATOM      9  C   UNL     1       9.453   6.189   5.324  0.00  0.00    +0.055 C 
ATOM     10  C   UNL     1      11.378   7.095   7.463  0.00  0.00    +0.074 C 
ATOM     11  C   UNL     1      10.989   7.967   6.251  0.00  0.00    +0.024 C 
ATOM     12  C   UNL     1       8.675   7.723   7.120  0.00  0.00    +0.019 C 
ATOM     13  C   UNL     1      10.164   5.288   6.373  0.00  0.00    +0.094 C 
ATOM     14  C   UNL     1       9.111   6.606   8.085  0.00  0.00    +0.085 C 
ENDROOT
BRANCH   9  15
ATOM      5  N   UNL     1       9.536   6.648   2.829  0.00  0.00    -0.270 N 
ATOM      7  N   UNL     1      10.056   6.228   1.663  0.00  0.00    -0.168 NA
ATOM     15  C   UNL     1       9.919   5.900   3.904  0.00  0.00    +0.044 A 
ATOM     17  C   UNL     1      10.747   4.924   3.406  0.00  0.00    +0.056 A 
ATOM     18  C   UNL     1      10.796   5.175   2.022  0.00  0.00    +0.128 A 
ATOM     19  C   UNL     1       8.662   7.798   2.838  0.00  0.00    +0.172 C 
BRANCH  18  21
ATOM      1  O   UNL     1      11.120   4.092  -0.214  0.00  0.00    -0.461 OA
ATOM     21  C   UNL     1      11.562   4.393   1.035  0.00  0.00    +0.155 A 
ATOM     23  C   UNL     1      12.816   3.869   1.244  0.00  0.00    +0.051 A 
ATOM     24  C   UNL     1      13.168   3.202   0.047  0.00  0.00    +0.042 A 
ATOM     25  C   UNL     1      12.103   3.366  -0.809  0.00  0.00    +0.196 A 
ENDBRANCH  18  21
ENDBRANCH   9  15
BRANCH  10  16
ATOM     16  C   UNL     1      12.814   6.578   7.355  0.00  0.00    +0.123 C 
BRANCH  16   6
ATOM      2  O   UNL     1      15.358   7.715   6.579  0.00  0.00    -0.273 OA
ATOM      6  N   UNL     1      13.317   6.741   6.026  0.00  0.00    -0.312 N 
ATOM     20  C   UNL     1      14.561   7.303   5.741  0.00  0.00    +0.239 C 
ATOM     27  H   UNL     1      12.716   6.466   5.255  0.00  0.00    +0.149 HD
BRANCH  20  22
ATOM     22  C   UNL     1      14.837   7.352   4.253  0.00  0.00    +0.255 C 
BRANCH  22   3
ATOM      3  O   UNL     1      13.697   6.952   3.522  0.00  0.00    -0.374 OA
ATOM     26  C   UNL     1      13.655   7.556   2.233  0.00  0.00    +0.194 C 
ENDBRANCH  22   3
ENDBRANCH  20  22
ENDBRANCH  16   6
ENDBRANCH  10  16
TORSDOF 6
ENDMDL
MODEL 6
REMARK VINA RESULT:      -5.7      3.836      7.590
REMARK  Name = 40779319
REMARK  8 active torsions:
REMARK  status: ('A' for Active; 'I' for Inactive)
REMARK    1  A    between atoms: O_3  and  C_22
REMARK    2  A    between atoms: O_3  and  C_26
REMARK    3  A    between atoms: N_5  and  C_19
REMARK    4  A    between atoms: N_6  and  C_16
REMARK    5  A    between atoms: C_9  and  C_15
REMARK    6  A    between atoms: C_10  and  C_16
REMARK    7  A    between atoms: C_18  and  C_21
REMARK    8  A    between atoms: C_20  and  C_22
REMARK                            x       y       z     vdW  Elec       q    Type
REMARK                         _______ _______ _______ _____ _____    ______ ____
ROOT
ATOM      4  N   UNL     1      -5.944 -11.908  17.079  0.00  0.00    -0.297 NA
ATOM      8  C   UNL     1      -6.353 -11.213  19.555  0.00  0.00    +0.002 C 
ATOM      9  C   UNL     1      -7.378 -12.297  19.118  0.00  0.00    +0.055 C 
ATOM     10  C   UNL     1      -6.008 -10.427  17.188  0.00  0.00    +0.074 C 
ATOM     11  C   UNL     1      -6.453 -10.003  18.603  0.00  0.00    +0.024 C 
ATOM     12  C   UNL     1      -4.949 -11.825  19.364  0.00  0.00    +0.019 C 
ATOM     13  C   UNL     1      -7.202 -12.509  17.587  0.00  0.00    +0.094 C 
ATOM     14  C   UNL     1      -4.827 -12.379  17.933  0.00  0.00    +0.085 C 
ENDROOT
BRANCH   9  15
ATOM      5  N   UNL     1      -9.523 -13.005  20.273  0.00  0.00    -0.270 N 
ATOM      7  N   UNL     1     -10.800 -12.654  20.506  0.00  0.00    -0.168 NA
ATOM     15  C   UNL     1      -8.836 -12.106  19.511  0.00  0.00    +0.044 A 
ATOM     17  C   UNL     1      -9.724 -11.098  19.226  0.00  0.00    +0.056 A 
ATOM     18  C   UNL     1     -10.917 -11.488  19.865  0.00  0.00    +0.128 A 
ATOM     19  C   UNL     1      -9.020 -14.242  20.824  0.00  0.00    +0.172 C 
BRANCH  18  21
ATOM      1  O   UNL     1     -13.032 -10.672  18.801  0.00  0.00    -0.461 OA
ATOM     21  C   UNL     1     -12.180 -10.729  19.858  0.00  0.00    +0.155 A 
ATOM     23  C   UNL     1     -12.661  -9.985  20.910  0.00  0.00    +0.051 A 
ATOM     24  C   UNL     1     -13.889  -9.434  20.471  0.00  0.00    +0.042 A 
ATOM     25  C   UNL     1     -14.070  -9.881  19.183  0.00  0.00    +0.196 A 
ENDBRANCH  18  21
ENDBRANCH   9  15
BRANCH  10  16
ATOM     16  C   UNL     1      -6.885  -9.799  16.102  0.00  0.00    +0.123 C 
BRANCH  16   6
ATOM      2  O   UNL     1      -9.756  -9.783  15.749  0.00  0.00    -0.273 OA
ATOM      6  N   UNL     1      -7.820  -8.878  16.670  0.00  0.00    -0.312 N 
ATOM     20  C   UNL     1      -9.194  -8.943  16.446  0.00  0.00    +0.239 C 
ATOM     27  H   UNL     1      -7.451  -8.117  17.235  0.00  0.00    +0.149 HD
BRANCH  20  22
ATOM     22  C   UNL     1      -9.943  -7.845  17.171  0.00  0.00    +0.255 C 
BRANCH  22   3
ATOM      3  O   UNL     1     -11.119  -7.498  16.470  0.00  0.00    -0.374 OA
ATOM     26  C   UNL     1     -11.158  -6.111  16.153  0.00  0.00    +0.194 C 
ENDBRANCH  22   3
ENDBRANCH  20  22
ENDBRANCH  16   6
ENDBRANCH  10  16
TORSDOF 6
ENDMDL
MODEL 7
REMARK VINA RESULT:      -5.7      2.493      5.112
REMARK  Name = 40779319
REMARK  8 active torsions:
REMARK  status: ('A' for Active; 'I' for Inactive)
REMARK    1  A    between atoms: O_3  and  C_22
REMARK    2  A    between atoms: O_3  and  C_26
REMARK    3  A    between atoms: N_5  and  C_19
REMARK    4  A    between atoms: N_6  and  C_16
REMARK    5  A    between atoms: C_9  and  C_15
REMARK    6  A    between atoms: C_10  and  C_16
REMARK    7  A    between atoms: C_18  and  C_21
REMARK    8  A    between atoms: C_20  and  C_22
REMARK                            x       y       z     vdW  Elec       q    Type
REMARK                         _______ _______ _______ _____ _____    ______ ____
ROOT
ATOM      4  N   UNL     1      -9.807  -8.737  16.818  0.00  0.00    -0.297 NA
ATOM      8  C   UNL     1      -9.004 -11.108  17.538  0.00  0.00    +0.002 C 
ATOM      9  C   UNL     1      -7.941 -10.037  17.912  0.00  0.00    +0.055 C 
ATOM     10  C   UNL     1      -9.945  -9.688  15.684  0.00  0.00    +0.074 C 
ATOM     11  C   UNL     1      -9.285 -11.041  16.023  0.00  0.00    +0.024 C 
ATOM     12  C   UNL     1     -10.310 -10.710  18.260  0.00  0.00    +0.019 C 
ATOM     13  C   UNL     1      -8.395  -8.693  17.275  0.00  0.00    +0.094 C 
ATOM     14  C   UNL     1     -10.640  -9.241  17.937  0.00  0.00    +0.085 C 
ENDROOT
BRANCH   9  15
ATOM      5  N   UNL     1      -5.658 -10.956  18.528  0.00  0.00    -0.270 N 
ATOM      7  N   UNL     1      -4.402 -11.138  18.083  0.00  0.00    -0.168 NA
ATOM     15  C   UNL     1      -6.479 -10.346  17.626  0.00  0.00    +0.044 A 
ATOM     17  C   UNL     1      -5.707 -10.112  16.515  0.00  0.00    +0.056 A 
ATOM     18  C   UNL     1      -4.438 -10.621  16.853  0.00  0.00    +0.128 A 
ATOM     19  C   UNL     1      -6.007 -11.403  19.857  0.00  0.00    +0.172 C 
BRANCH  18  21
ATOM      1  O   UNL     1      -3.295 -10.509  14.627  0.00  0.00    -0.461 OA
ATOM     21  C   UNL     1      -3.250 -10.608  15.981  0.00  0.00    +0.155 A 
ATOM     23  C   UNL     1      -1.949 -10.694  16.418  0.00  0.00    +0.051 A 
ATOM     24  C   UNL     1      -1.141 -10.645  15.256  0.00  0.00    +0.042 A 
ATOM     25  C   UNL     1      -2.007 -10.532  14.193  0.00  0.00    +0.196 A 
ENDBRANCH  18  21
ENDBRANCH   9  15
BRANCH  10  16
ATOM     16  C   UNL     1      -9.415  -9.108  14.370  0.00  0.00    +0.123 C 
BRANCH  16   6
ATOM      2  O   UNL     1      -8.309  -9.590  11.741  0.00  0.00    -0.273 OA
ATOM      6  N   UNL     1      -8.124  -9.642  14.061  0.00  0.00    -0.312 N 
ATOM     20  C   UNL     1      -7.669  -9.843  12.758  0.00  0.00    +0.239 C 
ATOM     27  H   UNL     1      -7.529  -9.922  14.836  0.00  0.00    +0.149 HD
BRANCH  20  22
ATOM     22  C   UNL     1      -6.269 -10.418  12.725  0.00  0.00    +0.255 C 
BRANCH  22   3
ATOM      3  O   UNL     1      -5.759 -10.409  11.408  0.00  0.00    -0.374 OA
ATOM     26  C   UNL     1      -4.686  -9.485  11.261  0.00  0.00    +0.194 C 
ENDBRANCH  22   3
ENDBRANCH  20  22
ENDBRANCH  16   6
ENDBRANCH  10  16
TORSDOF 6
ENDMDL
MODEL 8
REMARK VINA RESULT:      -5.6     23.493     26.699
REMARK  Name = 40779319
REMARK  8 active torsions:
REMARK  status: ('A' for Active; 'I' for Inactive)
REMARK    1  A    between atoms: O_3  and  C_22
REMARK    2  A    between atoms: O_3  and  C_26
REMARK    3  A    between atoms: N_5  and  C_19
REMARK    4  A    between atoms: N_6  and  C_16
REMARK    5  A    between atoms: C_9  and  C_15
REMARK    6  A    between atoms: C_10  and  C_16
REMARK    7  A    between atoms: C_18  and  C_21
REMARK    8  A    between atoms: C_20  and  C_22
REMARK                            x       y       z     vdW  Elec       q    Type
REMARK                         _______ _______ _______ _____ _____    ______ ____
ROOT
ATOM      4  N   UNL     1      10.829   7.764   3.494  0.00  0.00    -0.297 NA
ATOM      8  C   UNL     1       8.421   8.455   4.203  0.00  0.00    +0.002 C 
ATOM      9  C   UNL     1       9.407   9.638   4.406  0.00  0.00    +0.055 C 
ATOM     10  C   UNL     1      10.256   6.743   4.411  0.00  0.00    +0.074 C 
ATOM     11  C   UNL     1       8.918   7.233   5.003  0.00  0.00    +0.024 C 
ATOM     12  C   UNL     1       8.483   8.074   2.708  0.00  0.00    +0.019 C 
ATOM     13  C   UNL     1      10.842   9.092   4.157  0.00  0.00    +0.094 C 
ATOM     14  C   UNL     1       9.950   7.850   2.303  0.00  0.00    +0.085 C 
ENDROOT
BRANCH   9  15
ATOM      5  N   UNL     1       8.635  11.623   5.785  0.00  0.00    -0.270 N 
ATOM      7  N   UNL     1       8.671  12.176   7.011  0.00  0.00    -0.168 NA
ATOM     15  C   UNL     1       9.311  10.441   5.695  0.00  0.00    +0.044 A 
ATOM     17  C   UNL     1       9.824  10.205   6.946  0.00  0.00    +0.056 A 
ATOM     18  C   UNL     1       9.398  11.305   7.716  0.00  0.00    +0.128 A 
ATOM     19  C   UNL     1       7.918  12.297   4.728  0.00  0.00    +0.172 C 
BRANCH  18  21
ATOM      1  O   UNL     1      10.946  11.646   9.655  0.00  0.00    -0.461 OA
ATOM     21  C   UNL     1       9.694  11.518   9.143  0.00  0.00    +0.155 A 
ATOM     23  C   UNL     1       8.752  11.617  10.140  0.00  0.00    +0.051 A 
ATOM     24  C   UNL     1       9.471  11.818  11.342  0.00  0.00    +0.042 A 
ATOM     25  C   UNL     1      10.802  11.828  10.994  0.00  0.00    +0.196 A 
ENDBRANCH  18  21
ENDBRANCH   9  15
BRANCH  10  16
ATOM     16  C   UNL     1      11.242   6.320   5.502  0.00  0.00    +0.123 C 
BRANCH  16   6
ATOM      2  O   UNL     1      10.442   6.600   8.268  0.00  0.00    -0.273 OA
ATOM      6  N   UNL     1      10.671   5.312   6.342  0.00  0.00    -0.312 N 
ATOM     20  C   UNL     1      10.314   5.534   7.671  0.00  0.00    +0.239 C 
ATOM     27  H   UNL     1      10.559   4.380   5.954  0.00  0.00    +0.149 HD
BRANCH  20  22
ATOM     22  C   UNL     1       9.734   4.296   8.321  0.00  0.00    +0.255 C 
BRANCH  22   3
ATOM      3  O   UNL     1       9.998   4.291   9.708  0.00  0.00    -0.374 OA
ATOM     26  C   UNL     1       8.833   4.587  10.471  0.00  0.00    +0.194 C 
ENDBRANCH  22   3
ENDBRANCH  20  22
ENDBRANCH  16   6
ENDBRANCH  10  16
TORSDOF 6
ENDMDL
MODEL 9
REMARK VINA RESULT:      -5.5     19.144     20.904
REMARK  Name = 40779319
REMARK  8 active torsions:
REMARK  status: ('A' for Active; 'I' for Inactive)
REMARK    1  A    between atoms: O_3  and  C_22
REMARK    2  A    between atoms: O_3  and  C_26
REMARK    3  A    between atoms: N_5  and  C_19
REMARK    4  A    between atoms: N_6  and  C_16
REMARK    5  A    between atoms: C_9  and  C_15
REMARK    6  A    between atoms: C_10  and  C_16
REMARK    7  A    between atoms: C_18  and  C_21
REMARK    8  A    between atoms: C_20  and  C_22
REMARK                            x       y       z     vdW  Elec       q    Type
REMARK                         _______ _______ _______ _____ _____    ______ ____
ROOT
ATOM      4  N   UNL     1     -16.903   0.871  27.923  0.00  0.00    -0.297 NA
ATOM      8  C   UNL     1     -18.561   2.496  26.742  0.00  0.00    +0.002 C 
ATOM      9  C   UNL     1     -17.686   1.754  25.693  0.00  0.00    +0.055 C 
ATOM     10  C   UNL     1     -16.828   2.218  28.548  0.00  0.00    +0.074 C 
ATOM     11  C   UNL     1     -17.645   3.243  27.734  0.00  0.00    +0.024 C 
ATOM     12  C   UNL     1     -19.308   1.410  27.545  0.00  0.00    +0.019 C 
ATOM     13  C   UNL     1     -16.596   0.966  26.474  0.00  0.00    +0.094 C 
ATOM     14  C   UNL     1     -18.294   0.379  28.070  0.00  0.00    +0.085 C 
ENDROOT
BRANCH   9  15
ATOM      5  N   UNL     1     -17.500   2.412  23.249  0.00  0.00    -0.270 N 
ATOM      7  N   UNL     1     -16.859   3.220  22.386  0.00  0.00    -0.168 NA
ATOM     15  C   UNL     1     -17.100   2.564  24.545  0.00  0.00    +0.044 A 
ATOM     17  C   UNL     1     -16.132   3.537  24.527  0.00  0.00    +0.056 A 
ATOM     18  C   UNL     1     -16.025   3.905  23.172  0.00  0.00    +0.128 A 
ATOM     19  C   UNL     1     -18.505   1.503  22.751  0.00  0.00    +0.172 C 
BRANCH  18  21
ATOM      1  O   UNL     1     -13.971   4.649  21.947  0.00  0.00    -0.461 OA
ATOM     21  C   UNL     1     -15.112   4.927  22.631  0.00  0.00    +0.155 A 
ATOM     23  C   UNL     1     -15.289   6.286  22.744  0.00  0.00    +0.051 A 
ATOM     24  C   UNL     1     -14.187   6.882  22.087  0.00  0.00    +0.042 A 
ATOM     25  C   UNL     1     -13.414   5.845  21.619  0.00  0.00    +0.196 A 
ENDBRANCH  18  21
ENDBRANCH   9  15
BRANCH  10  16
ATOM     16  C   UNL     1     -15.385   2.681  28.763  0.00  0.00    +0.123 C 
BRANCH  16   6
ATOM      2  O   UNL     1     -13.562   0.844  30.054  0.00  0.00    -0.273 OA
ATOM      6  N   UNL     1     -15.037   2.641  30.150  0.00  0.00    -0.312 N 
ATOM     20  C   UNL     1     -14.145   1.716  30.691  0.00  0.00    +0.239 C 
ATOM     27  H   UNL     1     -15.497   3.300  30.773  0.00  0.00    +0.149 HD
BRANCH  20  22
ATOM     22  C   UNL     1     -13.962   1.904  32.182  0.00  0.00    +0.255 C 
BRANCH  22   3
ATOM      3  O   UNL     1     -13.721   3.262  32.486  0.00  0.00    -0.374 OA
ATOM     26  C   UNL     1     -14.488   3.699  33.604  0.00  0.00    +0.194 C 
ENDBRANCH  22   3
ENDBRANCH  20  22
ENDBRANCH  16   6
ENDBRANCH  10  16
TORSDOF 6
ENDMDL
MODEL 10
REMARK VINA RESULT:      -5.5     23.301     26.967
REMARK  Name = 40779319
REMARK  8 active torsions:
REMARK  status: ('A' for Active; 'I' for Inactive)
REMARK    1  A    between atoms: O_3  and  C_22
REMARK    2  A    between atoms: O_3  and  C_26
REMARK    3  A    between atoms: N_5  and  C_19
REMARK    4  A    between atoms: N_6  and  C_16
REMARK    5  A    between atoms: C_9  and  C_15
REMARK    6  A    between atoms: C_10  and  C_16
REMARK    7  A    between atoms: C_18  and  C_21
REMARK    8  A    between atoms: C_20  and  C_22
REMARK                            x       y       z     vdW  Elec       q    Type
REMARK                         _______ _______ _______ _____ _____    ______ ____
ROOT
ATOM      4  N   UNL     1      13.398   5.768   1.641  0.00  0.00    -0.297 NA
ATOM      8  C   UNL     1      12.762   3.408   0.743  0.00  0.00    +0.002 C 
ATOM      9  C   UNL     1      12.705   4.459  -0.401  0.00  0.00    +0.055 C 
ATOM     10  C   UNL     1      12.365   5.152   2.515  0.00  0.00    +0.074 C 
ATOM     11  C   UNL     1      11.827   3.849   1.888  0.00  0.00    +0.024 C 
ATOM     12  C   UNL     1      14.202   3.433   1.298  0.00  0.00    +0.019 C 
ATOM     13  C   UNL     1      12.895   5.860   0.248  0.00  0.00    +0.094 C 
ATOM     14  C   UNL     1      14.587   4.881   1.647  0.00  0.00    +0.085 C 
ENDROOT
BRANCH   9  15
ATOM      5  N   UNL     1      11.252   3.358  -2.167  0.00  0.00    -0.270 N 
ATOM      7  N   UNL     1      10.159   3.522  -2.933  0.00  0.00    -0.168 NA
ATOM     15  C   UNL     1      11.518   4.421  -1.353  0.00  0.00    +0.044 A 
ATOM     17  C   UNL     1      10.531   5.342  -1.604  0.00  0.00    +0.056 A 
ATOM     18  C   UNL     1       9.722   4.735  -2.584  0.00  0.00    +0.128 A 
ATOM     19  C   UNL     1      12.008   2.132  -2.270  0.00  0.00    +0.172 C 
BRANCH  18  21
ATOM      1  O   UNL     1       7.920   4.866  -4.319  0.00  0.00    -0.461 OA
ATOM     21  C   UNL     1       8.518   5.329  -3.189  0.00  0.00    +0.155 A 
ATOM     23  C   UNL     1       7.842   6.422  -2.697  0.00  0.00    +0.051 A 
ATOM     24  C   UNL     1       6.760   6.645  -3.581  0.00  0.00    +0.042 A 
ATOM     25  C   UNL     1       6.851   5.673  -4.550  0.00  0.00    +0.196 A 
ENDBRANCH  18  21
ENDBRANCH   9  15
BRANCH  10  16
ATOM     16  C   UNL     1      11.237   6.127   2.861  0.00  0.00    +0.123 C 
BRANCH  16   6
ATOM      2  O   UNL     1      11.657   6.305   5.718  0.00  0.00    -0.273 OA
ATOM      6  N   UNL     1      10.401   5.594   3.892  0.00  0.00    -0.312 N 
ATOM     20  C   UNL     1      10.679   5.727   5.251  0.00  0.00    +0.239 C 
ATOM     27  H   UNL     1       9.582   5.062   3.609  0.00  0.00    +0.149 HD
BRANCH  20  22
ATOM     22  C   UNL     1       9.626   5.069   6.117  0.00  0.00    +0.255 C 
BRANCH  22   3
ATOM      3  O   UNL     1       9.742   5.501   7.457  0.00  0.00    -0.374 OA
ATOM     26  C   UNL     1       9.818   4.405   8.363  0.00  0.00    +0.194 C 
ENDBRANCH  22   3
ENDBRANCH  20  22
ENDBRANCH  16   6
ENDBRANCH  10  16
TORSDOF 6
ENDMDL
