REMARK  Name = 7663757
REMARK  4 active torsions:
REMARK  status: ('A' for Active; 'I' for Inactive)
REMARK    1  A    between atoms: C_15  and  C_18
REMARK    2  A    between atoms: C_16  and  C_19
REMARK    3  A    between atoms: C_22  and  C_26
REMARK    4  A    between atoms: C_25  and  C_27
REMARK                            x       y       z     vdW  Elec       q    Type
REMARK                         _______ _______ _______ _____ _____    ______ ____
ROOT
ATOM      2  O   UNL     1       0.509  -2.658  -1.340  0.00  0.00    -0.267 OA
ATOM      3  O   UNL     1      -3.378   0.506  -2.604  0.00  0.00    -0.270 OA
ATOM      4  N   UNL     1      -3.885  -0.451  -0.530  0.00  0.00    -0.297 N 
ATOM      5  N   UNL     1      -1.284  -2.167   0.065  0.00  0.00    -0.311 N 
ATOM      6  C   UNL     1      -3.677  -2.930  -0.444  0.00  0.00    +0.027 C 
ATOM      7  C   UNL     1      -3.220  -1.593   1.572  0.00  0.00    +0.054 C 
ATOM      8  C   UNL     1      -3.862  -2.885   1.069  0.00  0.00    +0.018 C 
ATOM      9  C   UNL     1      -4.351  -1.713  -1.104  0.00  0.00    +0.113 C 
ATOM     10  C   UNL     1      -2.177  -2.998  -0.756  0.00  0.00    +0.130 C 
ATOM     11  C   UNL     1      -3.933  -0.381   0.939  0.00  0.00    +0.117 C 
ATOM     12  C   UNL     1      -1.742  -1.550   1.232  0.00  0.00    +0.027 A 
ATOM     13  C   UNL     1      -0.883  -0.893   2.027  0.00  0.00    +0.022 A 
ATOM     14  C   UNL     1       0.069  -2.110  -0.328  0.00  0.00    +0.259 A 
ATOM     15  C   UNL     1      -3.420   0.558  -1.377  0.00  0.00    +0.247 C 
ATOM     16  C   UNL     1       1.002  -1.340   0.568  0.00  0.00    +0.040 A 
ATOM     17  C   UNL     1       0.506  -0.789   1.685  0.00  0.00    +0.015 A 
ENDROOT
BRANCH  15  18
ATOM     18  C   UNL     1      -2.917   1.792  -0.763  0.00  0.00    +0.037 A 
ATOM     20  C   UNL     1      -1.569   1.900  -0.430  0.00  0.00    +0.013 A 
ATOM     21  C   UNL     1      -3.789   2.849  -0.518  0.00  0.00    +0.013 A 
ATOM     23  C   UNL     1      -1.090   3.074   0.152  0.00  0.00    +0.004 A 
ATOM     24  C   UNL     1      -3.309   4.023   0.064  0.00  0.00    +0.004 A 
ATOM     25  C   UNL     1      -1.960   4.135   0.400  0.00  0.00    -0.050 A 
ATOM     27  C   UNL     1      -1.448   5.389   1.023  0.00  0.00    +0.044 C 
ENDBRANCH  15  18
BRANCH  16  19
ATOM     19  C   UNL     1       2.395  -1.219   0.221  0.00  0.00    +0.014 C 
ATOM     22  C   UNL     1       3.139  -0.158   0.560  0.00  0.00    +0.008 C 
BRANCH  22  26
ATOM      1 CL   UNL     1       8.902   0.544  -0.811  0.00  0.00    -0.084 Cl
ATOM     26  C   UNL     1       4.562   0.015   0.221  0.00  0.00    -0.025 A 
ATOM     28  C   UNL     1       5.320  -1.095  -0.115  0.00  0.00    +0.009 A 
ATOM     29  C   UNL     1       5.116   1.285   0.245  0.00  0.00    +0.009 A 
ATOM     30  C   UNL     1       6.668  -0.931  -0.435  0.00  0.00    +0.020 A 
ATOM     31  C   UNL     1       6.463   1.450  -0.075  0.00  0.00    +0.020 A 
ATOM     32  C   UNL     1       7.239   0.342  -0.415  0.00  0.00    +0.041 A 
ENDBRANCH  22  26
ENDBRANCH  16  19
TORSDOF 3
