MODEL 1
REMARK VINA RESULT:      -7.2      0.000      0.000
REMARK  Name = 25390026
REMARK  9 active torsions:
REMARK  status: ('A' for Active; 'I' for Inactive)
REMARK    1  A    between atoms: O_2  and  C_24
REMARK    2  A    between atoms: O_2  and  C_31
REMARK    3  A    between atoms: N_3  and  C_9
REMARK    4  A    between atoms: N_4  and  C_17
REMARK    5  A    between atoms: N_6  and  C_21
REMARK    6  A    between atoms: C_7  and  C_10
REMARK    7  A    between atoms: C_13  and  C_15
REMARK    8  A    between atoms: C_14  and  C_16
REMARK    9  A    between atoms: C_21  and  C_25
REMARK                            x       y       z     vdW  Elec       q    Type
REMARK                         _______ _______ _______ _____ _____    ______ ____
ROOT
ATOM      7  C   UNL     1     -14.569   6.092  22.221  0.00  0.00    +0.047 C 
ATOM      8  C   UNL     1     -15.347   6.647  23.433  0.00  0.00    +0.039 C 
ATOM      9  C   UNL     1     -16.303   5.529  23.865  0.00  0.00    +0.098 C 
ATOM     11  C   UNL     1     -15.472   4.996  21.733  0.00  0.00    -0.021 C 
ATOM     12  C   UNL     1     -16.413   4.691  22.633  0.00  0.00    -0.009 C 
ENDROOT
BRANCH   7  10
ATOM      4  N   UNL     1     -13.221   8.452  19.765  0.00  0.00    -0.236 N 
ATOM      5  N   UNL     1     -14.501   8.857  19.699  0.00  0.00    -0.171 NA
ATOM     10  C   UNL     1     -14.239   7.146  21.189  0.00  0.00    +0.003 A 
ATOM     13  C   UNL     1     -13.012   7.428  20.642  0.00  0.00    +0.046 A 
ATOM     14  C   UNL     1     -15.117   8.055  20.572  0.00  0.00    +0.064 A 
ATOM     15  C   UNL     1     -11.686   6.821  20.878  0.00  0.00    +0.066 C 
ATOM     16  C   UNL     1     -16.569   8.196  20.784  0.00  0.00    +0.068 C 
BRANCH   4  17
ATOM     17  C   UNL     1     -12.257   9.074  18.972  0.00  0.00    +0.066 A 
ATOM     19  C   UNL     1     -11.592  10.207  19.443  0.00  0.00    +0.031 A 
ATOM     20  C   UNL     1     -11.957   8.564  17.708  0.00  0.00    +0.031 A 
ATOM     22  C   UNL     1     -10.627  10.829  18.650  0.00  0.00    +0.048 A 
ATOM     23  C   UNL     1     -10.992   9.186  16.916  0.00  0.00    +0.048 A 
ATOM     24  C   UNL     1     -10.327  10.318  17.387  0.00  0.00    +0.120 A 
BRANCH  24   2
ATOM      2  O   UNL     1      -9.386  10.925  16.613  0.00  0.00    -0.495 OA
ATOM     31  C   UNL     1      -9.360  12.351  16.619  0.00  0.00    +0.277 C 
ENDBRANCH  24   2
ENDBRANCH   4  17
ENDBRANCH   7  10
BRANCH   9   3
ATOM      1  O   UNL     1     -17.797   3.925  25.742  0.00  0.00    -0.253 OA
ATOM      3  N   UNL     1     -15.773   4.727  24.936  0.00  0.00    -0.293 N 
ATOM      6  N   UNL     1     -15.802   3.298  26.744  0.00  0.00    -0.295 N 
ATOM     18  C   UNL     1     -16.570   3.978  25.803  0.00  0.00    +0.300 C 
ATOM     32  H   UNL     1     -14.764   4.640  25.021  0.00  0.00    +0.151 HD
ATOM     33  H   UNL     1     -14.790   3.384  26.704  0.00  0.00    +0.151 HD
BRANCH   6  21
ATOM     21  C   UNL     1     -16.377   2.450  27.761  0.00  0.00    +0.141 C 
BRANCH  21  25
ATOM     25  C   UNL     1     -15.477   2.315  28.955  0.00  0.00    -0.030 A 
ATOM     26  C   UNL     1     -14.938   3.453  29.555  0.00  0.00    +0.005 A 
ATOM     27  C   UNL     1     -15.180   1.051  29.465  0.00  0.00    +0.005 A 
ATOM     28  C   UNL     1     -14.101   3.327  30.664  0.00  0.00    +0.000 A 
ATOM     29  C   UNL     1     -14.344   0.925  30.575  0.00  0.00    +0.000 A 
ATOM     30  C   UNL     1     -13.804   2.063  31.174  0.00  0.00    +0.000 A 
ENDBRANCH  21  25
ENDBRANCH   6  21
ENDBRANCH   9   3
TORSDOF 6
ENDMDL
MODEL 2
REMARK VINA RESULT:      -7.1     31.148     34.868
REMARK  Name = 25390026
REMARK  9 active torsions:
REMARK  status: ('A' for Active; 'I' for Inactive)
REMARK    1  A    between atoms: O_2  and  C_24
REMARK    2  A    between atoms: O_2  and  C_31
REMARK    3  A    between atoms: N_3  and  C_9
REMARK    4  A    between atoms: N_4  and  C_17
REMARK    5  A    between atoms: N_6  and  C_21
REMARK    6  A    between atoms: C_7  and  C_10
REMARK    7  A    between atoms: C_13  and  C_15
REMARK    8  A    between atoms: C_14  and  C_16
REMARK    9  A    between atoms: C_21  and  C_25
REMARK                            x       y       z     vdW  Elec       q    Type
REMARK                         _______ _______ _______ _____ _____    ______ ____
ROOT
ATOM      7  C   UNL     1      19.952   6.351  20.735  0.00  0.00    +0.047 C 
ATOM      8  C   UNL     1      21.151   7.254  20.380  0.00  0.00    +0.039 C 
ATOM      9  C   UNL     1      22.327   6.741  21.220  0.00  0.00    +0.098 C 
ATOM     11  C   UNL     1      20.351   5.796  22.072  0.00  0.00    -0.021 C 
ATOM     12  C   UNL     1      21.646   6.008  22.329  0.00  0.00    -0.009 C 
ENDROOT
BRANCH   7  10
ATOM      4  N   UNL     1      16.578   7.717  20.324  0.00  0.00    -0.236 N 
ATOM      5  N   UNL     1      17.016   8.623  21.215  0.00  0.00    -0.171 NA
ATOM     10  C   UNL     1      18.629   7.082  20.724  0.00  0.00    +0.003 A 
ATOM     13  C   UNL     1      17.506   6.771  19.998  0.00  0.00    +0.046 A 
ATOM     14  C   UNL     1      18.270   8.229  21.455  0.00  0.00    +0.064 A 
ATOM     15  C   UNL     1      17.246   5.677  19.040  0.00  0.00    +0.066 C 
ATOM     16  C   UNL     1      19.098   8.992  22.406  0.00  0.00    +0.068 C 
BRANCH   4  17
ATOM     17  C   UNL     1      15.277   7.807  19.829  0.00  0.00    +0.066 A 
ATOM     19  C   UNL     1      14.314   6.878  20.226  0.00  0.00    +0.031 A 
ATOM     20  C   UNL     1      14.938   8.825  18.937  0.00  0.00    +0.031 A 
ATOM     22  C   UNL     1      13.012   6.969  19.731  0.00  0.00    +0.048 A 
ATOM     23  C   UNL     1      13.637   8.915  18.443  0.00  0.00    +0.048 A 
ATOM     24  C   UNL     1      12.674   7.987  18.840  0.00  0.00    +0.120 A 
BRANCH  24   2
ATOM      2  O   UNL     1      11.405   8.076  18.356  0.00  0.00    -0.495 OA
ATOM     31  C   UNL     1      11.251   8.545  17.018  0.00  0.00    +0.277 C 
ENDBRANCH  24   2
ENDBRANCH   4  17
ENDBRANCH   7  10
BRANCH   9   3
ATOM      1  O   UNL     1      24.884   5.696  22.056  0.00  0.00    -0.253 OA
ATOM      3  N   UNL     1      23.169   5.825  20.496  0.00  0.00    -0.293 N 
ATOM      6  N   UNL     1      25.003   4.494  20.077  0.00  0.00    -0.295 N 
ATOM     18  C   UNL     1      24.397   5.368  20.975  0.00  0.00    +0.300 C 
ATOM     32  H   UNL     1      22.820   5.432  19.627  0.00  0.00    +0.151 HD
ATOM     33  H   UNL     1      24.515   4.263  19.216  0.00  0.00    +0.151 HD
BRANCH   6  21
ATOM     21  C   UNL     1      26.283   3.876  20.326  0.00  0.00    +0.141 C 
BRANCH  21  25
ATOM     25  C   UNL     1      26.146   2.586  21.084  0.00  0.00    -0.030 A 
ATOM     26  C   UNL     1      27.188   2.139  21.896  0.00  0.00    +0.005 A 
ATOM     27  C   UNL     1      24.976   1.835  20.975  0.00  0.00    +0.005 A 
ATOM     28  C   UNL     1      27.061   0.941  22.599  0.00  0.00    +0.000 A 
ATOM     29  C   UNL     1      24.848   0.638  21.679  0.00  0.00    +0.000 A 
ATOM     30  C   UNL     1      25.890   0.190  22.490  0.00  0.00    +0.000 A 
ENDBRANCH  21  25
ENDBRANCH   6  21
ENDBRANCH   9   3
TORSDOF 6
ENDMDL
MODEL 3
REMARK VINA RESULT:      -7.0     21.307     22.593
REMARK  Name = 25390026
REMARK  9 active torsions:
REMARK  status: ('A' for Active; 'I' for Inactive)
REMARK    1  A    between atoms: O_2  and  C_24
REMARK    2  A    between atoms: O_2  and  C_31
REMARK    3  A    between atoms: N_3  and  C_9
REMARK    4  A    between atoms: N_4  and  C_17
REMARK    5  A    between atoms: N_6  and  C_21
REMARK    6  A    between atoms: C_7  and  C_10
REMARK    7  A    between atoms: C_13  and  C_15
REMARK    8  A    between atoms: C_14  and  C_16
REMARK    9  A    between atoms: C_21  and  C_25
REMARK                            x       y       z     vdW  Elec       q    Type
REMARK                         _______ _______ _______ _____ _____    ______ ____
ROOT
ATOM      7  C   UNL     1      -4.735  -9.692  10.109  0.00  0.00    +0.047 C 
ATOM      8  C   UNL     1      -4.596 -10.987  10.937  0.00  0.00    +0.039 C 
ATOM      9  C   UNL     1      -3.272 -10.858  11.698  0.00  0.00    +0.098 C 
ATOM     11  C   UNL     1      -3.315  -9.211  10.023  0.00  0.00    -0.021 C 
ATOM     12  C   UNL     1      -2.523  -9.847  10.893  0.00  0.00    -0.009 C 
ENDROOT
BRANCH   7  10
ATOM      4  N   UNL     1      -6.691  -9.740   7.012  0.00  0.00    -0.236 N 
ATOM      5  N   UNL     1      -5.932 -10.815   6.745  0.00  0.00    -0.171 NA
ATOM     10  C   UNL     1      -5.412  -9.906   8.775  0.00  0.00    +0.003 A 
ATOM     13  C   UNL     1      -6.418  -9.158   8.216  0.00  0.00    +0.046 A 
ATOM     14  C   UNL     1      -5.152 -10.911   7.826  0.00  0.00    +0.064 A 
ATOM     15  C   UNL     1      -7.128  -7.964   8.718  0.00  0.00    +0.066 C 
ATOM     16  C   UNL     1      -4.158 -11.996   7.907  0.00  0.00    +0.068 C 
BRANCH   4  17
ATOM     17  C   UNL     1      -7.648  -9.322   6.088  0.00  0.00    +0.066 A 
ATOM     19  C   UNL     1      -7.312  -8.385   5.111  0.00  0.00    +0.031 A 
ATOM     20  C   UNL     1      -8.943  -9.842   6.140  0.00  0.00    +0.031 A 
ATOM     22  C   UNL     1      -8.270  -7.968   4.185  0.00  0.00    +0.048 A 
ATOM     23  C   UNL     1      -9.899  -9.425   5.215  0.00  0.00    +0.048 A 
ATOM     24  C   UNL     1      -9.563  -8.487   4.238  0.00  0.00    +0.120 A 
BRANCH  24   2
ATOM      2  O   UNL     1     -10.498  -8.080   3.336  0.00  0.00    -0.495 OA
ATOM     31  C   UNL     1     -11.051  -6.778   3.516  0.00  0.00    +0.277 C 
ENDBRANCH  24   2
ENDBRANCH   4  17
ENDBRANCH   7  10
BRANCH   9   3
ATOM      1  O   UNL     1      -2.731 -12.262  14.161  0.00  0.00    -0.253 OA
ATOM      3  N   UNL     1      -3.446 -10.360  13.038  0.00  0.00    -0.293 N 
ATOM      6  N   UNL     1      -3.418 -10.387  15.342  0.00  0.00    -0.295 N 
ATOM     18  C   UNL     1      -3.159 -11.109  14.180  0.00  0.00    +0.300 C 
ATOM     32  H   UNL     1      -3.720  -9.389  13.160  0.00  0.00    +0.151 HD
ATOM     33  H   UNL     1      -3.750  -9.431  15.259  0.00  0.00    +0.151 HD
BRANCH   6  21
ATOM     21  C   UNL     1      -3.208 -10.929  16.664  0.00  0.00    +0.141 C 
BRANCH  21  25
ATOM     25  C   UNL     1      -4.455 -10.873  17.497  0.00  0.00    -0.030 A 
ATOM     26  C   UNL     1      -4.488 -11.492  18.747  0.00  0.00    +0.005 A 
ATOM     27  C   UNL     1      -5.582 -10.202  17.023  0.00  0.00    +0.005 A 
ATOM     28  C   UNL     1      -5.647 -11.440  19.522  0.00  0.00    +0.000 A 
ATOM     29  C   UNL     1      -6.741 -10.150  17.798  0.00  0.00    +0.000 A 
ATOM     30  C   UNL     1      -6.774 -10.769  19.047  0.00  0.00    +0.000 A 
ENDBRANCH  21  25
ENDBRANCH   6  21
ENDBRANCH   9   3
TORSDOF 6
ENDMDL
MODEL 4
REMARK VINA RESULT:      -6.8     27.978     31.830
REMARK  Name = 25390026
REMARK  9 active torsions:
REMARK  status: ('A' for Active; 'I' for Inactive)
REMARK    1  A    between atoms: O_2  and  C_24
REMARK    2  A    between atoms: O_2  and  C_31
REMARK    3  A    between atoms: N_3  and  C_9
REMARK    4  A    between atoms: N_4  and  C_17
REMARK    5  A    between atoms: N_6  and  C_21
REMARK    6  A    between atoms: C_7  and  C_10
REMARK    7  A    between atoms: C_13  and  C_15
REMARK    8  A    between atoms: C_14  and  C_16
REMARK    9  A    between atoms: C_21  and  C_25
REMARK                            x       y       z     vdW  Elec       q    Type
REMARK                         _______ _______ _______ _____ _____    ______ ____
ROOT
ATOM      7  C   UNL     1      16.637   7.863  21.268  0.00  0.00    +0.047 C 
ATOM      8  C   UNL     1      16.072   8.684  20.090  0.00  0.00    +0.039 C 
ATOM      9  C   UNL     1      14.550   8.697  20.281  0.00  0.00    +0.098 C 
ATOM     11  C   UNL     1      15.450   7.049  21.694  0.00  0.00    -0.021 C 
ATOM     12  C   UNL     1      14.315   7.509  21.156  0.00  0.00    -0.009 C 
ENDROOT
BRANCH   7  10
ATOM      4  N   UNL     1      19.857   6.174  20.823  0.00  0.00    -0.236 N 
ATOM      5  N   UNL     1      19.214   5.574  19.807  0.00  0.00    -0.171 NA
ATOM     10  C   UNL     1      17.860   7.054  20.900  0.00  0.00    +0.003 A 
ATOM     13  C   UNL     1      19.090   7.069  21.510  0.00  0.00    +0.046 A 
ATOM     14  C   UNL     1      17.994   6.116  19.860  0.00  0.00    +0.064 A 
ATOM     15  C   UNL     1      19.587   7.844  22.665  0.00  0.00    +0.066 C 
ATOM     16  C   UNL     1      16.974   5.700  18.881  0.00  0.00    +0.068 C 
BRANCH   4  17
ATOM     17  C   UNL     1      21.189   5.851  21.084  0.00  0.00    +0.066 A 
ATOM     19  C   UNL     1      21.496   4.799  21.947  0.00  0.00    +0.031 A 
ATOM     20  C   UNL     1      22.215   6.582  20.483  0.00  0.00    +0.031 A 
ATOM     22  C   UNL     1      22.828   4.476  22.207  0.00  0.00    +0.048 A 
ATOM     23  C   UNL     1      23.546   6.259  20.744  0.00  0.00    +0.048 A 
ATOM     24  C   UNL     1      23.853   5.206  21.606  0.00  0.00    +0.120 A 
BRANCH  24   2
ATOM      2  O   UNL     1      25.153   4.893  21.861  0.00  0.00    -0.495 OA
ATOM     31  C   UNL     1      25.457   4.384  23.158  0.00  0.00    +0.277 C 
ENDBRANCH  24   2
ENDBRANCH   4  17
ENDBRANCH   7  10
BRANCH   9   3
ATOM      1  O   UNL     1      11.896   9.825  20.181  0.00  0.00    -0.253 OA
ATOM      3  N   UNL     1      14.084   9.880  20.955  0.00  0.00    -0.293 N 
ATOM      6  N   UNL     1      12.597  11.516  21.604  0.00  0.00    -0.295 N 
ATOM     18  C   UNL     1      12.777  10.359  20.852  0.00  0.00    +0.300 C 
ATOM     32  H   UNL     1      14.715  10.349  21.599  0.00  0.00    +0.151 HD
ATOM     33  H   UNL     1      13.379  11.874  22.146  0.00  0.00    +0.151 HD
BRANCH   6  21
ATOM     21  C   UNL     1      11.338  12.219  21.672  0.00  0.00    +0.141 C 
BRANCH  21  25
ATOM     25  C   UNL     1      11.028  12.681  23.067  0.00  0.00    -0.030 A 
ATOM     26  C   UNL     1      10.560  13.977  23.285  0.00  0.00    +0.005 A 
ATOM     27  C   UNL     1      11.207  11.815  24.145  0.00  0.00    +0.005 A 
ATOM     28  C   UNL     1      10.272  14.407  24.580  0.00  0.00    +0.000 A 
ATOM     29  C   UNL     1      10.918  12.245  25.440  0.00  0.00    +0.000 A 
ATOM     30  C   UNL     1      10.452  13.541  25.658  0.00  0.00    +0.000 A 
ENDBRANCH  21  25
ENDBRANCH   6  21
ENDBRANCH   9   3
TORSDOF 6
ENDMDL
MODEL 5
REMARK VINA RESULT:      -6.7     19.295     22.546
REMARK  Name = 25390026
REMARK  9 active torsions:
REMARK  status: ('A' for Active; 'I' for Inactive)
REMARK    1  A    between atoms: O_2  and  C_24
REMARK    2  A    between atoms: O_2  and  C_31
REMARK    3  A    between atoms: N_3  and  C_9
REMARK    4  A    between atoms: N_4  and  C_17
REMARK    5  A    between atoms: N_6  and  C_21
REMARK    6  A    between atoms: C_7  and  C_10
REMARK    7  A    between atoms: C_13  and  C_15
REMARK    8  A    between atoms: C_14  and  C_16
REMARK    9  A    between atoms: C_21  and  C_25
REMARK                            x       y       z     vdW  Elec       q    Type
REMARK                         _______ _______ _______ _____ _____    ______ ____
ROOT
ATOM      7  C   UNL     1      -6.247 -11.012  16.945  0.00  0.00    +0.047 C 
ATOM      8  C   UNL     1      -4.909 -10.395  17.403  0.00  0.00    +0.039 C 
ATOM      9  C   UNL     1      -3.819 -11.112  16.597  0.00  0.00    +0.098 C 
ATOM     11  C   UNL     1      -5.815 -12.332  16.375  0.00  0.00    -0.021 C 
ATOM     12  C   UNL     1      -4.492 -12.380  16.184  0.00  0.00    -0.009 C 
ENDROOT
BRANCH   7  10
ATOM      4  N   UNL     1      -9.123 -11.155  19.210  0.00  0.00    -0.236 N 
ATOM      5  N   UNL     1      -8.172 -11.358  20.137  0.00  0.00    -0.171 NA
ATOM     10  C   UNL     1      -7.271 -11.107  18.053  0.00  0.00    +0.003 A 
ATOM     13  C   UNL     1      -8.636 -11.000  17.945  0.00  0.00    +0.046 A 
ATOM     14  C   UNL     1      -7.043 -11.328  19.424  0.00  0.00    +0.064 A 
ATOM     15  C   UNL     1      -9.496 -10.768  16.768  0.00  0.00    +0.066 C 
ATOM     16  C   UNL     1      -5.750 -11.518  20.106  0.00  0.00    +0.068 C 
BRANCH   4  17
ATOM     17  C   UNL     1     -10.464 -11.122  19.591  0.00  0.00    +0.066 A 
ATOM     19  C   UNL     1     -11.084  -9.901  19.857  0.00  0.00    +0.031 A 
ATOM     20  C   UNL     1     -11.186 -12.311  19.707  0.00  0.00    +0.031 A 
ATOM     22  C   UNL     1     -12.427  -9.868  20.237  0.00  0.00    +0.048 A 
ATOM     23  C   UNL     1     -12.528 -12.277  20.087  0.00  0.00    +0.048 A 
ATOM     24  C   UNL     1     -13.148 -11.056  20.352  0.00  0.00    +0.120 A 
BRANCH  24   2
ATOM      2  O   UNL     1     -14.457 -11.025  20.724  0.00  0.00    -0.495 OA
ATOM     31  C   UNL     1     -15.072  -9.742  20.832  0.00  0.00    +0.277 C 
ENDBRANCH  24   2
ENDBRANCH   4  17
ENDBRANCH   7  10
BRANCH   9   3
ATOM      1  O   UNL     1      -2.493 -12.162  14.259  0.00  0.00    -0.253 OA
ATOM      3  N   UNL     1      -3.425 -10.381  15.421  0.00  0.00    -0.293 N 
ATOM      6  N   UNL     1      -2.518 -10.036  13.332  0.00  0.00    -0.295 N 
ATOM     18  C   UNL     1      -2.785 -10.969  14.330  0.00  0.00    +0.300 C 
ATOM     32  H   UNL     1      -3.693  -9.404  15.348  0.00  0.00    +0.151 HD
ATOM     33  H   UNL     1      -2.815  -9.075  13.469  0.00  0.00    +0.151 HD
BRANCH   6  21
ATOM     21  C   UNL     1      -1.860 -10.380  12.093  0.00  0.00    +0.141 C 
BRANCH  21  25
ATOM     25  C   UNL     1      -2.814 -10.390  10.935  0.00  0.00    -0.030 A 
ATOM     26  C   UNL     1      -3.404 -11.586  10.526  0.00  0.00    +0.005 A 
ATOM     27  C   UNL     1      -3.112  -9.202  10.266  0.00  0.00    +0.005 A 
ATOM     28  C   UNL     1      -4.291 -11.595   9.449  0.00  0.00    +0.000 A 
ATOM     29  C   UNL     1      -4.000  -9.211   9.190  0.00  0.00    +0.000 A 
ATOM     30  C   UNL     1      -4.588 -10.407   8.780  0.00  0.00    +0.000 A 
ENDBRANCH  21  25
ENDBRANCH   6  21
ENDBRANCH   9   3
TORSDOF 6
ENDMDL
MODEL 6
REMARK VINA RESULT:      -6.6     22.518     23.741
REMARK  Name = 25390026
REMARK  9 active torsions:
REMARK  status: ('A' for Active; 'I' for Inactive)
REMARK    1  A    between atoms: O_2  and  C_24
REMARK    2  A    between atoms: O_2  and  C_31
REMARK    3  A    between atoms: N_3  and  C_9
REMARK    4  A    between atoms: N_4  and  C_17
REMARK    5  A    between atoms: N_6  and  C_21
REMARK    6  A    between atoms: C_7  and  C_10
REMARK    7  A    between atoms: C_13  and  C_15
REMARK    8  A    between atoms: C_14  and  C_16
REMARK    9  A    between atoms: C_21  and  C_25
REMARK                            x       y       z     vdW  Elec       q    Type
REMARK                         _______ _______ _______ _____ _____    ______ ____
ROOT
ATOM      7  C   UNL     1      -4.720  -9.752  10.192  0.00  0.00    +0.047 C 
ATOM      8  C   UNL     1      -4.459 -11.035  11.008  0.00  0.00    +0.039 C 
ATOM      9  C   UNL     1      -3.106 -10.826  11.697  0.00  0.00    +0.098 C 
ATOM     11  C   UNL     1      -3.338  -9.186  10.031  0.00  0.00    -0.021 C 
ATOM     12  C   UNL     1      -2.464  -9.772  10.856  0.00  0.00    -0.009 C 
ENDROOT
BRANCH   7  10
ATOM      4  N   UNL     1      -6.150 -10.833   6.997  0.00  0.00    -0.236 N 
ATOM      5  N   UNL     1      -6.930  -9.753   7.171  0.00  0.00    -0.171 NA
ATOM     10  C   UNL     1      -5.453 -10.007   8.895  0.00  0.00    +0.003 A 
ATOM     13  C   UNL     1      -5.249 -11.030   8.003  0.00  0.00    +0.046 A 
ATOM     14  C   UNL     1      -6.500  -9.252   8.332  0.00  0.00    +0.064 A 
ATOM     15  C   UNL     1      -4.291 -12.153   8.024  0.00  0.00    +0.066 C 
ATOM     16  C   UNL     1      -7.129  -8.034   8.873  0.00  0.00    +0.068 C 
BRANCH   4  17
ATOM     17  C   UNL     1      -6.313 -11.628   5.863  0.00  0.00    +0.066 A 
ATOM     19  C   UNL     1      -5.536 -11.393   4.728  0.00  0.00    +0.031 A 
ATOM     20  C   UNL     1      -7.252 -12.660   5.863  0.00  0.00    +0.031 A 
ATOM     22  C   UNL     1      -5.698 -12.190   3.594  0.00  0.00    +0.048 A 
ATOM     23  C   UNL     1      -7.415 -13.456   4.730  0.00  0.00    +0.048 A 
ATOM     24  C   UNL     1      -6.638 -13.221   3.595  0.00  0.00    +0.120 A 
BRANCH  24   2
ATOM      2  O   UNL     1      -6.798 -13.998   2.489  0.00  0.00    -0.495 OA
ATOM     31  C   UNL     1      -6.938 -13.327   1.238  0.00  0.00    +0.277 C 
ENDBRANCH  24   2
ENDBRANCH   4  17
ENDBRANCH   7  10
BRANCH   9   3
ATOM      1  O   UNL     1      -2.698 -12.318  14.135  0.00  0.00    -0.253 OA
ATOM      3  N   UNL     1      -3.238 -10.339  13.045  0.00  0.00    -0.293 N 
ATOM      6  N   UNL     1      -3.217 -10.410  15.348  0.00  0.00    -0.295 N 
ATOM     18  C   UNL     1      -3.022 -11.131  14.174  0.00  0.00    +0.300 C 
ATOM     32  H   UNL     1      -3.424  -9.350  13.185  0.00  0.00    +0.151 HD
ATOM     33  H   UNL     1      -3.463  -9.427  15.283  0.00  0.00    +0.151 HD
BRANCH   6  21
ATOM     21  C   UNL     1      -3.060 -10.992  16.660  0.00  0.00    +0.141 C 
BRANCH  21  25
ATOM     25  C   UNL     1      -4.326 -10.918  17.463  0.00  0.00    -0.030 A 
ATOM     26  C   UNL     1      -5.431 -10.230  16.962  0.00  0.00    +0.005 A 
ATOM     27  C   UNL     1      -4.398 -11.537  18.711  0.00  0.00    +0.005 A 
ATOM     28  C   UNL     1      -6.608 -10.161  17.708  0.00  0.00    +0.000 A 
ATOM     29  C   UNL     1      -5.575 -11.469  19.457  0.00  0.00    +0.000 A 
ATOM     30  C   UNL     1      -6.679 -10.780  18.956  0.00  0.00    +0.000 A 
ENDBRANCH  21  25
ENDBRANCH   6  21
ENDBRANCH   9   3
TORSDOF 6
ENDMDL
MODEL 7
REMARK VINA RESULT:      -6.6     21.885     25.104
REMARK  Name = 25390026
REMARK  9 active torsions:
REMARK  status: ('A' for Active; 'I' for Inactive)
REMARK    1  A    between atoms: O_2  and  C_24
REMARK    2  A    between atoms: O_2  and  C_31
REMARK    3  A    between atoms: N_3  and  C_9
REMARK    4  A    between atoms: N_4  and  C_17
REMARK    5  A    between atoms: N_6  and  C_21
REMARK    6  A    between atoms: C_7  and  C_10
REMARK    7  A    between atoms: C_13  and  C_15
REMARK    8  A    between atoms: C_14  and  C_16
REMARK    9  A    between atoms: C_21  and  C_25
REMARK                            x       y       z     vdW  Elec       q    Type
REMARK                         _______ _______ _______ _____ _____    ______ ____
ROOT
ATOM      7  C   UNL     1      -3.394 -10.964  12.571  0.00  0.00    +0.047 C 
ATOM      8  C   UNL     1      -4.426 -10.168  11.745  0.00  0.00    +0.039 C 
ATOM      9  C   UNL     1      -3.645  -9.558  10.575  0.00  0.00    +0.098 C 
ATOM     11  C   UNL     1      -2.096 -10.328  12.165  0.00  0.00    -0.021 C 
ATOM     12  C   UNL     1      -2.237  -9.567  11.075  0.00  0.00    -0.009 C 
ENDROOT
BRANCH   7  10
ATOM      4  N   UNL     1      -4.606 -11.070  16.027  0.00  0.00    -0.236 N 
ATOM      5  N   UNL     1      -3.347 -10.694  16.305  0.00  0.00    -0.171 NA
ATOM     10  C   UNL     1      -3.672 -10.939  14.057  0.00  0.00    +0.003 A 
ATOM     13  C   UNL     1      -4.852 -11.232  14.694  0.00  0.00    +0.046 A 
ATOM     14  C   UNL     1      -2.781 -10.616  15.097  0.00  0.00    +0.064 A 
ATOM     15  C   UNL     1      -6.165 -11.642  14.156  0.00  0.00    +0.066 C 
ATOM     16  C   UNL     1      -1.365 -10.223  14.985  0.00  0.00    +0.068 C 
BRANCH   4  17
ATOM     17  C   UNL     1      -5.517 -11.258  17.066  0.00  0.00    +0.066 A 
ATOM     19  C   UNL     1      -5.707 -12.531  17.606  0.00  0.00    +0.031 A 
ATOM     20  C   UNL     1      -6.239 -10.174  17.567  0.00  0.00    +0.031 A 
ATOM     22  C   UNL     1      -6.618 -12.719  18.647  0.00  0.00    +0.048 A 
ATOM     23  C   UNL     1      -7.149 -10.362  18.607  0.00  0.00    +0.048 A 
ATOM     24  C   UNL     1      -7.339 -11.634  19.146  0.00  0.00    +0.120 A 
BRANCH  24   2
ATOM      2  O   UNL     1      -8.228 -11.816  20.160  0.00  0.00    -0.495 OA
ATOM     31  C   UNL     1      -9.527 -12.290  19.809  0.00  0.00    +0.277 C 
ENDBRANCH  24   2
ENDBRANCH   4  17
ENDBRANCH   7  10
BRANCH   9   3
ATOM      1  O   UNL     1      -5.721  -9.481   8.571  0.00  0.00    -0.253 OA
ATOM      3  N   UNL     1      -3.725 -10.352   9.378  0.00  0.00    -0.293 N 
ATOM      6  N   UNL     1      -4.599 -11.134   7.394  0.00  0.00    -0.295 N 
ATOM     18  C   UNL     1      -4.769 -10.252   8.457  0.00  0.00    +0.300 C 
ATOM     32  H   UNL     1      -2.947 -10.964   9.151  0.00  0.00    +0.151 HD
ATOM     33  H   UNL     1      -3.769 -11.719   7.372  0.00  0.00    +0.151 HD
BRANCH   6  21
ATOM     21  C   UNL     1      -5.537 -11.235   6.301  0.00  0.00    +0.141 C 
BRANCH  21  25
ATOM     25  C   UNL     1      -4.909 -11.833   5.075  0.00  0.00    -0.030 A 
ATOM     26  C   UNL     1      -5.680 -12.058   3.935  0.00  0.00    +0.005 A 
ATOM     27  C   UNL     1      -3.554 -12.164   5.076  0.00  0.00    +0.005 A 
ATOM     28  C   UNL     1      -5.097 -12.614   2.796  0.00  0.00    +0.000 A 
ATOM     29  C   UNL     1      -2.971 -12.719   3.938  0.00  0.00    +0.000 A 
ATOM     30  C   UNL     1      -3.741 -12.945   2.798  0.00  0.00    +0.000 A 
ENDBRANCH  21  25
ENDBRANCH   6  21
ENDBRANCH   9   3
TORSDOF 6
ENDMDL
MODEL 8
REMARK VINA RESULT:      -6.3     33.322     34.992
REMARK  Name = 25390026
REMARK  9 active torsions:
REMARK  status: ('A' for Active; 'I' for Inactive)
REMARK    1  A    between atoms: O_2  and  C_24
REMARK    2  A    between atoms: O_2  and  C_31
REMARK    3  A    between atoms: N_3  and  C_9
REMARK    4  A    between atoms: N_4  and  C_17
REMARK    5  A    between atoms: N_6  and  C_21
REMARK    6  A    between atoms: C_7  and  C_10
REMARK    7  A    between atoms: C_13  and  C_15
REMARK    8  A    between atoms: C_14  and  C_16
REMARK    9  A    between atoms: C_21  and  C_25
REMARK                            x       y       z     vdW  Elec       q    Type
REMARK                         _______ _______ _______ _____ _____    ______ ____
ROOT
ATOM      7  C   UNL     1       7.663   5.425  -4.619  0.00  0.00    +0.047 C 
ATOM      8  C   UNL     1       6.197   5.812  -4.333  0.00  0.00    +0.039 C 
ATOM      9  C   UNL     1       5.668   6.436  -5.630  0.00  0.00    +0.098 C 
ATOM     11  C   UNL     1       8.010   6.310  -5.781  0.00  0.00    -0.021 C 
ATOM     12  C   UNL     1       6.919   6.855  -6.331  0.00  0.00    -0.009 C 
ENDROOT
BRANCH   7  10
ATOM      4  N   UNL     1      10.003   5.245  -1.805  0.00  0.00    -0.236 N 
ATOM      5  N   UNL     1       9.623   6.521  -1.623  0.00  0.00    -0.171 NA
ATOM     10  C   UNL     1       8.567   5.579  -3.416  0.00  0.00    +0.003 A 
ATOM     13  C   UNL     1       9.400   4.636  -2.868  0.00  0.00    +0.046 A 
ATOM     14  C   UNL     1       8.745   6.719  -2.610  0.00  0.00    +0.064 A 
ATOM     15  C   UNL     1       9.666   3.237  -3.258  0.00  0.00    +0.066 C 
ATOM     16  C   UNL     1       8.093   8.034  -2.746  0.00  0.00    +0.068 C 
BRANCH   4  17
ATOM     17  C   UNL     1      10.937   4.672  -0.942  0.00  0.00    +0.066 A 
ATOM     19  C   UNL     1      12.193   4.298  -1.422  0.00  0.00    +0.031 A 
ATOM     20  C   UNL     1      10.615   4.471   0.400  0.00  0.00    +0.031 A 
ATOM     22  C   UNL     1      13.128   3.726  -0.558  0.00  0.00    +0.048 A 
ATOM     23  C   UNL     1      11.549   3.899   1.263  0.00  0.00    +0.048 A 
ATOM     24  C   UNL     1      12.805   3.525   0.784  0.00  0.00    +0.120 A 
BRANCH  24   2
ATOM      2  O   UNL     1      13.716   2.966   1.627  0.00  0.00    -0.495 OA
ATOM     31  C   UNL     1      15.000   3.584   1.700  0.00  0.00    +0.277 C 
ENDBRANCH  24   2
ENDBRANCH   4  17
ENDBRANCH   7  10
BRANCH   9   3
ATOM      1  O   UNL     1       2.821   5.962  -5.677  0.00  0.00    -0.253 OA
ATOM      3  N   UNL     1       4.959   5.492  -6.453  0.00  0.00    -0.293 N 
ATOM      6  N   UNL     1       3.151   4.348  -7.310  0.00  0.00    -0.295 N 
ATOM     18  C   UNL     1       3.574   5.325  -6.413  0.00  0.00    +0.300 C 
ATOM     32  H   UNL     1       5.481   4.973  -7.152  0.00  0.00    +0.151 HD
ATOM     33  H   UNL     1       3.844   3.889  -7.894  0.00  0.00    +0.151 HD
BRANCH   6  21
ATOM     21  C   UNL     1       1.765   3.977  -7.469  0.00  0.00    +0.141 C 
BRANCH  21  25
ATOM     25  C   UNL     1       1.443   2.693  -6.761  0.00  0.00    -0.030 A 
ATOM     26  C   UNL     1       2.282   2.222  -5.752  0.00  0.00    +0.005 A 
ATOM     27  C   UNL     1       0.303   1.969  -7.113  0.00  0.00    +0.005 A 
ATOM     28  C   UNL     1       1.983   1.029  -5.094  0.00  0.00    +0.000 A 
ATOM     29  C   UNL     1       0.004   0.776  -6.456  0.00  0.00    +0.000 A 
ATOM     30  C   UNL     1       0.844   0.305  -5.447  0.00  0.00    +0.000 A 
ENDBRANCH  21  25
ENDBRANCH   6  21
ENDBRANCH   9   3
TORSDOF 6
ENDMDL
MODEL 9
REMARK VINA RESULT:      -6.2     21.354     22.686
REMARK  Name = 25390026
REMARK  9 active torsions:
REMARK  status: ('A' for Active; 'I' for Inactive)
REMARK    1  A    between atoms: O_2  and  C_24
REMARK    2  A    between atoms: O_2  and  C_31
REMARK    3  A    between atoms: N_3  and  C_9
REMARK    4  A    between atoms: N_4  and  C_17
REMARK    5  A    between atoms: N_6  and  C_21
REMARK    6  A    between atoms: C_7  and  C_10
REMARK    7  A    between atoms: C_13  and  C_15
REMARK    8  A    between atoms: C_14  and  C_16
REMARK    9  A    between atoms: C_21  and  C_25
REMARK                            x       y       z     vdW  Elec       q    Type
REMARK                         _______ _______ _______ _____ _____    ______ ____
ROOT
ATOM      7  C   UNL     1      -5.020  -9.734  10.232  0.00  0.00    +0.047 C 
ATOM      8  C   UNL     1      -4.491 -10.987  10.959  0.00  0.00    +0.039 C 
ATOM      9  C   UNL     1      -3.071 -10.636  11.421  0.00  0.00    +0.098 C 
ATOM     11  C   UNL     1      -3.754  -9.018   9.860  0.00  0.00    -0.021 C 
ATOM     12  C   UNL     1      -2.696  -9.511  10.513  0.00  0.00    -0.009 C 
ENDROOT
BRANCH   7  10
ATOM      4  N   UNL     1      -7.592 -10.139   7.655  0.00  0.00    -0.236 N 
ATOM      5  N   UNL     1      -6.700 -10.999   7.136  0.00  0.00    -0.171 NA
ATOM     10  C   UNL     1      -5.929 -10.057   9.068  0.00  0.00    +0.003 A 
ATOM     13  C   UNL     1      -7.177  -9.546   8.812  0.00  0.00    +0.046 A 
ATOM     14  C   UNL     1      -5.686 -10.945   8.004  0.00  0.00    +0.064 A 
ATOM     15  C   UNL     1      -7.992  -8.566   9.558  0.00  0.00    +0.066 C 
ATOM     16  C   UNL     1      -4.488 -11.771   7.771  0.00  0.00    +0.068 C 
BRANCH   4  17
ATOM     17  C   UNL     1      -8.807  -9.926   7.004  0.00  0.00    +0.066 A 
ATOM     19  C   UNL     1      -9.908 -10.729   7.303  0.00  0.00    +0.031 A 
ATOM     20  C   UNL     1      -8.922  -8.910   6.055  0.00  0.00    +0.031 A 
ATOM     22  C   UNL     1     -11.125 -10.515   6.654  0.00  0.00    +0.048 A 
ATOM     23  C   UNL     1     -10.138  -8.697   5.406  0.00  0.00    +0.048 A 
ATOM     24  C   UNL     1     -11.239  -9.500   5.705  0.00  0.00    +0.120 A 
BRANCH  24   2
ATOM      2  O   UNL     1     -12.425  -9.291   5.069  0.00  0.00    -0.495 OA
ATOM     31  C   UNL     1     -13.602  -9.291   5.875  0.00  0.00    +0.277 C 
ENDBRANCH  24   2
ENDBRANCH   4  17
ENDBRANCH   7  10
BRANCH   9   3
ATOM      1  O   UNL     1      -2.707 -12.247  13.788  0.00  0.00    -0.253 OA
ATOM      3  N   UNL     1      -3.027 -10.177  12.784  0.00  0.00    -0.293 N 
ATOM      6  N   UNL     1      -2.843 -10.323  15.077  0.00  0.00    -0.295 N 
ATOM     18  C   UNL     1      -2.846 -11.028  13.876  0.00  0.00    +0.300 C 
ATOM     32  H   UNL     1      -3.053  -9.177  12.958  0.00  0.00    +0.151 HD
ATOM     33  H   UNL     1      -2.944  -9.312  15.051  0.00  0.00    +0.151 HD
BRANCH   6  21
ATOM     21  C   UNL     1      -2.675 -10.963  16.360  0.00  0.00    +0.141 C 
BRANCH  21  25
ATOM     25  C   UNL     1      -3.934 -10.923  17.177  0.00  0.00    -0.030 A 
ATOM     26  C   UNL     1      -5.015 -10.148  16.756  0.00  0.00    +0.005 A 
ATOM     27  C   UNL     1      -4.024 -11.661  18.357  0.00  0.00    +0.005 A 
ATOM     28  C   UNL     1      -6.185 -10.111  17.515  0.00  0.00    +0.000 A 
ATOM     29  C   UNL     1      -5.194 -11.624  19.115  0.00  0.00    +0.000 A 
ATOM     30  C   UNL     1      -6.274 -10.849  18.695  0.00  0.00    +0.000 A 
ENDBRANCH  21  25
ENDBRANCH   6  21
ENDBRANCH   9   3
TORSDOF 6
ENDMDL
MODEL 10
REMARK VINA RESULT:      -6.2     29.383     32.992
REMARK  Name = 25390026
REMARK  9 active torsions:
REMARK  status: ('A' for Active; 'I' for Inactive)
REMARK    1  A    between atoms: O_2  and  C_24
REMARK    2  A    between atoms: O_2  and  C_31
REMARK    3  A    between atoms: N_3  and  C_9
REMARK    4  A    between atoms: N_4  and  C_17
REMARK    5  A    between atoms: N_6  and  C_21
REMARK    6  A    between atoms: C_7  and  C_10
REMARK    7  A    between atoms: C_13  and  C_15
REMARK    8  A    between atoms: C_14  and  C_16
REMARK    9  A    between atoms: C_21  and  C_25
REMARK                            x       y       z     vdW  Elec       q    Type
REMARK                         _______ _______ _______ _____ _____    ______ ____
ROOT
ATOM      7  C   UNL     1      15.119  -5.471  30.933  0.00  0.00    +0.047 C 
ATOM      8  C   UNL     1      15.710  -4.055  30.767  0.00  0.00    +0.039 C 
ATOM      9  C   UNL     1      17.198  -4.256  30.456  0.00  0.00    +0.098 C 
ATOM     11  C   UNL     1      16.335  -6.294  31.246  0.00  0.00    -0.021 C 
ATOM     12  C   UNL     1      17.464  -5.629  30.981  0.00  0.00    -0.009 C 
ENDROOT
BRANCH   7  10
ATOM      4  N   UNL     1      12.131  -5.858  33.018  0.00  0.00    -0.236 N 
ATOM      5  N   UNL     1      12.938  -5.367  33.973  0.00  0.00    -0.171 NA
ATOM     10  C   UNL     1      14.022  -5.543  31.970  0.00  0.00    +0.003 A 
ATOM     13  C   UNL     1      12.733  -5.984  31.799  0.00  0.00    +0.046 A 
ATOM     14  C   UNL     1      14.092  -5.177  33.327  0.00  0.00    +0.064 A 
ATOM     15  C   UNL     1      12.040  -6.503  30.603  0.00  0.00    +0.066 C 
ATOM     16  C   UNL     1      15.251  -4.635  34.059  0.00  0.00    +0.068 C 
BRANCH   4  17
ATOM     17  C   UNL     1      10.812  -6.186  33.327  0.00  0.00    +0.066 A 
ATOM     19  C   UNL     1      10.391  -7.515  33.272  0.00  0.00    +0.031 A 
ATOM     20  C   UNL     1       9.911  -5.185  33.693  0.00  0.00    +0.031 A 
ATOM     22  C   UNL     1       9.071  -7.843  33.583  0.00  0.00    +0.048 A 
ATOM     23  C   UNL     1       8.592  -5.513  34.004  0.00  0.00    +0.048 A 
ATOM     24  C   UNL     1       8.172  -6.842  33.948  0.00  0.00    +0.120 A 
BRANCH  24   2
ATOM      2  O   UNL     1       6.884  -7.161  34.251  0.00  0.00    -0.495 OA
ATOM     31  C   UNL     1       6.236  -8.115  33.411  0.00  0.00    +0.277 C 
ENDBRANCH  24   2
ENDBRANCH   4  17
ENDBRANCH   7  10
BRANCH   9   3
ATOM      1  O   UNL     1      18.212  -2.027  28.928  0.00  0.00    -0.253 OA
ATOM      3  N   UNL     1      17.479  -4.228  29.044  0.00  0.00    -0.293 N 
ATOM      6  N   UNL     1      18.153  -3.350  27.023  0.00  0.00    -0.295 N 
ATOM     18  C   UNL     1      17.971  -3.103  28.381  0.00  0.00    +0.300 C 
ATOM     32  H   UNL     1      17.388  -5.091  28.516  0.00  0.00    +0.151 HD
ATOM     33  H   UNL     1      17.947  -4.277  26.663  0.00  0.00    +0.151 HD
BRANCH   6  21
ATOM     21  C   UNL     1      18.650  -2.353  26.105  0.00  0.00    +0.141 C 
BRANCH  21  25
ATOM     25  C   UNL     1      17.771  -2.215  24.896  0.00  0.00    -0.030 A 
ATOM     26  C   UNL     1      18.129  -1.342  23.868  0.00  0.00    +0.005 A 
ATOM     27  C   UNL     1      16.596  -2.960  24.798  0.00  0.00    +0.005 A 
ATOM     28  C   UNL     1      17.312  -1.213  22.745  0.00  0.00    +0.000 A 
ATOM     29  C   UNL     1      15.780  -2.833  23.675  0.00  0.00    +0.000 A 
ATOM     30  C   UNL     1      16.137  -1.959  22.648  0.00  0.00    +0.000 A 
ENDBRANCH  21  25
ENDBRANCH   6  21
ENDBRANCH   9   3
TORSDOF 6
ENDMDL
