MODEL 1
REMARK VINA RESULT:      -7.1      0.000      0.000
REMARK  Name = 7662744
REMARK  6 active torsions:
REMARK  status: ('A' for Active; 'I' for Inactive)
REMARK    1  A    between atoms: N_5  and  C_20
REMARK    2  A    between atoms: N_5  and  C_25
REMARK    3  A    between atoms: N_5  and  C_26
REMARK    4  A    between atoms: C_14  and  C_19
REMARK    5  A    between atoms: C_16  and  C_20
REMARK    6  A    between atoms: C_23  and  C_28
REMARK                            x       y       z     vdW  Elec       q    Type
REMARK                         _______ _______ _______ _____ _____    ______ ____
ROOT
ATOM      1  O   UNL     1      10.816   8.532  17.296  0.00  0.00    -0.268 OA
ATOM      2  O   UNL     1      11.418  12.240  21.645  0.00  0.00    -0.274 OA
ATOM      3  N   UNL     1      12.240  10.075  21.822  0.00  0.00    -0.299 N 
ATOM      4  N   UNL     1      12.009   8.173  19.280  0.00  0.00    -0.311 N 
ATOM      7  C   UNL     1      10.825   8.043  21.550  0.00  0.00    +0.027 C 
ATOM      8  C   UNL     1      13.272   7.843  21.428  0.00  0.00    +0.054 C 
ATOM      9  C   UNL     1      12.004   7.171  21.952  0.00  0.00    +0.018 C 
ATOM     10  C   UNL     1      10.958   9.452  22.152  0.00  0.00    +0.113 C 
ATOM     11  C   UNL     1      10.745   8.078  20.023  0.00  0.00    +0.130 C 
ATOM     12  C   UNL     1      13.419   9.236  22.076  0.00  0.00    +0.117 C 
ATOM     13  C   UNL     1      13.256   7.968  19.902  0.00  0.00    +0.034 A 
ATOM     14  C   UNL     1      14.386   7.916  19.151  0.00  0.00    +0.002 A 
ATOM     15  C   UNL     1      11.880   8.363  17.892  0.00  0.00    +0.252 A 
ATOM     16  C   UNL     1      12.273  11.394  21.371  0.00  0.00    +0.230 C 
ATOM     17  C   UNL     1      14.293   8.110  17.716  0.00  0.00    +0.015 A 
ATOM     18  C   UNL     1      13.132   8.336  17.102  0.00  0.00    +0.071 A 
ENDROOT
BRANCH  14  19
ATOM     19  C   UNL     1      15.715   7.684  19.758  0.00  0.00    -0.015 A 
ATOM     21  C   UNL     1      16.372   8.725  20.407  0.00  0.00    +0.027 A 
ATOM     22  C   UNL     1      16.301   6.425  19.672  0.00  0.00    +0.008 A 
ATOM     23  C   UNL     1      17.626   8.505  20.976  0.00  0.00    +0.052 A 
ATOM     24  C   UNL     1      17.556   6.203  20.242  0.00  0.00    +0.002 A 
ATOM     27  C   UNL     1      18.218   7.244  20.894  0.00  0.00    +0.019 A 
BRANCH  23  28
ATOM      6  N   UNL     1      18.856  10.437  22.187  0.00  0.00    -0.191 NA
ATOM     28  C   UNL     1      18.304   9.570  21.644  0.00  0.00    +0.099 C 
ENDBRANCH  23  28
ENDBRANCH  14  19
BRANCH  16  20
ATOM     20  C   UNL     1      13.433  11.778  20.488  0.00  0.00    +0.180 C 
BRANCH  20   5
ATOM      5  N   UNL     1      14.200  12.756  21.228  0.00  0.00    -0.300 NA
ATOM     25  C   UNL     1      14.302  14.018  20.485  0.00  0.00    +0.105 C 
ATOM     26  C   UNL     1      15.542  12.249  21.537  0.00  0.00    +0.105 C 
ENDBRANCH  20   5
ENDBRANCH  16  20
TORSDOF 4
ENDMDL
MODEL 2
REMARK VINA RESULT:      -6.5      2.166      3.621
REMARK  Name = 7662744
REMARK  6 active torsions:
REMARK  status: ('A' for Active; 'I' for Inactive)
REMARK    1  A    between atoms: N_5  and  C_20
REMARK    2  A    between atoms: N_5  and  C_25
REMARK    3  A    between atoms: N_5  and  C_26
REMARK    4  A    between atoms: C_14  and  C_19
REMARK    5  A    between atoms: C_16  and  C_20
REMARK    6  A    between atoms: C_23  and  C_28
REMARK                            x       y       z     vdW  Elec       q    Type
REMARK                         _______ _______ _______ _____ _____    ______ ____
ROOT
ATOM      1  O   UNL     1      10.821   8.656  21.363  0.00  0.00    -0.268 OA
ATOM      2  O   UNL     1      13.594  12.489  18.100  0.00  0.00    -0.274 OA
ATOM      3  N   UNL     1      14.718  11.334  19.772  0.00  0.00    -0.299 N 
ATOM      4  N   UNL     1      13.120   9.107  21.389  0.00  0.00    -0.311 N 
ATOM      7  C   UNL     1      14.032  11.373  22.167  0.00  0.00    +0.027 C 
ATOM      8  C   UNL     1      15.578   9.634  21.375  0.00  0.00    +0.054 C 
ATOM      9  C   UNL     1      15.278  10.583  22.534  0.00  0.00    +0.018 C 
ATOM     10  C   UNL     1      14.257  12.178  20.874  0.00  0.00    +0.113 C 
ATOM     11  C   UNL     1      12.860  10.400  22.037  0.00  0.00    +0.130 C 
ATOM     12  C   UNL     1      15.849  10.454  20.097  0.00  0.00    +0.117 C 
ATOM     13  C   UNL     1      14.429   8.650  21.139  0.00  0.00    +0.034 A 
ATOM     14  C   UNL     1      14.628   7.388  20.678  0.00  0.00    +0.002 A 
ATOM     15  C   UNL     1      11.984   8.313  21.150  0.00  0.00    +0.252 A 
ATOM     16  C   UNL     1      14.130  11.458  18.513  0.00  0.00    +0.230 C 
ATOM     17  C   UNL     1      13.479   6.540  20.416  0.00  0.00    +0.015 A 
ATOM     18  C   UNL     1      12.229   6.954  20.614  0.00  0.00    +0.071 A 
ENDROOT
BRANCH  14  19
ATOM     19  C   UNL     1      15.984   6.858  20.418  0.00  0.00    -0.015 A 
ATOM     21  C   UNL     1      16.981   7.005  21.377  0.00  0.00    +0.027 A 
ATOM     22  C   UNL     1      16.254   6.218  19.212  0.00  0.00    +0.008 A 
ATOM     23  C   UNL     1      18.260   6.507  21.129  0.00  0.00    +0.052 A 
ATOM     24  C   UNL     1      17.534   5.719  18.963  0.00  0.00    +0.002 A 
ATOM     27  C   UNL     1      18.536   5.864  19.922  0.00  0.00    +0.019 A 
BRANCH  23  28
ATOM      6  N   UNL     1      20.123   6.775  22.910  0.00  0.00    -0.191 NA
ATOM     28  C   UNL     1      19.288   6.655  22.111  0.00  0.00    +0.099 C 
ENDBRANCH  23  28
ENDBRANCH  14  19
BRANCH  16  20
ATOM     20  C   UNL     1      14.159  10.236  17.631  0.00  0.00    +0.180 C 
BRANCH  20   5
ATOM      5  N   UNL     1      13.776  10.682  16.309  0.00  0.00    -0.300 NA
ATOM     25  C   UNL     1      12.823   9.750  15.694  0.00  0.00    +0.105 C 
ATOM     26  C   UNL     1      14.952  10.836  15.443  0.00  0.00    +0.105 C 
ENDBRANCH  20   5
ENDBRANCH  16  20
TORSDOF 4
ENDMDL
MODEL 3
REMARK VINA RESULT:      -6.5      2.321      5.704
REMARK  Name = 7662744
REMARK  6 active torsions:
REMARK  status: ('A' for Active; 'I' for Inactive)
REMARK    1  A    between atoms: N_5  and  C_20
REMARK    2  A    between atoms: N_5  and  C_25
REMARK    3  A    between atoms: N_5  and  C_26
REMARK    4  A    between atoms: C_14  and  C_19
REMARK    5  A    between atoms: C_16  and  C_20
REMARK    6  A    between atoms: C_23  and  C_28
REMARK                            x       y       z     vdW  Elec       q    Type
REMARK                         _______ _______ _______ _____ _____    ______ ____
ROOT
ATOM      1  O   UNL     1      11.199   5.929  20.979  0.00  0.00    -0.268 OA
ATOM      2  O   UNL     1      16.611   6.685  19.200  0.00  0.00    -0.274 OA
ATOM      3  N   UNL     1      14.993   8.294  18.766  0.00  0.00    -0.299 N 
ATOM      4  N   UNL     1      12.077   7.846  19.959  0.00  0.00    -0.311 N 
ATOM      7  C   UNL     1      12.885   7.820  17.527  0.00  0.00    +0.027 C 
ATOM      8  C   UNL     1      13.073   9.876  18.860  0.00  0.00    +0.054 C 
ATOM      9  C   UNL     1      12.542   9.301  17.548  0.00  0.00    +0.018 C 
ATOM     10  C   UNL     1      14.406   7.611  17.613  0.00  0.00    +0.113 C 
ATOM     11  C   UNL     1      12.147   7.133  18.676  0.00  0.00    +0.130 C 
ATOM     12  C   UNL     1      14.605   9.703  18.913  0.00  0.00    +0.117 C 
ATOM     13  C   UNL     1      12.423   9.207  20.074  0.00  0.00    +0.034 A 
ATOM     14  C   UNL     1      12.200   9.865  21.242  0.00  0.00    +0.002 A 
ATOM     15  C   UNL     1      11.531   7.113  21.029  0.00  0.00    +0.252 A 
ATOM     16  C   UNL     1      15.901   7.619  19.582  0.00  0.00    +0.230 C 
ATOM     17  C   UNL     1      11.641   9.140  22.368  0.00  0.00    +0.015 A 
ATOM     18  C   UNL     1      11.332   7.846  22.300  0.00  0.00    +0.071 A 
ENDROOT
BRANCH  14  19
ATOM     19  C   UNL     1      12.529  11.298  21.404  0.00  0.00    -0.015 A 
ATOM     21  C   UNL     1      11.608  12.268  21.022  0.00  0.00    +0.027 A 
ATOM     22  C   UNL     1      13.762  11.666  21.935  0.00  0.00    +0.008 A 
ATOM     23  C   UNL     1      11.922  13.619  21.172  0.00  0.00    +0.052 A 
ATOM     24  C   UNL     1      14.076  13.017  22.087  0.00  0.00    +0.002 A 
ATOM     27  C   UNL     1      13.155  13.993  21.706  0.00  0.00    +0.019 A 
BRANCH  23  28
ATOM      6  N   UNL     1      10.213  15.432  20.464  0.00  0.00    -0.191 NA
ATOM     28  C   UNL     1      10.979  14.619  20.782  0.00  0.00    +0.099 C 
ENDBRANCH  23  28
ENDBRANCH  14  19
BRANCH  16  20
ATOM     20  C   UNL     1      15.990   8.076  21.015  0.00  0.00    +0.180 C 
BRANCH  20   5
ATOM      5  N   UNL     1      17.224   8.824  21.126  0.00  0.00    -0.300 NA
ATOM     25  C   UNL     1      18.250   8.046  21.832  0.00  0.00    +0.105 C 
ATOM     26  C   UNL     1      17.006  10.102  21.815  0.00  0.00    +0.105 C 
ENDBRANCH  20   5
ENDBRANCH  16  20
TORSDOF 4
ENDMDL
MODEL 4
REMARK VINA RESULT:      -6.2     13.860     16.778
REMARK  Name = 7662744
REMARK  6 active torsions:
REMARK  status: ('A' for Active; 'I' for Inactive)
REMARK    1  A    between atoms: N_5  and  C_20
REMARK    2  A    between atoms: N_5  and  C_25
REMARK    3  A    between atoms: N_5  and  C_26
REMARK    4  A    between atoms: C_14  and  C_19
REMARK    5  A    between atoms: C_16  and  C_20
REMARK    6  A    between atoms: C_23  and  C_28
REMARK                            x       y       z     vdW  Elec       q    Type
REMARK                         _______ _______ _______ _____ _____    ______ ____
ROOT
ATOM      1  O   UNL     1       7.268   9.028   4.210  0.00  0.00    -0.268 OA
ATOM      2  O   UNL     1      11.924   9.701   7.511  0.00  0.00    -0.274 OA
ATOM      3  N   UNL     1      11.301   7.589   6.770  0.00  0.00    -0.299 N 
ATOM      4  N   UNL     1       8.812   7.368   4.799  0.00  0.00    -0.311 N 
ATOM      7  C   UNL     1       9.070   6.578   7.224  0.00  0.00    +0.027 C 
ATOM      8  C   UNL     1      10.499   5.627   5.465  0.00  0.00    +0.054 C 
ATOM      9  C   UNL     1       9.537   5.274   6.598  0.00  0.00    +0.018 C 
ATOM     10  C   UNL     1      10.264   7.375   7.779  0.00  0.00    +0.113 C 
ATOM     11  C   UNL     1       8.292   7.371   6.174  0.00  0.00    +0.130 C 
ATOM     12  C   UNL     1      11.714   6.383   6.041  0.00  0.00    +0.117 C 
ATOM     13  C   UNL     1       9.815   6.469   4.385  0.00  0.00    +0.034 A 
ATOM     14  C   UNL     1      10.158   6.397   3.072  0.00  0.00    +0.002 A 
ATOM     15  C   UNL     1       8.159   8.235   3.904  0.00  0.00    +0.252 A 
ATOM     16  C   UNL     1      11.863   8.857   6.614  0.00  0.00    +0.230 C 
ATOM     17  C   UNL     1       9.508   7.279   2.120  0.00  0.00    +0.015 A 
ATOM     18  C   UNL     1       8.578   8.160   2.486  0.00  0.00    +0.071 A 
ENDROOT
BRANCH  14  19
ATOM     19  C   UNL     1      11.192   5.457   2.588  0.00  0.00    -0.015 A 
ATOM     21  C   UNL     1      12.429   5.940   2.173  0.00  0.00    +0.027 A 
ATOM     22  C   UNL     1      10.918   4.093   2.547  0.00  0.00    +0.008 A 
ATOM     23  C   UNL     1      13.401   5.052   1.714  0.00  0.00    +0.052 A 
ATOM     24  C   UNL     1      11.890   3.203   2.089  0.00  0.00    +0.002 A 
ATOM     27  C   UNL     1      13.132   3.683   1.672  0.00  0.00    +0.019 A 
BRANCH  23  28
ATOM      6  N   UNL     1      15.707   5.942   0.939  0.00  0.00    -0.191 NA
ATOM     28  C   UNL     1      14.674   5.543   1.287  0.00  0.00    +0.099 C 
ENDBRANCH  23  28
ENDBRANCH  14  19
BRANCH  16  20
ATOM     20  C   UNL     1      12.412   9.189   5.250  0.00  0.00    +0.180 C 
BRANCH  20   5
ATOM      5  N   UNL     1      13.852   9.227   5.391  0.00  0.00    -0.300 NA
ATOM     25  C   UNL     1      14.372  10.573   5.123  0.00  0.00    +0.105 C 
ATOM     26  C   UNL     1      14.495   8.256   4.497  0.00  0.00    +0.105 C 
ENDBRANCH  20   5
ENDBRANCH  16  20
TORSDOF 4
ENDMDL
MODEL 5
REMARK VINA RESULT:      -6.1     26.863     29.310
REMARK  Name = 7662744
REMARK  6 active torsions:
REMARK  status: ('A' for Active; 'I' for Inactive)
REMARK    1  A    between atoms: N_5  and  C_20
REMARK    2  A    between atoms: N_5  and  C_25
REMARK    3  A    between atoms: N_5  and  C_26
REMARK    4  A    between atoms: C_14  and  C_19
REMARK    5  A    between atoms: C_16  and  C_20
REMARK    6  A    between atoms: C_23  and  C_28
REMARK                            x       y       z     vdW  Elec       q    Type
REMARK                         _______ _______ _______ _____ _____    ______ ____
ROOT
ATOM      1  O   UNL     1      -1.036 -12.521  13.672  0.00  0.00    -0.268 OA
ATOM      2  O   UNL     1      -6.176 -12.660  11.105  0.00  0.00    -0.274 OA
ATOM      3  N   UNL     1      -5.946 -13.332  13.317  0.00  0.00    -0.299 N 
ATOM      4  N   UNL     1      -3.086 -13.036  14.682  0.00  0.00    -0.311 N 
ATOM      7  C   UNL     1      -4.400 -15.144  14.046  0.00  0.00    +0.027 C 
ATOM      8  C   UNL     1      -5.313 -13.583  15.712  0.00  0.00    +0.054 C 
ATOM      9  C   UNL     1      -4.957 -15.047  15.458  0.00  0.00    +0.018 C 
ATOM     10  C   UNL     1      -5.440 -14.671  13.016  0.00  0.00    +0.113 C 
ATOM     11  C   UNL     1      -3.111 -14.325  13.975  0.00  0.00    +0.130 C 
ATOM     12  C   UNL     1      -6.391 -13.135  14.703  0.00  0.00    +0.117 C 
ATOM     13  C   UNL     1      -4.083 -12.677  15.609  0.00  0.00    +0.034 A 
ATOM     14  C   UNL     1      -3.943 -11.546  16.350  0.00  0.00    +0.002 A 
ATOM     15  C   UNL     1      -1.943 -12.247  14.459  0.00  0.00    +0.252 A 
ATOM     16  C   UNL     1      -6.037 -12.382  12.299  0.00  0.00    +0.230 C 
ATOM     17  C   UNL     1      -2.778 -10.705  16.144  0.00  0.00    +0.015 A 
ATOM     18  C   UNL     1      -1.833 -11.003  15.254  0.00  0.00    +0.071 A 
ENDROOT
BRANCH  14  19
ATOM     19  C   UNL     1      -4.954 -11.138  17.349  0.00  0.00    -0.015 A 
ATOM     21  C   UNL     1      -6.042 -10.364  16.957  0.00  0.00    +0.027 A 
ATOM     22  C   UNL     1      -4.809 -11.529  18.676  0.00  0.00    +0.008 A 
ATOM     23  C   UNL     1      -6.994  -9.978  17.900  0.00  0.00    +0.052 A 
ATOM     24  C   UNL     1      -5.760 -11.143  19.621  0.00  0.00    +0.002 A 
ATOM     27  C   UNL     1      -6.853 -10.368  19.232  0.00  0.00    +0.019 A 
BRANCH  23  28
ATOM      6  N   UNL     1      -9.023  -8.538  17.180  0.00  0.00    -0.191 NA
ATOM     28  C   UNL     1      -8.113  -9.184  17.503  0.00  0.00    +0.099 C 
ENDBRANCH  23  28
ENDBRANCH  14  19
BRANCH  16  20
ATOM     20  C   UNL     1      -5.949 -10.936  12.714  0.00  0.00    +0.180 C 
BRANCH  20   5
ATOM      5  N   UNL     1      -5.185 -10.265  11.685  0.00  0.00    -0.300 NA
ATOM     25  C   UNL     1      -3.755 -10.253  12.015  0.00  0.00    +0.105 C 
ATOM     26  C   UNL     1      -5.662  -8.891  11.486  0.00  0.00    +0.105 C 
ENDBRANCH  20   5
ENDBRANCH  16  20
TORSDOF 4
ENDMDL
MODEL 6
REMARK VINA RESULT:      -6.1     25.873     28.726
REMARK  Name = 7662744
REMARK  6 active torsions:
REMARK  status: ('A' for Active; 'I' for Inactive)
REMARK    1  A    between atoms: N_5  and  C_20
REMARK    2  A    between atoms: N_5  and  C_25
REMARK    3  A    between atoms: N_5  and  C_26
REMARK    4  A    between atoms: C_14  and  C_19
REMARK    5  A    between atoms: C_16  and  C_20
REMARK    6  A    between atoms: C_23  and  C_28
REMARK                            x       y       z     vdW  Elec       q    Type
REMARK                         _______ _______ _______ _____ _____    ______ ____
ROOT
ATOM      1  O   UNL     1      -7.269 -14.814  17.158  0.00  0.00    -0.268 OA
ATOM      2  O   UNL     1      -9.518  -9.877  15.264  0.00  0.00    -0.274 OA
ATOM      3  N   UNL     1      -7.485  -9.890  16.387  0.00  0.00    -0.299 N 
ATOM      4  N   UNL     1      -6.256 -12.703  17.225  0.00  0.00    -0.311 N 
ATOM      7  C   UNL     1      -7.192 -10.813  18.682  0.00  0.00    +0.027 C 
ATOM      8  C   UNL     1      -5.218 -10.414  17.273  0.00  0.00    +0.054 C 
ATOM      9  C   UNL     1      -5.757 -10.310  18.698  0.00  0.00    +0.018 C 
ATOM     10  C   UNL     1      -8.056  -9.967  17.732  0.00  0.00    +0.113 C 
ATOM     11  C   UNL     1      -7.185 -12.290  18.286  0.00  0.00    +0.130 C 
ATOM     12  C   UNL     1      -6.063  -9.523  16.338  0.00  0.00    +0.117 C 
ATOM     13  C   UNL     1      -5.222 -11.860  16.771  0.00  0.00    +0.034 A 
ATOM     14  C   UNL     1      -4.295 -12.336  15.899  0.00  0.00    +0.002 A 
ATOM     15  C   UNL     1      -6.395 -14.032  16.784  0.00  0.00    +0.252 A 
ATOM     16  C   UNL     1      -8.304 -10.091  15.276  0.00  0.00    +0.230 C 
ATOM     17  C   UNL     1      -4.409 -13.701  15.420  0.00  0.00    +0.015 A 
ATOM     18  C   UNL     1      -5.392 -14.513  15.807  0.00  0.00    +0.071 A 
ENDROOT
BRANCH  14  19
ATOM     19  C   UNL     1      -3.182 -11.495  15.409  0.00  0.00    -0.015 A 
ATOM     21  C   UNL     1      -3.108 -11.159  14.061  0.00  0.00    +0.027 A 
ATOM     22  C   UNL     1      -2.212 -11.047  16.301  0.00  0.00    +0.008 A 
ATOM     23  C   UNL     1      -2.057 -10.368  13.600  0.00  0.00    +0.052 A 
ATOM     24  C   UNL     1      -1.160 -10.254  15.841  0.00  0.00    +0.002 A 
ATOM     27  C   UNL     1      -1.083  -9.915  14.490  0.00  0.00    +0.019 A 
BRANCH  23  28
ATOM      6  N   UNL     1      -1.912  -9.736  11.092  0.00  0.00    -0.191 NA
ATOM     28  C   UNL     1      -1.977 -10.019  12.216  0.00  0.00    +0.099 C 
ENDBRANCH  23  28
ENDBRANCH  14  19
BRANCH  16  20
ATOM     20  C   UNL     1      -7.635 -10.613  14.030  0.00  0.00    +0.180 C 
BRANCH  20   5
ATOM      5  N   UNL     1      -7.708  -9.547  13.054  0.00  0.00    -0.300 NA
ATOM     25  C   UNL     1      -8.549  -9.932  11.915  0.00  0.00    +0.105 C 
ATOM     26  C   UNL     1      -6.369  -9.173  12.581  0.00  0.00    +0.105 C 
ENDBRANCH  20   5
ENDBRANCH  16  20
TORSDOF 4
ENDMDL
MODEL 7
REMARK VINA RESULT:      -5.9     15.944     19.489
REMARK  Name = 7662744
REMARK  6 active torsions:
REMARK  status: ('A' for Active; 'I' for Inactive)
REMARK    1  A    between atoms: N_5  and  C_20
REMARK    2  A    between atoms: N_5  and  C_25
REMARK    3  A    between atoms: N_5  and  C_26
REMARK    4  A    between atoms: C_14  and  C_19
REMARK    5  A    between atoms: C_16  and  C_20
REMARK    6  A    between atoms: C_23  and  C_28
REMARK                            x       y       z     vdW  Elec       q    Type
REMARK                         _______ _______ _______ _____ _____    ______ ____
ROOT
ATOM      1  O   UNL     1      15.270   6.828   0.965  0.00  0.00    -0.268 OA
ATOM      2  O   UNL     1      10.757   5.240  -2.220  0.00  0.00    -0.274 OA
ATOM      3  N   UNL     1      10.999   4.456  -0.047  0.00  0.00    -0.299 N 
ATOM      4  N   UNL     1      13.440   5.550   1.677  0.00  0.00    -0.311 N 
ATOM      7  C   UNL     1      13.002   3.203   0.744  0.00  0.00    +0.027 C 
ATOM      8  C   UNL     1      11.454   4.181   2.385  0.00  0.00    +0.054 C 
ATOM      9  C   UNL     1      12.317   2.958   2.080  0.00  0.00    +0.018 C 
ATOM     10  C   UNL     1      11.962   3.405  -0.372  0.00  0.00    +0.113 C 
ATOM     11  C   UNL     1      13.928   4.410   0.888  0.00  0.00    +0.130 C 
ATOM     12  C   UNL     1      10.386   4.344   1.284  0.00  0.00    +0.117 C 
ATOM     13  C   UNL     1      12.299   5.453   2.497  0.00  0.00    +0.034 A 
ATOM     14  C   UNL     1      11.970   6.481   3.323  0.00  0.00    +0.002 A 
ATOM     15  C   UNL     1      14.255   6.696   1.650  0.00  0.00    +0.252 A 
ATOM     16  C   UNL     1      10.679   5.421  -1.002  0.00  0.00    +0.230 C 
ATOM     17  C   UNL     1      12.786   7.681   3.320  0.00  0.00    +0.015 A 
ATOM     18  C   UNL     1      13.854   7.814   2.534  0.00  0.00    +0.071 A 
ENDROOT
BRANCH  14  19
ATOM     19  C   UNL     1      10.792   6.417   4.215  0.00  0.00    -0.015 A 
ATOM     21  C   UNL     1      10.885   5.768   5.442  0.00  0.00    +0.027 A 
ATOM     22  C   UNL     1       9.595   7.006   3.818  0.00  0.00    +0.008 A 
ATOM     23  C   UNL     1       9.773   5.707   6.280  0.00  0.00    +0.052 A 
ATOM     24  C   UNL     1       8.481   6.946   4.656  0.00  0.00    +0.002 A 
ATOM     27  C   UNL     1       8.571   6.296   5.888  0.00  0.00    +0.019 A 
BRANCH  23  28
ATOM      6  N   UNL     1       9.937   4.501   8.567  0.00  0.00    -0.191 NA
ATOM     28  C   UNL     1       9.864   5.042   7.542  0.00  0.00    +0.099 C 
ENDBRANCH  23  28
ENDBRANCH  14  19
BRANCH  16  20
ATOM     20  C   UNL     1      10.223   6.761  -0.483  0.00  0.00    +0.180 C 
BRANCH  20   5
ATOM      5  N   UNL     1      10.810   7.754  -1.355  0.00  0.00    -0.300 NA
ATOM     25  C   UNL     1      12.012   8.341  -0.751  0.00  0.00    +0.105 C 
ATOM     26  C   UNL     1       9.843   8.813  -1.672  0.00  0.00    +0.105 C 
ENDBRANCH  20   5
ENDBRANCH  16  20
TORSDOF 4
ENDMDL
MODEL 8
REMARK VINA RESULT:      -5.8     27.511     29.293
REMARK  Name = 7662744
REMARK  6 active torsions:
REMARK  status: ('A' for Active; 'I' for Inactive)
REMARK    1  A    between atoms: N_5  and  C_20
REMARK    2  A    between atoms: N_5  and  C_25
REMARK    3  A    between atoms: N_5  and  C_26
REMARK    4  A    between atoms: C_14  and  C_19
REMARK    5  A    between atoms: C_16  and  C_20
REMARK    6  A    between atoms: C_23  and  C_28
REMARK                            x       y       z     vdW  Elec       q    Type
REMARK                         _______ _______ _______ _____ _____    ______ ____
ROOT
ATOM      1  O   UNL     1      -7.190 -14.888  16.983  0.00  0.00    -0.268 OA
ATOM      2  O   UNL     1      -8.561  -9.343  17.616  0.00  0.00    -0.274 OA
ATOM      3  N   UNL     1      -6.367  -9.971  17.185  0.00  0.00    -0.299 N 
ATOM      4  N   UNL     1      -5.765 -13.054  16.673  0.00  0.00    -0.311 N 
ATOM      7  C   UNL     1      -5.081 -11.543  18.628  0.00  0.00    +0.027 C 
ATOM      8  C   UNL     1      -4.281 -11.050  16.357  0.00  0.00    +0.054 C 
ATOM      9  C   UNL     1      -3.834 -11.280  17.799  0.00  0.00    +0.018 C 
ATOM     10  C   UNL     1      -6.043 -10.344  18.561  0.00  0.00    +0.113 C 
ATOM     11  C   UNL     1      -5.736 -12.830  18.125  0.00  0.00    +0.130 C 
ATOM     12  C   UNL     1      -5.207  -9.817  16.297  0.00  0.00    +0.117 C 
ATOM     13  C   UNL     1      -4.996 -12.277  15.785  0.00  0.00    +0.034 A 
ATOM     14  C   UNL     1      -4.936 -12.613  14.470  0.00  0.00    +0.002 A 
ATOM     15  C   UNL     1      -6.513 -14.167  16.249  0.00  0.00    +0.252 A 
ATOM     16  C   UNL     1      -7.693  -9.726  16.828  0.00  0.00    +0.230 C 
ATOM     17  C   UNL     1      -5.698 -13.753  13.995  0.00  0.00    +0.015 A 
ATOM     18  C   UNL     1      -6.457 -14.490  14.805  0.00  0.00    +0.071 A 
ENDROOT
BRANCH  14  19
ATOM     19  C   UNL     1      -4.128 -11.838  13.503  0.00  0.00    -0.015 A 
ATOM     21  C   UNL     1      -4.734 -10.861  12.720  0.00  0.00    +0.027 A 
ATOM     22  C   UNL     1      -2.766 -12.094  13.382  0.00  0.00    +0.008 A 
ATOM     23  C   UNL     1      -3.971 -10.133  11.807  0.00  0.00    +0.052 A 
ATOM     24  C   UNL     1      -2.001 -11.366  12.470  0.00  0.00    +0.002 A 
ATOM     27  C   UNL     1      -2.605 -10.385  11.682  0.00  0.00    +0.019 A 
BRANCH  23  28
ATOM      6  N   UNL     1      -5.090  -8.312  10.344  0.00  0.00    -0.191 NA
ATOM     28  C   UNL     1      -4.589  -9.128  11.000  0.00  0.00    +0.099 C 
ENDBRANCH  23  28
ENDBRANCH  14  19
BRANCH  16  20
ATOM     20  C   UNL     1      -8.058  -9.962  15.384  0.00  0.00    +0.180 C 
BRANCH  20   5
ATOM      5  N   UNL     1      -9.374 -10.564  15.394  0.00  0.00    -0.300 NA
ATOM     25  C   UNL     1      -9.301 -11.994  15.070  0.00  0.00    +0.105 C 
ATOM     26  C   UNL     1     -10.271  -9.885  14.450  0.00  0.00    +0.105 C 
ENDBRANCH  20   5
ENDBRANCH  16  20
TORSDOF 4
ENDMDL
MODEL 9
REMARK VINA RESULT:      -5.5     13.234     15.673
REMARK  Name = 7662744
REMARK  6 active torsions:
REMARK  status: ('A' for Active; 'I' for Inactive)
REMARK    1  A    between atoms: N_5  and  C_20
REMARK    2  A    between atoms: N_5  and  C_25
REMARK    3  A    between atoms: N_5  and  C_26
REMARK    4  A    between atoms: C_14  and  C_19
REMARK    5  A    between atoms: C_16  and  C_20
REMARK    6  A    between atoms: C_23  and  C_28
REMARK                            x       y       z     vdW  Elec       q    Type
REMARK                         _______ _______ _______ _____ _____    ______ ____
ROOT
ATOM      1  O   UNL     1      20.717  -5.474  22.548  0.00  0.00    -0.268 OA
ATOM      2  O   UNL     1      20.210  -0.438  25.270  0.00  0.00    -0.274 OA
ATOM      3  N   UNL     1      18.371  -1.837  25.031  0.00  0.00    -0.299 N 
ATOM      4  N   UNL     1      18.819  -4.677  23.666  0.00  0.00    -0.311 N 
ATOM      7  C   UNL     1      17.529  -2.629  22.824  0.00  0.00    +0.027 C 
ATOM      8  C   UNL     1      16.811  -3.771  24.879  0.00  0.00    +0.054 C 
ATOM      9  C   UNL     1      16.338  -3.275  23.514  0.00  0.00    +0.018 C 
ATOM     10  C   UNL     1      18.066  -1.450  23.654  0.00  0.00    +0.113 C 
ATOM     11  C   UNL     1      18.596  -3.699  22.593  0.00  0.00    +0.130 C 
ATOM     12  C   UNL     1      17.303  -2.574  25.718  0.00  0.00    +0.117 C 
ATOM     13  C   UNL     1      17.924  -4.815  24.745  0.00  0.00    +0.034 A 
ATOM     14  C   UNL     1      18.085  -5.831  25.633  0.00  0.00    +0.002 A 
ATOM     15  C   UNL     1      19.914  -5.540  23.479  0.00  0.00    +0.252 A 
ATOM     16  C   UNL     1      19.578  -1.442  25.608  0.00  0.00    +0.230 C 
ATOM     17  C   UNL     1      19.206  -6.740  25.473  0.00  0.00    +0.015 A 
ATOM     18  C   UNL     1      20.086  -6.617  24.481  0.00  0.00    +0.071 A 
ENDROOT
BRANCH  14  19
ATOM     19  C   UNL     1      17.160  -6.027  26.770  0.00  0.00    -0.015 A 
ATOM     21  C   UNL     1      17.449  -5.455  28.005  0.00  0.00    +0.027 A 
ATOM     22  C   UNL     1      16.007  -6.786  26.597  0.00  0.00    +0.008 A 
ATOM     23  C   UNL     1      16.577  -5.643  29.077  0.00  0.00    +0.052 A 
ATOM     24  C   UNL     1      15.133  -6.974  27.669  0.00  0.00    +0.002 A 
ATOM     27  C   UNL     1      15.419  -6.402  28.909  0.00  0.00    +0.019 A 
BRANCH  23  28
ATOM      6  N   UNL     1      17.107  -4.582  31.380  0.00  0.00    -0.191 NA
ATOM     28  C   UNL     1      16.870  -5.058  30.348  0.00  0.00    +0.099 C 
ENDBRANCH  23  28
ENDBRANCH  14  19
BRANCH  16  20
ATOM     20  C   UNL     1      20.122  -2.322  26.705  0.00  0.00    +0.180 C 
BRANCH  20   5
ATOM      5  N   UNL     1      20.024  -1.553  27.927  0.00  0.00    -0.300 NA
ATOM     25  C   UNL     1      21.354  -1.264  28.476  0.00  0.00    +0.105 C 
ATOM     26  C   UNL     1      19.213  -2.257  28.929  0.00  0.00    +0.105 C 
ENDBRANCH  20   5
ENDBRANCH  16  20
TORSDOF 4
ENDMDL
MODEL 10
REMARK VINA RESULT:      -5.4     13.132     16.064
REMARK  Name = 7662744
REMARK  6 active torsions:
REMARK  status: ('A' for Active; 'I' for Inactive)
REMARK    1  A    between atoms: N_5  and  C_20
REMARK    2  A    between atoms: N_5  and  C_25
REMARK    3  A    between atoms: N_5  and  C_26
REMARK    4  A    between atoms: C_14  and  C_19
REMARK    5  A    between atoms: C_16  and  C_20
REMARK    6  A    between atoms: C_23  and  C_28
REMARK                            x       y       z     vdW  Elec       q    Type
REMARK                         _______ _______ _______ _____ _____    ______ ____
ROOT
ATOM      1  O   UNL     1      21.967  -0.394  29.273  0.00  0.00    -0.268 OA
ATOM      2  O   UNL     1      20.955  -6.045  29.524  0.00  0.00    -0.274 OA
ATOM      3  N   UNL     1      19.358  -4.601  28.654  0.00  0.00    -0.299 N 
ATOM      4  N   UNL     1      20.107  -1.518  28.399  0.00  0.00    -0.311 N 
ATOM      7  C   UNL     1      18.406  -2.681  29.924  0.00  0.00    +0.027 C 
ATOM      8  C   UNL     1      18.132  -2.777  27.483  0.00  0.00    +0.054 C 
ATOM      9  C   UNL     1      17.427  -2.419  28.790  0.00  0.00    +0.018 C 
ATOM     10  C   UNL     1      18.834  -4.159  29.945  0.00  0.00    +0.113 C 
ATOM     11  C   UNL     1      19.602  -1.742  29.761  0.00  0.00    +0.130 C 
ATOM     12  C   UNL     1      18.513  -4.272  27.498  0.00  0.00    +0.117 C 
ATOM     13  C   UNL     1      19.379  -1.915  27.260  0.00  0.00    +0.034 A 
ATOM     14  C   UNL     1      19.809  -1.555  26.023  0.00  0.00    +0.002 A 
ATOM     15  C   UNL     1      21.300  -0.778  28.312  0.00  0.00    +0.252 A 
ATOM     16  C   UNL     1      20.541  -5.337  28.603  0.00  0.00    +0.230 C 
ATOM     17  C   UNL     1      21.038  -0.794  25.894  0.00  0.00    +0.015 A 
ATOM     18  C   UNL     1      21.764  -0.430  26.950  0.00  0.00    +0.071 A 
ENDROOT
BRANCH  14  19
ATOM     19  C   UNL     1      19.068  -1.933  24.800  0.00  0.00    -0.015 A 
ATOM     21  C   UNL     1      19.309  -3.163  24.196  0.00  0.00    +0.027 A 
ATOM     22  C   UNL     1      18.136  -1.053  24.259  0.00  0.00    +0.008 A 
ATOM     23  C   UNL     1      18.612  -3.517  23.041  0.00  0.00    +0.052 A 
ATOM     24  C   UNL     1      17.437  -1.406  23.104  0.00  0.00    +0.002 A 
ATOM     27  C   UNL     1      17.675  -2.639  22.496  0.00  0.00    +0.019 A 
BRANCH  23  28
ATOM      6  N   UNL     1      19.054  -5.805  21.910  0.00  0.00    -0.191 NA
ATOM     28  C   UNL     1      18.855  -4.779  22.417  0.00  0.00    +0.099 C 
ENDBRANCH  23  28
ENDBRANCH  14  19
BRANCH  16  20
ATOM     20  C   UNL     1      21.348  -5.234  27.333  0.00  0.00    +0.180 C 
BRANCH  20   5
ATOM      5  N   UNL     1      21.312  -6.545  26.723  0.00  0.00    -0.300 NA
ATOM     25  C   UNL     1      22.664  -7.100  26.589  0.00  0.00    +0.105 C 
ATOM     26  C   UNL     1      20.661  -6.496  25.408  0.00  0.00    +0.105 C 
ENDBRANCH  20   5
ENDBRANCH  16  20
TORSDOF 4
ENDMDL
