MODEL 1
REMARK VINA RESULT:      -7.3      0.000      0.000
REMARK  Name = 40777670
REMARK  7 active torsions:
REMARK  status: ('A' for Active; 'I' for Inactive)
REMARK    1  A    between atoms: N_5  and  C_9
REMARK    2  A    between atoms: N_6  and  C_14
REMARK    3  A    between atoms: N_7  and  C_26
REMARK    4  A    between atoms: C_10  and  C_18
REMARK    5  A    between atoms: C_22  and  C_24
REMARK    6  A    between atoms: C_23  and  C_25
REMARK    7  A    between atoms: C_31  and  C_32
REMARK                            x       y       z     vdW  Elec       q    Type
REMARK                         _______ _______ _______ _____ _____    ______ ____
ROOT
ATOM     10  C   UNL     1      -6.641 -11.181  16.693  0.00  0.00    +0.047 C 
ATOM     13  C   UNL     1      -5.624 -10.023  16.574  0.00  0.00    +0.039 C 
ATOM     14  C   UNL     1      -4.434 -10.571  15.773  0.00  0.00    +0.098 C 
ATOM     19  C   UNL     1      -5.710 -12.363  16.603  0.00  0.00    -0.021 C 
ATOM     20  C   UNL     1      -4.521 -12.030  16.087  0.00  0.00    -0.009 C 
ENDROOT
BRANCH  10  18
ATOM      7  N   UNL     1      -9.275 -11.126  19.247  0.00  0.00    -0.236 N 
ATOM      8  N   UNL     1      -8.227 -11.131  20.089  0.00  0.00    -0.171 NA
ATOM     18  C   UNL     1      -7.550 -11.158  17.908  0.00  0.00    +0.003 A 
ATOM     22  C   UNL     1      -8.922 -11.142  17.929  0.00  0.00    +0.046 A 
ATOM     23  C   UNL     1      -7.176 -11.151  19.265  0.00  0.00    +0.064 A 
ATOM     24  C   UNL     1      -9.905 -11.141  16.827  0.00  0.00    +0.066 C 
ATOM     25  C   UNL     1      -5.814 -11.163  19.829  0.00  0.00    +0.068 C 
BRANCH   7  26
ATOM     26  C   UNL     1     -10.573 -11.106  19.757  0.00  0.00    +0.066 A 
ATOM     27  C   UNL     1     -11.221 -12.303  20.061  0.00  0.00    +0.028 A 
ATOM     28  C   UNL     1     -11.224  -9.889  19.959  0.00  0.00    +0.028 A 
ATOM     29  C   UNL     1     -12.521 -12.282  20.567  0.00  0.00    +0.014 A 
ATOM     30  C   UNL     1     -12.524  -9.869  20.466  0.00  0.00    +0.014 A 
ATOM     31  C   UNL     1     -13.172 -11.066  20.770  0.00  0.00    +0.055 A 
BRANCH  31  32
ATOM      1  F   UNL     1     -15.438 -11.814  20.603  0.00  0.00    -0.166 F 
ATOM      2  F   UNL     1     -15.100  -9.790  21.324  0.00  0.00    -0.166 F 
ATOM      3  F   UNL     1     -14.653 -11.494  22.599  0.00  0.00    -0.166 F 
ATOM     32  C   UNL     1     -14.561 -11.044  21.312  0.00  0.00    +0.417 C 
ENDBRANCH  31  32
ENDBRANCH   7  26
ENDBRANCH  10  18
BRANCH  14   6
ATOM      4  O   UNL     1      -2.467 -11.085  13.715  0.00  0.00    -0.253 OA
ATOM      5  N   UNL     1      -3.953 -10.268  12.132  0.00  0.00    -0.297 N 
ATOM      6  N   UNL     1      -4.568 -10.321  14.343  0.00  0.00    -0.293 N 
ATOM     21  C   UNL     1      -3.561 -10.603  13.423  0.00  0.00    +0.300 C 
ATOM     33  H   UNL     1      -4.850  -9.808  12.007  0.00  0.00    +0.151 HD
ATOM     34  H   UNL     1      -5.422  -9.888  14.005  0.00  0.00    +0.151 HD
BRANCH   5   9
ATOM      9  C   UNL     1      -3.098 -10.456  10.981  0.00  0.00    +0.074 C 
ATOM     11  C   UNL     1      -2.970  -9.160  10.171  0.00  0.00    +0.022 C 
ATOM     12  C   UNL     1      -3.597 -11.611  10.106  0.00  0.00    +0.022 C 
ATOM     15  C   UNL     1      -4.254  -8.814   9.416  0.00  0.00    +0.002 C 
ATOM     16  C   UNL     1      -4.879 -11.260   9.351  0.00  0.00    +0.002 C 
ATOM     17  C   UNL     1      -4.725  -9.973   8.544  0.00  0.00    +0.000 C 
ENDBRANCH   5   9
ENDBRANCH  14   6
TORSDOF 5
ENDMDL
MODEL 2
REMARK VINA RESULT:      -7.2     19.006     21.691
REMARK  Name = 40777670
REMARK  7 active torsions:
REMARK  status: ('A' for Active; 'I' for Inactive)
REMARK    1  A    between atoms: N_5  and  C_9
REMARK    2  A    between atoms: N_6  and  C_14
REMARK    3  A    between atoms: N_7  and  C_26
REMARK    4  A    between atoms: C_10  and  C_18
REMARK    5  A    between atoms: C_22  and  C_24
REMARK    6  A    between atoms: C_23  and  C_25
REMARK    7  A    between atoms: C_31  and  C_32
REMARK                            x       y       z     vdW  Elec       q    Type
REMARK                         _______ _______ _______ _____ _____    ______ ____
ROOT
ATOM     10  C   UNL     1     -15.747   4.263  23.594  0.00  0.00    +0.047 C 
ATOM     13  C   UNL     1     -16.483   4.749  24.863  0.00  0.00    +0.039 C 
ATOM     14  C   UNL     1     -17.293   3.551  25.381  0.00  0.00    +0.098 C 
ATOM     19  C   UNL     1     -16.688   3.177  23.140  0.00  0.00    -0.021 C 
ATOM     20  C   UNL     1     -17.512   2.782  24.117  0.00  0.00    -0.009 C 
ENDROOT
BRANCH  10  18
ATOM      7  N   UNL     1     -14.416   6.627  21.123  0.00  0.00    -0.236 N 
ATOM      8  N   UNL     1     -15.696   7.033  21.068  0.00  0.00    -0.171 NA
ATOM     18  C   UNL     1     -15.423   5.321  22.556  0.00  0.00    +0.003 A 
ATOM     22  C   UNL     1     -14.200   5.603  21.999  0.00  0.00    +0.046 A 
ATOM     23  C   UNL     1     -16.306   6.231  21.945  0.00  0.00    +0.064 A 
ATOM     24  C   UNL     1     -12.872   4.995  22.224  0.00  0.00    +0.066 C 
ATOM     25  C   UNL     1     -17.756   6.373  22.170  0.00  0.00    +0.068 C 
BRANCH   7  26
ATOM     26  C   UNL     1     -13.458   7.249  20.323  0.00  0.00    +0.066 A 
ATOM     27  C   UNL     1     -12.165   7.444  20.808  0.00  0.00    +0.028 A 
ATOM     28  C   UNL     1     -13.795   7.680  19.040  0.00  0.00    +0.028 A 
ATOM     29  C   UNL     1     -11.208   8.069  20.008  0.00  0.00    +0.014 A 
ATOM     30  C   UNL     1     -12.837   8.305  18.240  0.00  0.00    +0.014 A 
ATOM     31  C   UNL     1     -11.544   8.499  18.725  0.00  0.00    +0.055 A 
BRANCH  31  32
ATOM      1  F   UNL     1     -10.109   8.405  16.814  0.00  0.00    -0.166 F 
ATOM      2  F   UNL     1      -9.385   9.482  18.558  0.00  0.00    -0.166 F 
ATOM      3  F   UNL     1     -10.951  10.340  17.316  0.00  0.00    -0.166 F 
ATOM     32  C   UNL     1     -10.520   9.167  17.869  0.00  0.00    +0.417 C 
ENDBRANCH  31  32
ENDBRANCH   7  26
ENDBRANCH  10  18
BRANCH  14   6
ATOM      4  O   UNL     1     -17.959   3.168  28.170  0.00  0.00    -0.253 OA
ATOM      5  N   UNL     1     -16.072   1.840  28.407  0.00  0.00    -0.297 N 
ATOM      6  N   UNL     1     -16.555   2.768  26.364  0.00  0.00    -0.293 N 
ATOM     21  C   UNL     1     -16.955   2.641  27.691  0.00  0.00    +0.300 C 
ATOM     33  H   UNL     1     -15.233   1.512  27.938  0.00  0.00    +0.151 HD
ATOM     34  H   UNL     1     -15.688   2.323  26.078  0.00  0.00    +0.151 HD
BRANCH   5   9
ATOM      9  C   UNL     1     -16.248   1.541  29.812  0.00  0.00    +0.074 C 
ATOM     11  C   UNL     1     -15.881   2.749  30.682  0.00  0.00    +0.022 C 
ATOM     12  C   UNL     1     -15.447   0.300  30.217  0.00  0.00    +0.022 C 
ATOM     15  C   UNL     1     -14.375   3.007  30.718  0.00  0.00    +0.002 C 
ATOM     16  C   UNL     1     -13.941   0.563  30.253  0.00  0.00    +0.002 C 
ATOM     17  C   UNL     1     -13.599   1.761  31.134  0.00  0.00    +0.000 C 
ENDBRANCH   5   9
ENDBRANCH  14   6
TORSDOF 5
ENDMDL
MODEL 3
REMARK VINA RESULT:      -7.1     27.053     29.504
REMARK  Name = 40777670
REMARK  7 active torsions:
REMARK  status: ('A' for Active; 'I' for Inactive)
REMARK    1  A    between atoms: N_5  and  C_9
REMARK    2  A    between atoms: N_6  and  C_14
REMARK    3  A    between atoms: N_7  and  C_26
REMARK    4  A    between atoms: C_10  and  C_18
REMARK    5  A    between atoms: C_22  and  C_24
REMARK    6  A    between atoms: C_23  and  C_25
REMARK    7  A    between atoms: C_31  and  C_32
REMARK                            x       y       z     vdW  Elec       q    Type
REMARK                         _______ _______ _______ _____ _____    ______ ____
ROOT
ATOM     10  C   UNL     1       3.410   6.080  -4.557  0.00  0.00    +0.047 C 
ATOM     13  C   UNL     1       4.893   6.081  -4.121  0.00  0.00    +0.039 C 
ATOM     14  C   UNL     1       5.296   7.553  -3.953  0.00  0.00    +0.098 C 
ATOM     19  C   UNL     1       3.334   7.420  -5.242  0.00  0.00    -0.021 C 
ATOM     20  C   UNL     1       4.349   8.221  -4.897  0.00  0.00    -0.009 C 
ENDROOT
BRANCH  10  18
ATOM      7  N   UNL     1       1.871   3.172  -6.181  0.00  0.00    -0.236 N 
ATOM      8  N   UNL     1       2.887   3.327  -7.047  0.00  0.00    -0.171 NA
ATOM     18  C   UNL     1       2.952   4.896  -5.388  0.00  0.00    +0.003 A 
ATOM     22  C   UNL     1       1.865   4.087  -5.169  0.00  0.00    +0.046 A 
ATOM     23  C   UNL     1       3.544   4.382  -6.558  0.00  0.00    +0.064 A 
ATOM     24  C   UNL     1       0.843   4.111  -4.102  0.00  0.00    +0.066 C 
ATOM     25  C   UNL     1       4.749   4.871  -7.252  0.00  0.00    +0.068 C 
BRANCH   7  26
ATOM     26  C   UNL     1       0.949   2.142  -6.372  0.00  0.00    +0.066 A 
ATOM     27  C   UNL     1       0.947   1.040  -5.517  0.00  0.00    +0.028 A 
ATOM     28  C   UNL     1       0.033   2.214  -7.420  0.00  0.00    +0.028 A 
ATOM     29  C   UNL     1       0.027   0.009  -5.711  0.00  0.00    +0.014 A 
ATOM     30  C   UNL     1      -0.888   1.183  -7.613  0.00  0.00    +0.014 A 
ATOM     31  C   UNL     1      -0.890   0.081  -6.759  0.00  0.00    +0.055 A 
BRANCH  31  32
ATOM      1  F   UNL     1      -3.146  -0.580  -7.198  0.00  0.00    -0.166 F 
ATOM      2  F   UNL     1      -1.966  -1.852  -5.887  0.00  0.00    -0.166 F 
ATOM      3  F   UNL     1      -1.577  -1.827  -8.027  0.00  0.00    -0.166 F 
ATOM     32  C   UNL     1      -1.875  -1.020  -6.966  0.00  0.00    +0.417 C 
ENDBRANCH  31  32
ENDBRANCH   7  26
ENDBRANCH  10  18
BRANCH  14   6
ATOM      4  O   UNL     1       6.263  10.028  -2.810  0.00  0.00    -0.253 OA
ATOM      5  N   UNL     1       5.296   9.437  -0.785  0.00  0.00    -0.297 N 
ATOM      6  N   UNL     1       5.112   8.024  -2.586  0.00  0.00    -0.293 N 
ATOM     21  C   UNL     1       5.617   9.236  -2.124  0.00  0.00    +0.300 C 
ATOM     33  H   UNL     1       4.821   8.688  -0.289  0.00  0.00    +0.151 HD
ATOM     34  H   UNL     1       4.624   7.424  -1.928  0.00  0.00    +0.151 HD
BRANCH   5   9
ATOM      9  C   UNL     1       5.697  10.617  -0.053  0.00  0.00    +0.074 C 
ATOM     11  C   UNL     1       7.038  10.397   0.656  0.00  0.00    +0.022 C 
ATOM     12  C   UNL     1       4.610  11.047   0.938  0.00  0.00    +0.022 C 
ATOM     15  C   UNL     1       6.920   9.448   1.849  0.00  0.00    +0.002 C 
ATOM     16  C   UNL     1       4.496  10.098   2.130  0.00  0.00    +0.002 C 
ATOM     17  C   UNL     1       5.840   9.902   2.826  0.00  0.00    +0.000 C 
ENDBRANCH   5   9
ENDBRANCH  14   6
TORSDOF 5
ENDMDL
MODEL 4
REMARK VINA RESULT:      -7.0      4.985      7.848
REMARK  Name = 40777670
REMARK  7 active torsions:
REMARK  status: ('A' for Active; 'I' for Inactive)
REMARK    1  A    between atoms: N_5  and  C_9
REMARK    2  A    between atoms: N_6  and  C_14
REMARK    3  A    between atoms: N_7  and  C_26
REMARK    4  A    between atoms: C_10  and  C_18
REMARK    5  A    between atoms: C_22  and  C_24
REMARK    6  A    between atoms: C_23  and  C_25
REMARK    7  A    between atoms: C_31  and  C_32
REMARK                            x       y       z     vdW  Elec       q    Type
REMARK                         _______ _______ _______ _____ _____    ______ ____
ROOT
ATOM     10  C   UNL     1      -3.911 -10.396  10.320  0.00  0.00    +0.047 C 
ATOM     13  C   UNL     1      -4.887 -11.459   9.765  0.00  0.00    +0.039 C 
ATOM     14  C   UNL     1      -5.550 -10.836   8.527  0.00  0.00    +0.098 C 
ATOM     19  C   UNL     1      -4.586  -9.138   9.837  0.00  0.00    -0.021 C 
ATOM     20  C   UNL     1      -5.460  -9.380   8.853  0.00  0.00    -0.009 C 
ENDROOT
BRANCH  10  18
ATOM      7  N   UNL     1      -3.789 -10.659  13.977  0.00  0.00    -0.236 N 
ATOM      8  N   UNL     1      -2.490 -10.371  13.788  0.00  0.00    -0.171 NA
ATOM     18  C   UNL     1      -3.627 -10.453  11.809  0.00  0.00    +0.003 A 
ATOM     22  C   UNL     1      -4.514 -10.719  12.823  0.00  0.00    +0.046 A 
ATOM     23  C   UNL     1      -2.397 -10.247  12.462  0.00  0.00    +0.064 A 
ATOM     24  C   UNL     1      -5.959 -11.021  12.787  0.00  0.00    +0.066 C 
ATOM     25  C   UNL     1      -1.093  -9.927  11.854  0.00  0.00    +0.068 C 
BRANCH   7  26
ATOM     26  C   UNL     1      -4.272 -10.863  15.270  0.00  0.00    +0.066 A 
ATOM     27  C   UNL     1      -4.020 -12.067  15.927  0.00  0.00    +0.028 A 
ATOM     28  C   UNL     1      -5.011  -9.864  15.903  0.00  0.00    +0.028 A 
ATOM     29  C   UNL     1      -4.506 -12.271  17.219  0.00  0.00    +0.014 A 
ATOM     30  C   UNL     1      -5.497 -10.069  17.195  0.00  0.00    +0.014 A 
ATOM     31  C   UNL     1      -5.244 -11.273  17.852  0.00  0.00    +0.055 A 
BRANCH  31  32
ATOM      1  F   UNL     1      -6.401 -10.402  19.756  0.00  0.00    -0.166 F 
ATOM      2  F   UNL     1      -4.775 -11.799  20.123  0.00  0.00    -0.166 F 
ATOM      3  F   UNL     1      -6.668 -12.511  19.323  0.00  0.00    -0.166 F 
ATOM     32  C   UNL     1      -5.764 -11.491  19.233  0.00  0.00    +0.417 C 
ENDBRANCH  31  32
ENDBRANCH   7  26
ENDBRANCH  10  18
BRANCH  14   6
ATOM      4  O   UNL     1      -5.948 -13.137   6.820  0.00  0.00    -0.253 OA
ATOM      5  N   UNL     1      -4.273 -12.351   5.419  0.00  0.00    -0.297 N 
ATOM      6  N   UNL     1      -4.835 -11.156   7.298  0.00  0.00    -0.293 N 
ATOM     21  C   UNL     1      -5.098 -12.293   6.538  0.00  0.00    +0.300 C 
ATOM     33  H   UNL     1      -3.554 -11.642   5.317  0.00  0.00    +0.151 HD
ATOM     34  H   UNL     1      -4.085 -10.540   6.999  0.00  0.00    +0.151 HD
BRANCH   5   9
ATOM      9  C   UNL     1      -4.335 -13.429   4.457  0.00  0.00    +0.074 C 
ATOM     11  C   UNL     1      -3.380 -14.565   4.841  0.00  0.00    +0.022 C 
ATOM     12  C   UNL     1      -4.052 -12.920   3.040  0.00  0.00    +0.022 C 
ATOM     15  C   UNL     1      -1.912 -14.190   4.632  0.00  0.00    +0.002 C 
ATOM     16  C   UNL     1      -2.583 -12.548   2.835  0.00  0.00    +0.002 C 
ATOM     17  C   UNL     1      -1.653 -13.697   3.212  0.00  0.00    +0.000 C 
ENDBRANCH   5   9
ENDBRANCH  14   6
TORSDOF 5
ENDMDL
MODEL 5
REMARK VINA RESULT:      -6.9     11.380     17.535
REMARK  Name = 40777670
REMARK  7 active torsions:
REMARK  status: ('A' for Active; 'I' for Inactive)
REMARK    1  A    between atoms: N_5  and  C_9
REMARK    2  A    between atoms: N_6  and  C_14
REMARK    3  A    between atoms: N_7  and  C_26
REMARK    4  A    between atoms: C_10  and  C_18
REMARK    5  A    between atoms: C_22  and  C_24
REMARK    6  A    between atoms: C_23  and  C_25
REMARK    7  A    between atoms: C_31  and  C_32
REMARK                            x       y       z     vdW  Elec       q    Type
REMARK                         _______ _______ _______ _____ _____    ______ ____
ROOT
ATOM     10  C   UNL     1      -2.985 -13.548   5.029  0.00  0.00    +0.047 C 
ATOM     13  C   UNL     1      -3.680 -12.169   5.102  0.00  0.00    +0.039 C 
ATOM     14  C   UNL     1      -5.005 -12.389   5.846  0.00  0.00    +0.098 C 
ATOM     19  C   UNL     1      -4.188 -14.454   5.075  0.00  0.00    -0.021 C 
ATOM     20  C   UNL     1      -5.276 -13.826   5.535  0.00  0.00    -0.009 C 
ENDROOT
BRANCH  10  18
ATOM      7  N   UNL     1      -0.327 -14.246   2.597  0.00  0.00    -0.236 N 
ATOM      8  N   UNL     1      -1.264 -13.862   1.714  0.00  0.00    -0.171 NA
ATOM     18  C   UNL     1      -2.046 -13.769   3.858  0.00  0.00    +0.003 A 
ATOM     22  C   UNL     1      -0.746 -14.208   3.896  0.00  0.00    +0.046 A 
ATOM     23  C   UNL     1      -2.312 -13.573   2.489  0.00  0.00    +0.064 A 
ATOM     24  C   UNL     1       0.113 -14.587   5.036  0.00  0.00    +0.066 C 
ATOM     25  C   UNL     1      -3.565 -13.105   1.869  0.00  0.00    +0.068 C 
BRANCH   7  26
ATOM     26  C   UNL     1       0.934 -14.633   2.145  0.00  0.00    +0.066 A 
ATOM     27  C   UNL     1       1.445 -15.884   2.490  0.00  0.00    +0.028 A 
ATOM     28  C   UNL     1       1.686 -13.767   1.352  0.00  0.00    +0.028 A 
ATOM     29  C   UNL     1       2.708 -16.270   2.040  0.00  0.00    +0.014 A 
ATOM     30  C   UNL     1       2.949 -14.153   0.902  0.00  0.00    +0.014 A 
ATOM     31  C   UNL     1       3.460 -15.404   1.247  0.00  0.00    +0.055 A 
BRANCH  31  32
ATOM      1  F   UNL     1       5.644 -16.232   1.763  0.00  0.00    -0.166 F 
ATOM      2  F   UNL     1       5.472 -14.805   0.131  0.00  0.00    -0.166 F 
ATOM      3  F   UNL     1       4.780 -16.851  -0.128  0.00  0.00    -0.166 F 
ATOM     32  C   UNL     1       4.810 -15.817   0.765  0.00  0.00    +0.417 C 
ENDBRANCH  31  32
ENDBRANCH   7  26
ENDBRANCH  10  18
BRANCH  14   6
ATOM      4  O   UNL     1      -5.160  -9.861   7.244  0.00  0.00    -0.253 OA
ATOM      5  N   UNL     1      -4.809 -10.980   9.246  0.00  0.00    -0.297 N 
ATOM      6  N   UNL     1      -4.877 -12.166   7.281  0.00  0.00    -0.293 N 
ATOM     21  C   UNL     1      -4.967 -10.906   7.866  0.00  0.00    +0.300 C 
ATOM     33  H   UNL     1      -4.581 -11.881   9.654  0.00  0.00    +0.151 HD
ATOM     34  H   UNL     1      -4.677 -12.961   7.880  0.00  0.00    +0.151 HD
BRANCH   5   9
ATOM      9  C   UNL     1      -4.858  -9.816  10.103  0.00  0.00    +0.074 C 
ATOM     11  C   UNL     1      -3.473  -9.172  10.236  0.00  0.00    +0.022 C 
ATOM     12  C   UNL     1      -5.442 -10.167  11.476  0.00  0.00    +0.022 C 
ATOM     15  C   UNL     1      -2.518 -10.010  11.086  0.00  0.00    +0.002 C 
ATOM     16  C   UNL     1      -4.483 -11.003  12.323  0.00  0.00    +0.002 C 
ATOM     17  C   UNL     1      -3.116 -10.337  12.450  0.00  0.00    +0.000 C 
ENDBRANCH   5   9
ENDBRANCH  14   6
TORSDOF 5
ENDMDL
MODEL 6
REMARK VINA RESULT:      -6.8      6.052     11.766
REMARK  Name = 40777670
REMARK  7 active torsions:
REMARK  status: ('A' for Active; 'I' for Inactive)
REMARK    1  A    between atoms: N_5  and  C_9
REMARK    2  A    between atoms: N_6  and  C_14
REMARK    3  A    between atoms: N_7  and  C_26
REMARK    4  A    between atoms: C_10  and  C_18
REMARK    5  A    between atoms: C_22  and  C_24
REMARK    6  A    between atoms: C_23  and  C_25
REMARK    7  A    between atoms: C_31  and  C_32
REMARK                            x       y       z     vdW  Elec       q    Type
REMARK                         _______ _______ _______ _____ _____    ______ ____
ROOT
ATOM     10  C   UNL     1     -10.156 -10.895  18.841  0.00  0.00    +0.047 C 
ATOM     13  C   UNL     1     -10.755  -9.932  19.892  0.00  0.00    +0.039 C 
ATOM     14  C   UNL     1     -12.232 -10.322  20.046  0.00  0.00    +0.098 C 
ATOM     19  C   UNL     1     -11.392 -11.217  18.041  0.00  0.00    -0.021 C 
ATOM     20  C   UNL     1     -12.515 -10.921  18.706  0.00  0.00    -0.009 C 
ENDROOT
BRANCH  10  18
ATOM      7  N   UNL     1      -7.056 -10.135  17.032  0.00  0.00    -0.236 N 
ATOM      8  N   UNL     1      -7.692  -8.983  16.762  0.00  0.00    -0.171 NA
ATOM     18  C   UNL     1      -8.979 -10.371  18.039  0.00  0.00    +0.003 A 
ATOM     22  C   UNL     1      -7.784 -11.001  17.794  0.00  0.00    +0.046 A 
ATOM     23  C   UNL     1      -8.866  -9.133  17.379  0.00  0.00    +0.064 A 
ATOM     24  C   UNL     1      -7.288 -12.328  18.212  0.00  0.00    +0.066 C 
ATOM     25  C   UNL     1      -9.865  -8.050  17.311  0.00  0.00    +0.068 C 
BRANCH   7  26
ATOM     26  C   UNL     1      -5.768 -10.348  16.538  0.00  0.00    +0.066 A 
ATOM     27  C   UNL     1      -5.557 -10.456  15.164  0.00  0.00    +0.028 A 
ATOM     28  C   UNL     1      -4.693 -10.456  17.420  0.00  0.00    +0.028 A 
ATOM     29  C   UNL     1      -4.270 -10.672  14.671  0.00  0.00    +0.014 A 
ATOM     30  C   UNL     1      -3.406 -10.672  16.927  0.00  0.00    +0.014 A 
ATOM     31  C   UNL     1      -3.195 -10.780  15.553  0.00  0.00    +0.055 A 
BRANCH  31  32
ATOM      1  F   UNL     1      -1.481 -10.180  13.995  0.00  0.00    -0.166 F 
ATOM      2  F   UNL     1      -1.644 -12.276  14.549  0.00  0.00    -0.166 F 
ATOM      3  F   UNL     1      -0.839 -10.832  15.962  0.00  0.00    -0.166 F 
ATOM     32  C   UNL     1      -1.818 -11.010  15.026  0.00  0.00    +0.417 C 
ENDBRANCH  31  32
ENDBRANCH   7  26
ENDBRANCH  10  18
BRANCH  14   6
ATOM      4  O   UNL     1     -14.654 -10.751  21.569  0.00  0.00    -0.253 OA
ATOM      5  N   UNL     1     -13.570 -12.413  22.770  0.00  0.00    -0.297 N 
ATOM      6  N   UNL     1     -12.440 -11.286  21.119  0.00  0.00    -0.293 N 
ATOM     21  C   UNL     1     -13.648 -11.422  21.798  0.00  0.00    +0.300 C 
ATOM     33  H   UNL     1     -12.671 -12.858  22.930  0.00  0.00    +0.151 HD
ATOM     34  H   UNL     1     -11.657 -11.863  21.412  0.00  0.00    +0.151 HD
BRANCH   5   9
ATOM      9  C   UNL     1     -14.684 -12.762  23.624  0.00  0.00    +0.074 C 
ATOM     11  C   UNL     1     -14.208 -13.093  25.043  0.00  0.00    +0.022 C 
ATOM     12  C   UNL     1     -15.496 -13.916  23.027  0.00  0.00    +0.022 C 
ATOM     15  C   UNL     1     -13.471 -14.431  25.115  0.00  0.00    +0.002 C 
ATOM     16  C   UNL     1     -14.757 -15.251  23.102  0.00  0.00    +0.002 C 
ATOM     17  C   UNL     1     -14.303 -15.565  24.525  0.00  0.00    +0.000 C 
ENDBRANCH   5   9
ENDBRANCH  14   6
TORSDOF 5
ENDMDL
MODEL 7
REMARK VINA RESULT:      -6.8      4.820      7.795
REMARK  Name = 40777670
REMARK  7 active torsions:
REMARK  status: ('A' for Active; 'I' for Inactive)
REMARK    1  A    between atoms: N_5  and  C_9
REMARK    2  A    between atoms: N_6  and  C_14
REMARK    3  A    between atoms: N_7  and  C_26
REMARK    4  A    between atoms: C_10  and  C_18
REMARK    5  A    between atoms: C_22  and  C_24
REMARK    6  A    between atoms: C_23  and  C_25
REMARK    7  A    between atoms: C_31  and  C_32
REMARK                            x       y       z     vdW  Elec       q    Type
REMARK                         _______ _______ _______ _____ _____    ______ ____
ROOT
ATOM     10  C   UNL     1      -5.340 -10.274  10.449  0.00  0.00    +0.047 C 
ATOM     13  C   UNL     1      -4.665  -9.199   9.568  0.00  0.00    +0.039 C 
ATOM     14  C   UNL     1      -4.772  -9.695   8.119  0.00  0.00    +0.098 C 
ATOM     19  C   UNL     1      -5.128 -11.494   9.590  0.00  0.00    -0.021 C 
ATOM     20  C   UNL     1      -4.838 -11.174   8.323  0.00  0.00    -0.009 C 
ENDROOT
BRANCH  10  18
ATOM      7  N   UNL     1      -4.693 -10.581  14.048  0.00  0.00    -0.236 N 
ATOM      8  N   UNL     1      -3.410 -10.505  13.654  0.00  0.00    -0.171 NA
ATOM     18  C   UNL     1      -4.840 -10.388  11.877  0.00  0.00    +0.003 A 
ATOM     22  C   UNL     1      -5.589 -10.516  13.021  0.00  0.00    +0.046 A 
ATOM     23  C   UNL     1      -3.506 -10.387  12.328  0.00  0.00    +0.064 A 
ATOM     24  C   UNL     1      -7.052 -10.582  13.216  0.00  0.00    +0.066 C 
ATOM     25  C   UNL     1      -2.279 -10.275  11.519  0.00  0.00    +0.068 C 
BRANCH   7  26
ATOM     26  C   UNL     1      -4.994 -10.715  15.403  0.00  0.00    +0.066 A 
ATOM     27  C   UNL     1      -5.722  -9.722  16.057  0.00  0.00    +0.028 A 
ATOM     28  C   UNL     1      -4.564 -11.841  16.105  0.00  0.00    +0.028 A 
ATOM     29  C   UNL     1      -6.021  -9.855  17.414  0.00  0.00    +0.014 A 
ATOM     30  C   UNL     1      -4.863 -11.974  17.461  0.00  0.00    +0.014 A 
ATOM     31  C   UNL     1      -5.591 -10.981  18.115  0.00  0.00    +0.055 A 
BRANCH  31  32
ATOM      1  F   UNL     1      -6.196  -9.939  20.182  0.00  0.00    -0.166 F 
ATOM      2  F   UNL     1      -4.883 -11.670  20.278  0.00  0.00    -0.166 F 
ATOM      3  F   UNL     1      -6.992 -11.922  19.810  0.00  0.00    -0.166 F 
ATOM     32  C   UNL     1      -5.911 -11.124  19.565  0.00  0.00    +0.417 C 
ENDBRANCH  31  32
ENDBRANCH   7  26
ENDBRANCH  10  18
BRANCH  14   6
ATOM      4  O   UNL     1      -5.734 -10.410   5.486  0.00  0.00    -0.253 OA
ATOM      5  N   UNL     1      -7.524  -8.963   5.779  0.00  0.00    -0.297 N 
ATOM      6  N   UNL     1      -5.966  -9.192   7.449  0.00  0.00    -0.293 N 
ATOM     21  C   UNL     1      -6.351  -9.597   6.174  0.00  0.00    +0.300 C 
ATOM     33  H   UNL     1      -7.916  -8.254   6.392  0.00  0.00    +0.151 HD
ATOM     34  H   UNL     1      -6.524  -8.486   7.920  0.00  0.00    +0.151 HD
BRANCH   5   9
ATOM      9  C   UNL     1      -8.148  -9.200   4.496  0.00  0.00    +0.074 C 
ATOM     11  C   UNL     1      -8.555  -7.881   3.830  0.00  0.00    +0.022 C 
ATOM     12  C   UNL     1      -9.345 -10.147   4.631  0.00  0.00    +0.022 C 
ATOM     15  C   UNL     1      -9.751  -7.223   4.518  0.00  0.00    +0.002 C 
ATOM     16  C   UNL     1     -10.539  -9.484   5.318  0.00  0.00    +0.002 C 
ATOM     17  C   UNL     1     -10.933  -8.180   4.631  0.00  0.00    +0.000 C 
ENDBRANCH   5   9
ENDBRANCH  14   6
TORSDOF 5
ENDMDL
MODEL 8
REMARK VINA RESULT:      -6.8     30.834     33.639
REMARK  Name = 40777670
REMARK  7 active torsions:
REMARK  status: ('A' for Active; 'I' for Inactive)
REMARK    1  A    between atoms: N_5  and  C_9
REMARK    2  A    between atoms: N_6  and  C_14
REMARK    3  A    between atoms: N_7  and  C_26
REMARK    4  A    between atoms: C_10  and  C_18
REMARK    5  A    between atoms: C_22  and  C_24
REMARK    6  A    between atoms: C_23  and  C_25
REMARK    7  A    between atoms: C_31  and  C_32
REMARK                            x       y       z     vdW  Elec       q    Type
REMARK                         _______ _______ _______ _____ _____    ______ ____
ROOT
ATOM     10  C   UNL     1      16.677   7.357  21.108  0.00  0.00    +0.047 C 
ATOM     13  C   UNL     1      16.261   8.544  20.211  0.00  0.00    +0.039 C 
ATOM     14  C   UNL     1      14.762   8.770  20.457  0.00  0.00    +0.098 C 
ATOM     19  C   UNL     1      15.364   6.625  21.208  0.00  0.00    -0.021 C 
ATOM     20  C   UNL     1      14.327   7.401  20.870  0.00  0.00    -0.009 C 
ENDROOT
BRANCH  10  18
ATOM      7  N   UNL     1      19.773   5.504  20.440  0.00  0.00    -0.236 N 
ATOM      8  N   UNL     1      19.133   5.172  19.306  0.00  0.00    -0.171 NA
ATOM     18  C   UNL     1      17.852   6.526  20.626  0.00  0.00    +0.003 A 
ATOM     22  C   UNL     1      19.048   6.314  21.265  0.00  0.00    +0.046 A 
ATOM     23  C   UNL     1      17.959   5.798  19.426  0.00  0.00    +0.064 A 
ATOM     24  C   UNL     1      19.549   6.804  22.565  0.00  0.00    +0.066 C 
ATOM     25  C   UNL     1      16.958   5.671  18.352  0.00  0.00    +0.068 C 
BRANCH   7  26
ATOM     26  C   UNL     1      21.061   5.021  20.676  0.00  0.00    +0.066 A 
ATOM     27  C   UNL     1      21.242   3.721  21.145  0.00  0.00    +0.028 A 
ATOM     28  C   UNL     1      22.165   5.841  20.445  0.00  0.00    +0.028 A 
ATOM     29  C   UNL     1      22.530   3.240  21.384  0.00  0.00    +0.014 A 
ATOM     30  C   UNL     1      23.452   5.359  20.683  0.00  0.00    +0.014 A 
ATOM     31  C   UNL     1      23.634   4.059  21.153  0.00  0.00    +0.055 A 
BRANCH  31  32
ATOM      1  F   UNL     1      25.483   2.731  20.416  0.00  0.00    -0.166 F 
ATOM      2  F   UNL     1      25.094   2.810  22.554  0.00  0.00    -0.166 F 
ATOM      3  F   UNL     1      25.948   4.530  21.535  0.00  0.00    -0.166 F 
ATOM     32  C   UNL     1      25.012   3.544  21.407  0.00  0.00    +0.417 C 
ENDBRANCH  31  32
ENDBRANCH   7  26
ENDBRANCH  10  18
BRANCH  14   6
ATOM      4  O   UNL     1      12.781  10.879  20.453  0.00  0.00    -0.253 OA
ATOM      5  N   UNL     1      13.516  11.533  22.554  0.00  0.00    -0.297 N 
ATOM      6  N   UNL     1      14.516   9.751  21.507  0.00  0.00    -0.293 N 
ATOM     21  C   UNL     1      13.535  10.734  21.416  0.00  0.00    +0.300 C 
ATOM     33  H   UNL     1      14.229  11.376  23.261  0.00  0.00    +0.151 HD
ATOM     34  H   UNL     1      15.112   9.741  22.329  0.00  0.00    +0.151 HD
BRANCH   5   9
ATOM      9  C   UNL     1      12.593  12.633  22.724  0.00  0.00    +0.074 C 
ATOM     11  C   UNL     1      12.964  13.480  23.947  0.00  0.00    +0.022 C 
ATOM     12  C   UNL     1      11.148  12.131  22.814  0.00  0.00    +0.022 C 
ATOM     15  C   UNL     1      12.670  12.763  25.265  0.00  0.00    +0.002 C 
ATOM     16  C   UNL     1      10.858  11.417  24.134  0.00  0.00    +0.002 C 
ATOM     17  C   UNL     1      11.224  12.283  25.336  0.00  0.00    +0.000 C 
ENDBRANCH   5   9
ENDBRANCH  14   6
TORSDOF 5
ENDMDL
MODEL 9
REMARK VINA RESULT:      -6.7     30.234     32.727
REMARK  Name = 40777670
REMARK  7 active torsions:
REMARK  status: ('A' for Active; 'I' for Inactive)
REMARK    1  A    between atoms: N_5  and  C_9
REMARK    2  A    between atoms: N_6  and  C_14
REMARK    3  A    between atoms: N_7  and  C_26
REMARK    4  A    between atoms: C_10  and  C_18
REMARK    5  A    between atoms: C_22  and  C_24
REMARK    6  A    between atoms: C_23  and  C_25
REMARK    7  A    between atoms: C_31  and  C_32
REMARK                            x       y       z     vdW  Elec       q    Type
REMARK                         _______ _______ _______ _____ _____    ______ ____
ROOT
ATOM     10  C   UNL     1      20.278   7.346  21.610  0.00  0.00    +0.047 C 
ATOM     13  C   UNL     1      20.300   5.981  20.884  0.00  0.00    +0.039 C 
ATOM     14  C   UNL     1      21.742   5.771  20.400  0.00  0.00    +0.098 C 
ATOM     19  C   UNL     1      21.409   8.044  20.899  0.00  0.00    -0.021 C 
ATOM     20  C   UNL     1      22.209   7.184  20.259  0.00  0.00    -0.009 C 
ENDROOT
BRANCH  10  18
ATOM      7  N   UNL     1      16.851   8.642  21.413  0.00  0.00    -0.236 N 
ATOM      8  N   UNL     1      17.424   9.759  21.893  0.00  0.00    -0.171 NA
ATOM     18  C   UNL     1      18.954   8.087  21.614  0.00  0.00    +0.003 A 
ATOM     22  C   UNL     1      17.725   7.611  21.228  0.00  0.00    +0.046 A 
ATOM     23  C   UNL     1      18.708   9.414  22.014  0.00  0.00    +0.064 A 
ATOM     24  C   UNL     1      17.320   6.287  20.712  0.00  0.00    +0.066 C 
ATOM     25  C   UNL     1      19.678  10.400  22.523  0.00  0.00    +0.068 C 
BRANCH   7  26
ATOM     26  C   UNL     1      15.480   8.623  21.155  0.00  0.00    +0.066 A 
ATOM     27  C   UNL     1      14.594   8.161  22.128  0.00  0.00    +0.028 A 
ATOM     28  C   UNL     1      14.997   9.061  19.922  0.00  0.00    +0.028 A 
ATOM     29  C   UNL     1      13.223   8.138  21.867  0.00  0.00    +0.014 A 
ATOM     30  C   UNL     1      13.626   9.038  19.662  0.00  0.00    +0.014 A 
ATOM     31  C   UNL     1      12.740   8.577  20.635  0.00  0.00    +0.055 A 
BRANCH  31  32
ATOM      1  F   UNL     1      10.969   8.642  19.029  0.00  0.00    -0.166 F 
ATOM      2  F   UNL     1      10.611   9.585  20.956  0.00  0.00    -0.166 F 
ATOM      3  F   UNL     1      10.654   7.417  20.791  0.00  0.00    -0.166 F 
ATOM     32  C   UNL     1      11.275   8.554  20.357  0.00  0.00    +0.417 C 
ENDBRANCH  31  32
ENDBRANCH   7  26
ENDBRANCH  10  18
BRANCH  14   6
ATOM      4  O   UNL     1      21.802   2.907  20.802  0.00  0.00    -0.253 OA
ATOM      5  N   UNL     1      23.375   3.205  22.481  0.00  0.00    -0.297 N 
ATOM      6  N   UNL     1      22.547   5.033  21.365  0.00  0.00    -0.293 N 
ATOM     21  C   UNL     1      22.510   3.646  21.486  0.00  0.00    +0.300 C 
ATOM     33  H   UNL     1      23.860   3.902  23.038  0.00  0.00    +0.151 HD
ATOM     34  H   UNL     1      23.138   5.556  22.004  0.00  0.00    +0.151 HD
BRANCH   5   9
ATOM      9  C   UNL     1      23.533   1.808  22.818  0.00  0.00    +0.074 C 
ATOM     11  C   UNL     1      24.096   1.643  24.235  0.00  0.00    +0.022 C 
ATOM     12  C   UNL     1      24.408   1.087  21.786  0.00  0.00    +0.022 C 
ATOM     15  C   UNL     1      25.569   2.042  24.329  0.00  0.00    +0.002 C 
ATOM     16  C   UNL     1      25.879   1.488  21.885  0.00  0.00    +0.002 C 
ATOM     17  C   UNL     1      26.420   1.305  23.301  0.00  0.00    +0.000 C 
ENDBRANCH   5   9
ENDBRANCH  14   6
TORSDOF 5
ENDMDL
MODEL 10
REMARK VINA RESULT:      -6.6     27.895     30.777
REMARK  Name = 40777670
REMARK  7 active torsions:
REMARK  status: ('A' for Active; 'I' for Inactive)
REMARK    1  A    between atoms: N_5  and  C_9
REMARK    2  A    between atoms: N_6  and  C_14
REMARK    3  A    between atoms: N_7  and  C_26
REMARK    4  A    between atoms: C_10  and  C_18
REMARK    5  A    between atoms: C_22  and  C_24
REMARK    6  A    between atoms: C_23  and  C_25
REMARK    7  A    between atoms: C_31  and  C_32
REMARK                            x       y       z     vdW  Elec       q    Type
REMARK                         _______ _______ _______ _____ _____    ______ ____
ROOT
ATOM     10  C   UNL     1      11.282   7.336   5.964  0.00  0.00    +0.047 C 
ATOM     13  C   UNL     1      10.217   8.448   5.831  0.00  0.00    +0.039 C 
ATOM     14  C   UNL     1       9.231   8.245   6.991  0.00  0.00    +0.098 C 
ATOM     19  C   UNL     1      10.474   6.276   6.668  0.00  0.00    -0.021 C 
ATOM     20  C   UNL     1       9.372   6.778   7.238  0.00  0.00    -0.009 C 
ENDROOT
BRANCH  10  18
ATOM      7  N   UNL     1      12.442   5.948   2.771  0.00  0.00    -0.236 N 
ATOM      8  N   UNL     1      13.521   6.708   3.024  0.00  0.00    -0.171 NA
ATOM     18  C   UNL     1      11.959   6.894   4.680  0.00  0.00    +0.003 A 
ATOM     22  C   UNL     1      11.477   6.025   3.733  0.00  0.00    +0.046 A 
ATOM     23  C   UNL     1      13.221   7.284   4.191  0.00  0.00    +0.064 A 
ATOM     24  C   UNL     1      10.205   5.277   3.667  0.00  0.00    +0.066 C 
ATOM     25  C   UNL     1      14.183   8.213   4.810  0.00  0.00    +0.068 C 
BRANCH   7  26
ATOM     26  C   UNL     1      12.392   5.181   1.607  0.00  0.00    +0.066 A 
ATOM     27  C   UNL     1      12.954   3.905   1.588  0.00  0.00    +0.028 A 
ATOM     28  C   UNL     1      11.784   5.693   0.461  0.00  0.00    +0.028 A 
ATOM     29  C   UNL     1      12.907   3.140   0.423  0.00  0.00    +0.014 A 
ATOM     30  C   UNL     1      11.737   4.927  -0.704  0.00  0.00    +0.014 A 
ATOM     31  C   UNL     1      12.298   3.651  -0.723  0.00  0.00    +0.055 A 
BRANCH  31  32
ATOM      1  F   UNL     1      11.102   3.009  -2.692  0.00  0.00    -0.166 F 
ATOM      2  F   UNL     1      12.320   1.492  -1.720  0.00  0.00    -0.166 F 
ATOM      3  F   UNL     1      13.264   3.099  -2.841  0.00  0.00    -0.166 F 
ATOM     32  C   UNL     1      12.247   2.832  -1.969  0.00  0.00    +0.417 C 
ENDBRANCH  31  32
ENDBRANCH   7  26
ENDBRANCH  10  18
BRANCH  14   6
ATOM      4  O   UNL     1       9.156  11.123   7.275  0.00  0.00    -0.253 OA
ATOM      5  N   UNL     1       9.927  10.899   9.452  0.00  0.00    -0.297 N 
ATOM      6  N   UNL     1       9.594   9.025   8.168  0.00  0.00    -0.293 N 
ATOM     21  C   UNL     1       9.524  10.415   8.212  0.00  0.00    +0.300 C 
ATOM     33  H   UNL     1      10.283  10.235  10.133  0.00  0.00    +0.151 HD
ATOM     34  H   UNL     1       9.949   8.535   8.984  0.00  0.00    +0.151 HD
BRANCH   5   9
ATOM      9  C   UNL     1       9.952  12.309   9.771  0.00  0.00    +0.074 C 
ATOM     11  C   UNL     1      11.144  12.649  10.674  0.00  0.00    +0.022 C 
ATOM     12  C   UNL     1       8.630  12.755  10.405  0.00  0.00    +0.022 C 
ATOM     15  C   UNL     1      10.966  12.122  12.098  0.00  0.00    +0.002 C 
ATOM     16  C   UNL     1       8.458  12.228  11.829  0.00  0.00    +0.002 C 
ATOM     17  C   UNL     1       9.650  12.587  12.711  0.00  0.00    +0.000 C 
ENDBRANCH   5   9
ENDBRANCH  14   6
TORSDOF 5
ENDMDL
