REMARK  Name = 11882971
REMARK  9 active torsions:
REMARK  status: ('A' for Active; 'I' for Inactive)
REMARK    1  A    between atoms: O_2  and  C_14
REMARK    2  A    between atoms: O_3  and  C_19
REMARK    3  A    between atoms: O_4  and  C_24
REMARK    4  A    between atoms: C_9  and  C_17
REMARK    5  A    between atoms: C_11  and  C_19
REMARK    6  A    between atoms: C_11  and  C_20
REMARK    7  A    between atoms: C_12  and  C_22
REMARK    8  A    between atoms: C_22  and  C_24
REMARK    9  A    between atoms: C_25  and  C_26
REMARK                            x       y       z     vdW  Elec       q    Type
REMARK                         _______ _______ _______ _____ _____    ______ ____
ROOT
ATOM      1  S   UNL     1      -0.610  -2.199   0.481  0.00  0.00    -0.057 S 
ATOM      6  O   UNL     1      -3.852   1.105  -0.114  0.00  0.00    -0.275 OA
ATOM      7  N   UNL     1      -0.987   0.314  -0.001  0.00  0.00    -0.229 NA
ATOM      8  N   UNL     1      -2.957  -1.044   0.293  0.00  0.00    -0.264 N 
ATOM      9  C   UNL     1       2.829   0.803   0.258  0.00  0.00    -0.019 C 
ATOM     10  C   UNL     1       3.132  -0.663  -0.285  0.00  0.00    +0.011 C 
ATOM     11  C   UNL     1       4.641  -1.124  -0.295  0.00  0.00    +0.021 C 
ATOM     12  C   UNL     1       1.360   1.211  -0.221  0.00  0.00    +0.055 C 
ATOM     13  C   UNL     1       3.840   1.802  -0.362  0.00  0.00    +0.010 C 
ATOM     14  C   UNL     1       5.518   0.007  -0.903  0.00  0.00    +0.123 C 
ATOM     15  C   UNL     1       2.161  -1.711   0.333  0.00  0.00    +0.049 C 
ATOM     16  C   UNL     1       5.293   1.363  -0.242  0.00  0.00    +0.032 C 
ATOM     17  C   UNL     1       2.913   0.903   1.801  0.00  0.00    +0.012 C 
ATOM     18  C   UNL     1       0.378   0.097   0.032  0.00  0.00    +0.058 A 
ATOM     20  C   UNL     1       4.785  -2.367  -1.219  0.00  0.00    +0.016 C 
ATOM     21  C   UNL     1       0.758  -1.210   0.261  0.00  0.00    +0.015 A 
ATOM     23  C   UNL     1      -1.606  -0.823   0.230  0.00  0.00    +0.165 A 
ATOM     26  C   UNL     1      -3.976  -0.092   0.121  0.00  0.00    +0.222 C 
ATOM     34  H   UNL     1      -3.221  -2.008   0.478  0.00  0.00    +0.157 HD
ENDROOT
BRANCH  26  25
ATOM     25  C   UNL     1      -5.337  -0.706   0.258  0.00  0.00    +0.075 C 
ATOM     27  C   UNL     1      -6.316   0.319   0.836  0.00  0.00    +0.013 C 
ATOM     28  C   UNL     1      -5.812  -1.229  -1.100  0.00  0.00    +0.013 C 
ATOM     29  C   UNL     1      -7.737  -0.234   0.904  0.00  0.00    +0.001 C 
ATOM     30  C   UNL     1      -7.234  -1.778  -1.026  0.00  0.00    +0.001 C 
ATOM     31  C   UNL     1      -8.205  -0.752  -0.452  0.00  0.00    +0.000 C 
ENDBRANCH  26  25
BRANCH  14   2
ATOM      2  O   UNL     1       6.903  -0.325  -0.809  0.00  0.00    -0.391 OA
ATOM     32  H   UNL     1       7.099  -0.992  -1.488  0.00  0.00    +0.210 HD
ENDBRANCH  14   2
BRANCH  11  19
ATOM     19  C   UNL     1       5.186  -1.564   1.081  0.00  0.00    +0.165 C 
BRANCH  19   3
ATOM      3  O   UNL     1       6.530  -1.955   0.908  0.00  0.00    -0.394 OA
ATOM     33  H   UNL     1       6.542  -2.895   0.664  0.00  0.00    +0.209 HD
ENDBRANCH  19   3
ENDBRANCH  11  19
BRANCH  12  22
ATOM     22  C   UNL     1       0.853   2.546   0.342  0.00  0.00    +0.130 C 
BRANCH  22  24
ATOM      5  O   UNL     1      -0.825   2.685  -1.421  0.00  0.00    -0.251 OA
ATOM     24  C   UNL     1      -0.448   2.949  -0.289  0.00  0.00    +0.305 C 
BRANCH  24   4
ATOM      4  O   UNL     1      -1.177   3.673   0.599  0.00  0.00    -0.481 OA
ATOM     35  H   UNL     1      -2.038   3.954   0.223  0.00  0.00    +0.295 HD
ENDBRANCH  24   4
ENDBRANCH  22  24
ENDBRANCH  12  22
TORSDOF 7
