MODEL 1
REMARK VINA RESULT:      -6.9      0.000      0.000
REMARK  Name = 45783622
REMARK  10 active torsions:
REMARK  status: ('A' for Active; 'I' for Inactive)
REMARK    1  A    between atoms: O_2  and  C_23
REMARK    2  A    between atoms: O_2  and  C_28
REMARK    3  A    between atoms: O_3  and  C_30
REMARK    4  A    between atoms: O_3  and  C_31
REMARK    5  A    between atoms: N_5  and  C_14
REMARK    6  A    between atoms: N_9  and  C_27
REMARK    7  A    between atoms: C_10  and  C_15
REMARK    8  A    between atoms: C_14  and  C_16
REMARK    9  A    between atoms: C_19  and  C_22
REMARK   10  A    between atoms: C_29  and  C_30
REMARK                            x       y       z     vdW  Elec       q    Type
REMARK                         _______ _______ _______ _____ _____    ______ ____
ROOT
ATOM      1  O   UNL     1      14.342   6.914  19.418  0.00  0.00    -0.336 OA
ATOM      6  N   UNL     1      15.629   7.486  21.160  0.00  0.00    -0.190 NA
ATOM      7  N   UNL     1      15.603   6.358  19.170  0.00  0.00    -0.056 NA
ATOM     15  C   UNL     1      14.444   7.561  20.610  0.00  0.00    +0.245 A 
ATOM     19  C   UNL     1      16.305   6.738  20.241  0.00  0.00    +0.204 A 
ENDROOT
BRANCH  19  22
ATOM      8  N   UNL     1      19.557   4.986  19.816  0.00  0.00    -0.239 NA
ATOM     22  C   UNL     1      17.685   6.390  20.423  0.00  0.00    +0.041 A 
ATOM     24  C   UNL     1      18.483   7.070  21.336  0.00  0.00    +0.016 A 
ATOM     25  C   UNL     1      18.266   5.364  19.693  0.00  0.00    +0.124 A 
ATOM     26  C   UNL     1      19.816   6.710  21.490  0.00  0.00    +0.044 A 
ATOM     27  C   UNL     1      20.302   5.669  20.713  0.00  0.00    +0.125 A 
BRANCH  27   9
ATOM      4  O   UNL     1      21.696   4.312  23.008  0.00  0.00    -0.273 OA
ATOM      9  N   UNL     1      21.645   5.314  20.876  0.00  0.00    -0.268 N 
ATOM     29  C   UNL     1      22.241   4.680  21.972  0.00  0.00    +0.244 C 
ATOM     32  H   UNL     1      22.243   5.556  20.090  0.00  0.00    +0.156 HD
BRANCH  29  30
ATOM     30  C   UNL     1      23.727   4.474  21.769  0.00  0.00    +0.255 C 
BRANCH  30   3
ATOM      3  O   UNL     1      23.929   3.766  20.564  0.00  0.00    -0.374 OA
ATOM     31  C   UNL     1      23.892   2.356  20.764  0.00  0.00    +0.194 C 
ENDBRANCH  30   3
ENDBRANCH  29  30
ENDBRANCH  27   9
ENDBRANCH  19  22
BRANCH  15  10
ATOM      5  N   UNL     1      12.394   8.840  20.015  0.00  0.00    -0.287 NA
ATOM     10  C   UNL     1      13.195   8.256  21.109  0.00  0.00    +0.146 C 
ATOM     11  C   UNL     1      12.230   7.297  21.832  0.00  0.00    +0.030 C 
ATOM     12  C   UNL     1      10.899   7.457  21.113  0.00  0.00    +0.017 C 
ATOM     13  C   UNL     1      11.003   8.824  20.467  0.00  0.00    +0.085 C 
BRANCH   5  14
ATOM     14  C   UNL     1      12.831  10.177  19.634  0.00  0.00    +0.120 C 
BRANCH  14  16
ATOM     16  C   UNL     1      13.374  10.210  18.231  0.00  0.00    -0.033 A 
ATOM     17  C   UNL     1      12.803   9.408  17.242  0.00  0.00    +0.008 A 
ATOM     18  C   UNL     1      14.449  11.041  17.918  0.00  0.00    +0.008 A 
ATOM     20  C   UNL     1      13.306   9.439  15.942  0.00  0.00    +0.046 A 
ATOM     21  C   UNL     1      14.953  11.072  16.617  0.00  0.00    +0.046 A 
ATOM     23  C   UNL     1      14.382  10.270  15.629  0.00  0.00    +0.120 A 
BRANCH  23   2
ATOM      2  O   UNL     1      14.872  10.301  14.360  0.00  0.00    -0.495 OA
ATOM     28  C   UNL     1      15.759  11.370  14.033  0.00  0.00    +0.277 C 
ENDBRANCH  23   2
ENDBRANCH  14  16
ENDBRANCH   5  14
ENDBRANCH  15  10
TORSDOF 8
ENDMDL
MODEL 2
REMARK VINA RESULT:      -6.7      6.003      8.547
REMARK  Name = 45783622
REMARK  10 active torsions:
REMARK  status: ('A' for Active; 'I' for Inactive)
REMARK    1  A    between atoms: O_2  and  C_23
REMARK    2  A    between atoms: O_2  and  C_28
REMARK    3  A    between atoms: O_3  and  C_30
REMARK    4  A    between atoms: O_3  and  C_31
REMARK    5  A    between atoms: N_5  and  C_14
REMARK    6  A    between atoms: N_9  and  C_27
REMARK    7  A    between atoms: C_10  and  C_15
REMARK    8  A    between atoms: C_14  and  C_16
REMARK    9  A    between atoms: C_19  and  C_22
REMARK   10  A    between atoms: C_29  and  C_30
REMARK                            x       y       z     vdW  Elec       q    Type
REMARK                         _______ _______ _______ _____ _____    ______ ____
ROOT
ATOM      1  O   UNL     1      12.068   7.200  18.742  0.00  0.00    -0.336 OA
ATOM      6  N   UNL     1      13.494   8.893  19.083  0.00  0.00    -0.190 NA
ATOM      7  N   UNL     1      12.526   7.583  17.476  0.00  0.00    -0.056 NA
ATOM     15  C   UNL     1      12.687   8.021  19.632  0.00  0.00    +0.245 A 
ATOM     19  C   UNL     1      13.363   8.586  17.760  0.00  0.00    +0.204 A 
ENDROOT
BRANCH  19  22
ATOM      8  N   UNL     1      15.032   9.338  14.524  0.00  0.00    -0.239 NA
ATOM     22  C   UNL     1      14.081   9.303  16.746  0.00  0.00    +0.041 A 
ATOM     24  C   UNL     1      14.520  10.604  16.962  0.00  0.00    +0.016 A 
ATOM     25  C   UNL     1      14.360   8.719  15.520  0.00  0.00    +0.124 A 
ATOM     26  C   UNL     1      15.214  11.273  15.960  0.00  0.00    +0.044 A 
ATOM     27  C   UNL     1      15.443  10.602  14.770  0.00  0.00    +0.125 A 
BRANCH  27   9
ATOM      4  O   UNL     1      14.459  11.889  12.234  0.00  0.00    -0.273 OA
ATOM      9  N   UNL     1      16.142  11.284  13.768  0.00  0.00    -0.268 N 
ATOM     29  C   UNL     1      15.629  11.866  12.603  0.00  0.00    +0.244 C 
ATOM     32  H   UNL     1      17.144  11.353  13.926  0.00  0.00    +0.156 HD
BRANCH  29  30
ATOM     30  C   UNL     1      16.713  12.507  11.764  0.00  0.00    +0.255 C 
BRANCH  30   3
ATOM      3  O   UNL     1      16.249  12.628  10.436  0.00  0.00    -0.374 OA
ATOM     31  C   UNL     1      17.317  12.587   9.494  0.00  0.00    +0.194 C 
ENDBRANCH  30   3
ENDBRANCH  29  30
ENDBRANCH  27   9
ENDBRANCH  19  22
BRANCH  15  10
ATOM      5  N   UNL     1      11.635   8.950  21.686  0.00  0.00    -0.287 NA
ATOM     10  C   UNL     1      12.355   7.806  21.094  0.00  0.00    +0.146 C 
ATOM     11  C   UNL     1      11.427   6.598  21.320  0.00  0.00    +0.030 C 
ATOM     12  C   UNL     1      10.242   7.149  22.101  0.00  0.00    +0.017 C 
ATOM     13  C   UNL     1      10.794   8.402  22.750  0.00  0.00    +0.085 C 
BRANCH   5  14
ATOM     14  C   UNL     1      12.522   9.998  22.174  0.00  0.00    +0.120 C 
BRANCH  14  16
ATOM     16  C   UNL     1      11.766  11.248  22.536  0.00  0.00    -0.033 A 
ATOM     17  C   UNL     1      11.380  11.472  23.857  0.00  0.00    +0.008 A 
ATOM     18  C   UNL     1      11.452  12.183  21.550  0.00  0.00    +0.008 A 
ATOM     20  C   UNL     1      10.680  12.631  24.193  0.00  0.00    +0.046 A 
ATOM     21  C   UNL     1      10.752  13.342  21.885  0.00  0.00    +0.046 A 
ATOM     23  C   UNL     1      10.365  13.566  23.206  0.00  0.00    +0.120 A 
BRANCH  23   2
ATOM      2  O   UNL     1       9.683  14.697  23.534  0.00  0.00    -0.495 OA
ATOM     28  C   UNL     1       8.492  14.973  22.797  0.00  0.00    +0.277 C 
ENDBRANCH  23   2
ENDBRANCH  14  16
ENDBRANCH   5  14
ENDBRANCH  15  10
TORSDOF 8
ENDMDL
MODEL 3
REMARK VINA RESULT:      -6.4      1.574      2.185
REMARK  Name = 45783622
REMARK  10 active torsions:
REMARK  status: ('A' for Active; 'I' for Inactive)
REMARK    1  A    between atoms: O_2  and  C_23
REMARK    2  A    between atoms: O_2  and  C_28
REMARK    3  A    between atoms: O_3  and  C_30
REMARK    4  A    between atoms: O_3  and  C_31
REMARK    5  A    between atoms: N_5  and  C_14
REMARK    6  A    between atoms: N_9  and  C_27
REMARK    7  A    between atoms: C_10  and  C_15
REMARK    8  A    between atoms: C_14  and  C_16
REMARK    9  A    between atoms: C_19  and  C_22
REMARK   10  A    between atoms: C_29  and  C_30
REMARK                            x       y       z     vdW  Elec       q    Type
REMARK                         _______ _______ _______ _____ _____    ______ ____
ROOT
ATOM      1  O   UNL     1      15.049   9.759  21.651  0.00  0.00    -0.336 OA
ATOM      6  N   UNL     1      15.465   7.912  20.455  0.00  0.00    -0.190 NA
ATOM      7  N   UNL     1      16.404   9.466  21.846  0.00  0.00    -0.056 NA
ATOM     15  C   UNL     1      14.571   8.796  20.820  0.00  0.00    +0.245 A 
ATOM     19  C   UNL     1      16.573   8.365  21.109  0.00  0.00    +0.204 A 
ENDROOT
BRANCH  19  22
ATOM      8  N   UNL     1      20.215   7.687  21.436  0.00  0.00    -0.239 NA
ATOM     22  C   UNL     1      17.836   7.691  21.007  0.00  0.00    +0.041 A 
ATOM     24  C   UNL     1      17.934   6.440  20.409  0.00  0.00    +0.016 A 
ATOM     25  C   UNL     1      18.995   8.267  21.501  0.00  0.00    +0.124 A 
ATOM     26  C   UNL     1      19.171   5.811  20.323  0.00  0.00    +0.044 A 
ATOM     27  C   UNL     1      20.272   6.471  20.848  0.00  0.00    +0.125 A 
BRANCH  27   9
ATOM      4  O   UNL     1      21.548   4.427  22.649  0.00  0.00    -0.273 OA
ATOM      9  N   UNL     1      21.512   5.830  20.757  0.00  0.00    -0.268 N 
ATOM     29  C   UNL     1      22.057   4.882  21.629  0.00  0.00    +0.244 C 
ATOM     32  H   UNL     1      22.069   6.103  19.951  0.00  0.00    +0.156 HD
BRANCH  29  30
ATOM     30  C   UNL     1      23.433   4.430  21.190  0.00  0.00    +0.255 C 
BRANCH  30   3
ATOM      3  O   UNL     1      23.515   3.026  21.323  0.00  0.00    -0.374 OA
ATOM     31  C   UNL     1      24.603   2.635  22.156  0.00  0.00    +0.194 C 
ENDBRANCH  30   3
ENDBRANCH  29  30
ENDBRANCH  27   9
ENDBRANCH  19  22
BRANCH  15  10
ATOM      5  N   UNL     1      12.425   7.581  20.486  0.00  0.00    -0.287 NA
ATOM     10  C   UNL     1      13.106   8.890  20.448  0.00  0.00    +0.146 C 
ATOM     11  C   UNL     1      12.303   9.778  21.418  0.00  0.00    +0.030 C 
ATOM     12  C   UNL     1      11.158   8.901  21.903  0.00  0.00    +0.017 C 
ATOM     13  C   UNL     1      11.026   7.852  20.817  0.00  0.00    +0.085 C 
BRANCH   5  14
ATOM     14  C   UNL     1      12.559   6.827  19.247  0.00  0.00    +0.120 C 
BRANCH  14  16
ATOM     16  C   UNL     1      12.666   7.733  18.049  0.00  0.00    -0.033 A 
ATOM     17  C   UNL     1      13.899   7.925  17.427  0.00  0.00    +0.008 A 
ATOM     18  C   UNL     1      11.530   8.381  17.561  0.00  0.00    +0.008 A 
ATOM     20  C   UNL     1      13.998   8.765  16.317  0.00  0.00    +0.046 A 
ATOM     21  C   UNL     1      11.629   9.220  16.451  0.00  0.00    +0.046 A 
ATOM     23  C   UNL     1      12.862   9.413  15.830  0.00  0.00    +0.120 A 
BRANCH  23   2
ATOM      2  O   UNL     1      12.958  10.231  14.746  0.00  0.00    -0.495 OA
ATOM     28  C   UNL     1      13.850  11.340  14.848  0.00  0.00    +0.277 C 
ENDBRANCH  23   2
ENDBRANCH  14  16
ENDBRANCH   5  14
ENDBRANCH  15  10
TORSDOF 8
ENDMDL
MODEL 4
REMARK VINA RESULT:      -6.4     26.316     30.314
REMARK  Name = 45783622
REMARK  10 active torsions:
REMARK  status: ('A' for Active; 'I' for Inactive)
REMARK    1  A    between atoms: O_2  and  C_23
REMARK    2  A    between atoms: O_2  and  C_28
REMARK    3  A    between atoms: O_3  and  C_30
REMARK    4  A    between atoms: O_3  and  C_31
REMARK    5  A    between atoms: N_5  and  C_14
REMARK    6  A    between atoms: N_9  and  C_27
REMARK    7  A    between atoms: C_10  and  C_15
REMARK    8  A    between atoms: C_14  and  C_16
REMARK    9  A    between atoms: C_19  and  C_22
REMARK   10  A    between atoms: C_29  and  C_30
REMARK                            x       y       z     vdW  Elec       q    Type
REMARK                         _______ _______ _______ _____ _____    ______ ____
ROOT
ATOM      1  O   UNL     1      -4.686 -11.300  17.295  0.00  0.00    -0.336 OA
ATOM      6  N   UNL     1      -5.483 -10.250  15.484  0.00  0.00    -0.190 NA
ATOM      7  N   UNL     1      -5.989 -10.900  17.618  0.00  0.00    -0.056 NA
ATOM     15  C   UNL     1      -4.468 -10.878  16.021  0.00  0.00    +0.245 A 
ATOM     19  C   UNL     1      -6.392 -10.289  16.501  0.00  0.00    +0.204 A 
ENDROOT
BRANCH  19  22
ATOM      8  N   UNL     1      -9.570  -8.583  17.403  0.00  0.00    -0.239 NA
ATOM     22  C   UNL     1      -7.696  -9.705  16.368  0.00  0.00    +0.041 A 
ATOM     24  C   UNL     1      -8.348  -9.679  15.141  0.00  0.00    +0.016 A 
ATOM     25  C   UNL     1      -8.344  -9.148  17.459  0.00  0.00    +0.124 A 
ATOM     26  C   UNL     1      -9.611  -9.106  15.043  0.00  0.00    +0.044 A 
ATOM     27  C   UNL     1     -10.174  -8.576  16.193  0.00  0.00    +0.125 A 
BRANCH  27   9
ATOM      4  O   UNL     1     -10.992  -5.769  15.483  0.00  0.00    -0.273 OA
ATOM      9  N   UNL     1     -11.445  -8.002  16.085  0.00  0.00    -0.268 N 
ATOM     29  C   UNL     1     -11.768  -6.682  15.748  0.00  0.00    +0.244 C 
ATOM     32  H   UNL     1     -12.214  -8.639  16.278  0.00  0.00    +0.156 HD
BRANCH  29  30
ATOM     30  C   UNL     1     -13.263  -6.446  15.744  0.00  0.00    +0.255 C 
BRANCH  30   3
ATOM      3  O   UNL     1     -13.614  -5.772  14.553  0.00  0.00    -0.374 OA
ATOM     31  C   UNL     1     -13.840  -6.679  13.477  0.00  0.00    +0.194 C 
ENDBRANCH  30   3
ENDBRANCH  29  30
ENDBRANCH  27   9
ENDBRANCH  19  22
BRANCH  15  10
ATOM      5  N   UNL     1      -2.877 -10.501  14.146  0.00  0.00    -0.287 NA
ATOM     10  C   UNL     1      -3.111 -11.194  15.428  0.00  0.00    +0.146 C 
ATOM     11  C   UNL     1      -1.949 -10.745  16.334  0.00  0.00    +0.030 C 
ATOM     12  C   UNL     1      -1.082  -9.853  15.455  0.00  0.00    +0.017 C 
ATOM     13  C   UNL     1      -1.433 -10.291  14.047  0.00  0.00    +0.085 C 
BRANCH   5  14
ATOM     14  C   UNL     1      -3.405 -11.226  12.997  0.00  0.00    +0.120 C 
BRANCH  14  16
ATOM     16  C   UNL     1      -4.047 -10.300  11.998  0.00  0.00    -0.033 A 
ATOM     17  C   UNL     1      -3.343  -9.905  10.861  0.00  0.00    +0.008 A 
ATOM     18  C   UNL     1      -5.346  -9.839  12.209  0.00  0.00    +0.008 A 
ATOM     20  C   UNL     1      -3.938  -9.048   9.935  0.00  0.00    +0.046 A 
ATOM     21  C   UNL     1      -5.941  -8.981  11.283  0.00  0.00    +0.046 A 
ATOM     23  C   UNL     1      -5.237  -8.585  10.147  0.00  0.00    +0.120 A 
BRANCH  23   2
ATOM      2  O   UNL     1      -5.817  -7.750   9.243  0.00  0.00    -0.495 OA
ATOM     28  C   UNL     1      -7.168  -8.028   8.876  0.00  0.00    +0.277 C 
ENDBRANCH  23   2
ENDBRANCH  14  16
ENDBRANCH   5  14
ENDBRANCH  15  10
TORSDOF 8
ENDMDL
MODEL 5
REMARK VINA RESULT:      -6.3     27.064     30.968
REMARK  Name = 45783622
REMARK  10 active torsions:
REMARK  status: ('A' for Active; 'I' for Inactive)
REMARK    1  A    between atoms: O_2  and  C_23
REMARK    2  A    between atoms: O_2  and  C_28
REMARK    3  A    between atoms: O_3  and  C_30
REMARK    4  A    between atoms: O_3  and  C_31
REMARK    5  A    between atoms: N_5  and  C_14
REMARK    6  A    between atoms: N_9  and  C_27
REMARK    7  A    between atoms: C_10  and  C_15
REMARK    8  A    between atoms: C_14  and  C_16
REMARK    9  A    between atoms: C_19  and  C_22
REMARK   10  A    between atoms: C_29  and  C_30
REMARK                            x       y       z     vdW  Elec       q    Type
REMARK                         _______ _______ _______ _____ _____    ______ ____
ROOT
ATOM      1  O   UNL     1      -5.404  -9.532  15.906  0.00  0.00    -0.336 OA
ATOM      6  N   UNL     1      -5.831 -11.311  17.198  0.00  0.00    -0.190 NA
ATOM      7  N   UNL     1      -6.624  -9.268  16.542  0.00  0.00    -0.056 NA
ATOM     15  C   UNL     1      -5.006 -10.754  16.348  0.00  0.00    +0.245 A 
ATOM     19  C   UNL     1      -6.807 -10.362  17.286  0.00  0.00    +0.204 A 
ENDROOT
BRANCH  19  22
ATOM      8  N   UNL     1      -8.952 -11.579  20.070  0.00  0.00    -0.239 NA
ATOM     22  C   UNL     1      -7.956 -10.540  18.127  0.00  0.00    +0.041 A 
ATOM     24  C   UNL     1      -9.153  -9.888  17.854  0.00  0.00    +0.016 A 
ATOM     25  C   UNL     1      -7.907 -11.368  19.238  0.00  0.00    +0.124 A 
ATOM     26  C   UNL     1     -10.249 -10.080  18.687  0.00  0.00    +0.044 A 
ATOM     27  C   UNL     1     -10.098 -10.928  19.773  0.00  0.00    +0.125 A 
BRANCH  27   9
ATOM      4  O   UNL     1     -12.162 -13.118  19.811  0.00  0.00    -0.273 OA
ATOM      9  N   UNL     1     -11.207 -11.115  20.605  0.00  0.00    -0.268 N 
ATOM     29  C   UNL     1     -12.138 -12.159  20.577  0.00  0.00    +0.244 C 
ATOM     32  H   UNL     1     -11.333 -10.392  21.308  0.00  0.00    +0.156 HD
BRANCH  29  30
ATOM     30  C   UNL     1     -13.203 -12.000  21.641  0.00  0.00    +0.255 C 
BRANCH  30   3
ATOM      3  O   UNL     1     -14.037 -10.915  21.292  0.00  0.00    -0.374 OA
ATOM     31  C   UNL     1     -15.213 -11.347  20.613  0.00  0.00    +0.194 C 
ENDBRANCH  30   3
ENDBRANCH  29  30
ENDBRANCH  27   9
ENDBRANCH  19  22
BRANCH  15  10
ATOM      5  N   UNL     1      -3.348 -10.681  14.495  0.00  0.00    -0.287 NA
ATOM     10  C   UNL     1      -3.693 -11.275  15.801  0.00  0.00    +0.146 C 
ATOM     11  C   UNL     1      -2.497 -10.943  16.712  0.00  0.00    +0.030 C 
ATOM     12  C   UNL     1      -1.504 -10.217  15.814  0.00  0.00    +0.017 C 
ATOM     13  C   UNL     1      -1.887 -10.670  14.420  0.00  0.00    +0.085 C 
BRANCH   5  14
ATOM     14  C   UNL     1      -3.949 -11.383  13.368  0.00  0.00    +0.120 C 
BRANCH  14  16
ATOM     16  C   UNL     1      -4.439 -10.429  12.311  0.00  0.00    -0.033 A 
ATOM     17  C   UNL     1      -3.636 -10.137  11.208  0.00  0.00    +0.008 A 
ATOM     18  C   UNL     1      -5.695  -9.836  12.435  0.00  0.00    +0.008 A 
ATOM     20  C   UNL     1      -4.090  -9.254  10.229  0.00  0.00    +0.046 A 
ATOM     21  C   UNL     1      -6.149  -8.953  11.456  0.00  0.00    +0.046 A 
ATOM     23  C   UNL     1      -5.346  -8.660  10.354  0.00  0.00    +0.120 A 
BRANCH  23   2
ATOM      2  O   UNL     1      -5.789  -7.799   9.397  0.00  0.00    -0.495 OA
ATOM     28  C   UNL     1      -7.072  -8.064   8.830  0.00  0.00    +0.277 C 
ENDBRANCH  23   2
ENDBRANCH  14  16
ENDBRANCH   5  14
ENDBRANCH  15  10
TORSDOF 8
ENDMDL
MODEL 6
REMARK VINA RESULT:      -6.3     27.009     30.699
REMARK  Name = 45783622
REMARK  10 active torsions:
REMARK  status: ('A' for Active; 'I' for Inactive)
REMARK    1  A    between atoms: O_2  and  C_23
REMARK    2  A    between atoms: O_2  and  C_28
REMARK    3  A    between atoms: O_3  and  C_30
REMARK    4  A    between atoms: O_3  and  C_31
REMARK    5  A    between atoms: N_5  and  C_14
REMARK    6  A    between atoms: N_9  and  C_27
REMARK    7  A    between atoms: C_10  and  C_15
REMARK    8  A    between atoms: C_14  and  C_16
REMARK    9  A    between atoms: C_19  and  C_22
REMARK   10  A    between atoms: C_29  and  C_30
REMARK                            x       y       z     vdW  Elec       q    Type
REMARK                         _______ _______ _______ _____ _____    ______ ____
ROOT
ATOM      1  O   UNL     1      -4.954  -9.895  16.054  0.00  0.00    -0.336 OA
ATOM      6  N   UNL     1      -5.022 -11.926  16.996  0.00  0.00    -0.190 NA
ATOM      7  N   UNL     1      -6.146  -9.945  16.787  0.00  0.00    -0.056 NA
ATOM     15  C   UNL     1      -4.353 -11.102  16.231  0.00  0.00    +0.245 A 
ATOM     19  C   UNL     1      -6.114 -11.172  17.313  0.00  0.00    +0.204 A 
ENDROOT
BRANCH  19  22
ATOM      8  N   UNL     1      -8.716 -11.297  19.967  0.00  0.00    -0.239 NA
ATOM     22  C   UNL     1      -7.158 -11.678  18.158  0.00  0.00    +0.041 A 
ATOM     24  C   UNL     1      -7.627 -12.979  18.019  0.00  0.00    +0.016 A 
ATOM     25  C   UNL     1      -7.731 -10.883  19.138  0.00  0.00    +0.124 A 
ATOM     26  C   UNL     1      -8.639 -13.441  18.852  0.00  0.00    +0.044 A 
ATOM     27  C   UNL     1      -9.146 -12.568  19.802  0.00  0.00    +0.125 A 
BRANCH  27   9
ATOM      4  O   UNL     1     -12.057 -11.823  19.943  0.00  0.00    -0.273 OA
ATOM      9  N   UNL     1     -10.164 -13.042  20.636  0.00  0.00    -0.268 N 
ATOM     29  C   UNL     1     -11.509 -12.657  20.657  0.00  0.00    +0.244 C 
ATOM     32  H   UNL     1      -9.868 -13.753  21.301  0.00  0.00    +0.156 HD
BRANCH  29  30
ATOM     30  C   UNL     1     -12.297 -13.400  21.715  0.00  0.00    +0.255 C 
BRANCH  30   3
ATOM      3  O   UNL     1     -11.398 -14.137  22.518  0.00  0.00    -0.374 OA
ATOM     31  C   UNL     1     -11.901 -14.331  23.837  0.00  0.00    +0.194 C 
ENDBRANCH  30   3
ENDBRANCH  29  30
ENDBRANCH  27   9
ENDBRANCH  19  22
BRANCH  15  10
ATOM      5  N   UNL     1      -2.933 -10.552  14.264  0.00  0.00    -0.287 NA
ATOM     10  C   UNL     1      -3.025 -11.304  15.531  0.00  0.00    +0.146 C 
ATOM     11  C   UNL     1      -1.831 -10.809  16.368  0.00  0.00    +0.030 C 
ATOM     12  C   UNL     1      -1.092  -9.831  15.466  0.00  0.00    +0.017 C 
ATOM     13  C   UNL     1      -1.516 -10.242  14.071  0.00  0.00    +0.085 C 
BRANCH   5  14
ATOM     14  C   UNL     1      -3.496 -11.270  13.127  0.00  0.00    +0.120 C 
BRANCH  14  16
ATOM     16  C   UNL     1      -4.120 -10.334  12.127  0.00  0.00    -0.033 A 
ATOM     17  C   UNL     1      -5.362  -9.758  12.391  0.00  0.00    +0.008 A 
ATOM     18  C   UNL     1      -3.455 -10.042  10.936  0.00  0.00    +0.008 A 
ATOM     20  C   UNL     1      -5.940  -8.890  11.465  0.00  0.00    +0.046 A 
ATOM     21  C   UNL     1      -4.033  -9.174  10.009  0.00  0.00    +0.046 A 
ATOM     23  C   UNL     1      -5.276  -8.599  10.273  0.00  0.00    +0.120 A 
BRANCH  23   2
ATOM      2  O   UNL     1      -5.840  -7.752   9.369  0.00  0.00    -0.495 OA
ATOM     28  C   UNL     1      -7.101  -8.133   8.822  0.00  0.00    +0.277 C 
ENDBRANCH  23   2
ENDBRANCH  14  16
ENDBRANCH   5  14
ENDBRANCH  15  10
TORSDOF 8
ENDMDL
MODEL 7
REMARK VINA RESULT:      -6.2      2.914      9.373
REMARK  Name = 45783622
REMARK  10 active torsions:
REMARK  status: ('A' for Active; 'I' for Inactive)
REMARK    1  A    between atoms: O_2  and  C_23
REMARK    2  A    between atoms: O_2  and  C_28
REMARK    3  A    between atoms: O_3  and  C_30
REMARK    4  A    between atoms: O_3  and  C_31
REMARK    5  A    between atoms: N_5  and  C_14
REMARK    6  A    between atoms: N_9  and  C_27
REMARK    7  A    between atoms: C_10  and  C_15
REMARK    8  A    between atoms: C_14  and  C_16
REMARK    9  A    between atoms: C_19  and  C_22
REMARK   10  A    between atoms: C_29  and  C_30
REMARK                            x       y       z     vdW  Elec       q    Type
REMARK                         _______ _______ _______ _____ _____    ______ ____
ROOT
ATOM      1  O   UNL     1      20.270   6.157  22.110  0.00  0.00    -0.336 OA
ATOM      6  N   UNL     1      19.404   5.699  20.096  0.00  0.00    -0.190 NA
ATOM      7  N   UNL     1      19.035   6.814  22.059  0.00  0.00    -0.056 NA
ATOM     15  C   UNL     1      20.410   5.524  20.915  0.00  0.00    +0.245 A 
ATOM     19  C   UNL     1      18.586   6.496  20.842  0.00  0.00    +0.204 A 
ENDROOT
BRANCH  19  22
ATOM      8  N   UNL     1      15.465   6.648  18.826  0.00  0.00    -0.239 NA
ATOM     22  C   UNL     1      17.325   6.960  20.338  0.00  0.00    +0.041 A 
ATOM     24  C   UNL     1      16.737   8.118  20.833  0.00  0.00    +0.016 A 
ATOM     25  C   UNL     1      16.654   6.266  19.344  0.00  0.00    +0.124 A 
ATOM     26  C   UNL     1      15.514   8.543  20.326  0.00  0.00    +0.044 A 
ATOM     27  C   UNL     1      14.924   7.779  19.331  0.00  0.00    +0.125 A 
BRANCH  27   9
ATOM      4  O   UNL     1      12.164   6.624  19.656  0.00  0.00    -0.273 OA
ATOM      9  N   UNL     1      13.694   8.214  18.827  0.00  0.00    -0.268 N 
ATOM     29  C   UNL     1      12.434   7.634  19.012  0.00  0.00    +0.244 C 
ATOM     32  H   UNL     1      13.745   9.057  18.260  0.00  0.00    +0.156 HD
BRANCH  29  30
ATOM     30  C   UNL     1      11.344   8.402  18.295  0.00  0.00    +0.255 C 
BRANCH  30   3
ATOM      3  O   UNL     1      11.182   7.861  17.001  0.00  0.00    -0.374 OA
ATOM     31  C   UNL     1      10.796   8.854  16.055  0.00  0.00    +0.194 C 
ENDBRANCH  30   3
ENDBRANCH  29  30
ENDBRANCH  27   9
ENDBRANCH  19  22
BRANCH  15  10
ATOM      5  N   UNL     1      22.848   5.347  21.382  0.00  0.00    -0.287 NA
ATOM     10  C   UNL     1      21.684   4.729  20.717  0.00  0.00    +0.146 C 
ATOM     11  C   UNL     1      21.597   3.312  21.315  0.00  0.00    +0.030 C 
ATOM     12  C   UNL     1      22.788   3.205  22.257  0.00  0.00    +0.017 C 
ATOM     13  C   UNL     1      23.751   4.252  21.734  0.00  0.00    +0.085 C 
BRANCH   5  14
ATOM     14  C   UNL     1      23.505   6.359  20.566  0.00  0.00    +0.120 C 
BRANCH  14  16
ATOM     16  C   UNL     1      23.104   7.752  20.972  0.00  0.00    -0.033 A 
ATOM     17  C   UNL     1      22.407   8.566  20.079  0.00  0.00    +0.008 A 
ATOM     18  C   UNL     1      23.430   8.230  22.241  0.00  0.00    +0.008 A 
ATOM     20  C   UNL     1      22.035   9.856  20.455  0.00  0.00    +0.046 A 
ATOM     21  C   UNL     1      23.059   9.521  22.617  0.00  0.00    +0.046 A 
ATOM     23  C   UNL     1      22.362  10.335  21.724  0.00  0.00    +0.120 A 
BRANCH  23   2
ATOM      2  O   UNL     1      21.999  11.594  22.091  0.00  0.00    -0.495 OA
ATOM     28  C   UNL     1      21.715  12.518  21.042  0.00  0.00    +0.277 C 
ENDBRANCH  23   2
ENDBRANCH  14  16
ENDBRANCH   5  14
ENDBRANCH  15  10
TORSDOF 8
ENDMDL
MODEL 8
REMARK VINA RESULT:      -6.2      2.291     11.323
REMARK  Name = 45783622
REMARK  10 active torsions:
REMARK  status: ('A' for Active; 'I' for Inactive)
REMARK    1  A    between atoms: O_2  and  C_23
REMARK    2  A    between atoms: O_2  and  C_28
REMARK    3  A    between atoms: O_3  and  C_30
REMARK    4  A    between atoms: O_3  and  C_31
REMARK    5  A    between atoms: N_5  and  C_14
REMARK    6  A    between atoms: N_9  and  C_27
REMARK    7  A    between atoms: C_10  and  C_15
REMARK    8  A    between atoms: C_14  and  C_16
REMARK    9  A    between atoms: C_19  and  C_22
REMARK   10  A    between atoms: C_29  and  C_30
REMARK                            x       y       z     vdW  Elec       q    Type
REMARK                         _______ _______ _______ _____ _____    ______ ____
ROOT
ATOM      1  O   UNL     1      20.795   6.086  23.129  0.00  0.00    -0.336 OA
ATOM      6  N   UNL     1      20.465   5.721  20.944  0.00  0.00    -0.190 NA
ATOM      7  N   UNL     1      19.504   6.549  22.848  0.00  0.00    -0.056 NA
ATOM     15  C   UNL     1      21.290   5.614  21.954  0.00  0.00    +0.245 A 
ATOM     19  C   UNL     1      19.382   6.299  21.541  0.00  0.00    +0.204 A 
ENDROOT
BRANCH  19  22
ATOM      8  N   UNL     1      16.282   8.062  20.487  0.00  0.00    -0.239 NA
ATOM     22  C   UNL     1      18.195   6.616  20.801  0.00  0.00    +0.041 A 
ATOM     24  C   UNL     1      17.794   5.839  19.721  0.00  0.00    +0.016 A 
ATOM     25  C   UNL     1      17.412   7.708  21.141  0.00  0.00    +0.124 A 
ATOM     26  C   UNL     1      16.638   6.171  19.023  0.00  0.00    +0.044 A 
ATOM     27  C   UNL     1      15.924   7.282  19.443  0.00  0.00    +0.125 A 
BRANCH  27   9
ATOM      4  O   UNL     1      13.035   6.721  20.068  0.00  0.00    -0.273 OA
ATOM      9  N   UNL     1      14.762   7.609  18.734  0.00  0.00    -0.268 N 
ATOM     29  C   UNL     1      13.436   7.320  19.075  0.00  0.00    +0.244 C 
ATOM     32  H   UNL     1      14.925   8.117  17.868  0.00  0.00    +0.156 HD
BRANCH  29  30
ATOM     30  C   UNL     1      12.458   7.837  18.041  0.00  0.00    +0.255 C 
BRANCH  30   3
ATOM      3  O   UNL     1      13.140   8.011  16.817  0.00  0.00    -0.374 OA
ATOM     31  C   UNL     1      12.702   9.177  16.126  0.00  0.00    +0.194 C 
ENDBRANCH  30   3
ENDBRANCH  29  30
ENDBRANCH  27   9
ENDBRANCH  19  22
BRANCH  15  10
ATOM      5  N   UNL     1      22.985   4.174  20.838  0.00  0.00    -0.287 NA
ATOM     10  C   UNL     1      22.694   5.048  21.992  0.00  0.00    +0.146 C 
ATOM     11  C   UNL     1      23.777   6.142  21.938  0.00  0.00    +0.030 C 
ATOM     12  C   UNL     1      24.665   5.764  20.760  0.00  0.00    +0.017 C 
ATOM     13  C   UNL     1      24.423   4.277  20.594  0.00  0.00    +0.085 C 
BRANCH   5  14
ATOM     14  C   UNL     1      22.560   2.795  21.040  0.00  0.00    +0.120 C 
BRANCH  14  16
ATOM     16  C   UNL     1      23.555   2.018  21.860  0.00  0.00    -0.033 A 
ATOM     17  C   UNL     1      24.494   1.202  21.229  0.00  0.00    +0.008 A 
ATOM     18  C   UNL     1      23.538   2.114  23.252  0.00  0.00    +0.008 A 
ATOM     20  C   UNL     1      25.416   0.482  21.989  0.00  0.00    +0.046 A 
ATOM     21  C   UNL     1      24.460   1.394  24.012  0.00  0.00    +0.046 A 
ATOM     23  C   UNL     1      25.398   0.577  23.381  0.00  0.00    +0.120 A 
BRANCH  23   2
ATOM      2  O   UNL     1      26.298  -0.125  24.121  0.00  0.00    -0.495 OA
ATOM     28  C   UNL     1      27.325  -0.816  23.410  0.00  0.00    +0.277 C 
ENDBRANCH  23   2
ENDBRANCH  14  16
ENDBRANCH   5  14
ENDBRANCH  15  10
TORSDOF 8
ENDMDL
MODEL 9
REMARK VINA RESULT:      -6.2      3.577      8.122
REMARK  Name = 45783622
REMARK  10 active torsions:
REMARK  status: ('A' for Active; 'I' for Inactive)
REMARK    1  A    between atoms: O_2  and  C_23
REMARK    2  A    between atoms: O_2  and  C_28
REMARK    3  A    between atoms: O_3  and  C_30
REMARK    4  A    between atoms: O_3  and  C_31
REMARK    5  A    between atoms: N_5  and  C_14
REMARK    6  A    between atoms: N_9  and  C_27
REMARK    7  A    between atoms: C_10  and  C_15
REMARK    8  A    between atoms: C_14  and  C_16
REMARK    9  A    between atoms: C_19  and  C_22
REMARK   10  A    between atoms: C_29  and  C_30
REMARK                            x       y       z     vdW  Elec       q    Type
REMARK                         _______ _______ _______ _____ _____    ______ ____
ROOT
ATOM      1  O   UNL     1      12.756  10.420  19.271  0.00  0.00    -0.336 OA
ATOM      6  N   UNL     1      13.633   9.064  17.719  0.00  0.00    -0.190 NA
ATOM      7  N   UNL     1      13.459  11.245  18.386  0.00  0.00    -0.056 NA
ATOM     15  C   UNL     1      12.909   9.151  18.806  0.00  0.00    +0.245 A 
ATOM     19  C   UNL     1      13.948  10.373  17.499  0.00  0.00    +0.204 A 
ENDROOT
BRANCH  19  22
ATOM      8  N   UNL     1      15.421  10.431  14.085  0.00  0.00    -0.239 NA
ATOM     22  C   UNL     1      14.754  10.777  16.383  0.00  0.00    +0.041 A 
ATOM     24  C   UNL     1      15.626  11.855  16.481  0.00  0.00    +0.016 A 
ATOM     25  C   UNL     1      14.689  10.103  15.173  0.00  0.00    +0.124 A 
ATOM     26  C   UNL     1      16.395  12.222  15.383  0.00  0.00    +0.044 A 
ATOM     27  C   UNL     1      16.257  11.484  14.218  0.00  0.00    +0.125 A 
BRANCH  27   9
ATOM      4  O   UNL     1      15.784  13.593  12.124  0.00  0.00    -0.273 OA
ATOM      9  N   UNL     1      17.036  11.862  13.118  0.00  0.00    -0.268 N 
ATOM     29  C   UNL     1      16.764  12.856  12.172  0.00  0.00    +0.244 C 
ATOM     32  H   UNL     1      17.900  11.336  13.014  0.00  0.00    +0.156 HD
BRANCH  29  30
ATOM     30  C   UNL     1      17.853  12.957  11.125  0.00  0.00    +0.255 C 
BRANCH  30   3
ATOM      3  O   UNL     1      18.693  11.826  11.232  0.00  0.00    -0.374 OA
ATOM     31  C   UNL     1      20.070  12.177  11.131  0.00  0.00    +0.194 C 
ENDBRANCH  30   3
ENDBRANCH  29  30
ENDBRANCH  27   9
ENDBRANCH  19  22
BRANCH  15  10
ATOM      5  N   UNL     1      13.060   7.573  20.723  0.00  0.00    -0.287 NA
ATOM     10  C   UNL     1      12.232   8.054  19.600  0.00  0.00    +0.146 C 
ATOM     11  C   UNL     1      10.916   8.519  20.252  0.00  0.00    +0.030 C 
ATOM     12  C   UNL     1      11.075   8.203  21.733  0.00  0.00    +0.017 C 
ATOM     13  C   UNL     1      12.129   7.115  21.755  0.00  0.00    +0.085 C 
BRANCH   5  14
ATOM     14  C   UNL     1      14.005   6.534  20.337  0.00  0.00    +0.120 C 
BRANCH  14  16
ATOM     16  C   UNL     1      15.430   6.958  20.573  0.00  0.00    -0.033 A 
ATOM     17  C   UNL     1      16.479   6.203  20.047  0.00  0.00    +0.008 A 
ATOM     18  C   UNL     1      15.703   8.106  21.317  0.00  0.00    +0.008 A 
ATOM     20  C   UNL     1      17.799   6.596  20.265  0.00  0.00    +0.046 A 
ATOM     21  C   UNL     1      17.023   8.499  21.535  0.00  0.00    +0.046 A 
ATOM     23  C   UNL     1      18.072   7.744  21.011  0.00  0.00    +0.120 A 
BRANCH  23   2
ATOM      2  O   UNL     1      19.360   8.128  21.222  0.00  0.00    -0.495 OA
ATOM     28  C   UNL     1      19.601   9.524  21.395  0.00  0.00    +0.277 C 
ENDBRANCH  23   2
ENDBRANCH  14  16
ENDBRANCH   5  14
ENDBRANCH  15  10
TORSDOF 8
ENDMDL
MODEL 10
REMARK VINA RESULT:      -6.0      3.437      7.955
REMARK  Name = 45783622
REMARK  10 active torsions:
REMARK  status: ('A' for Active; 'I' for Inactive)
REMARK    1  A    between atoms: O_2  and  C_23
REMARK    2  A    between atoms: O_2  and  C_28
REMARK    3  A    between atoms: O_3  and  C_30
REMARK    4  A    between atoms: O_3  and  C_31
REMARK    5  A    between atoms: N_5  and  C_14
REMARK    6  A    between atoms: N_9  and  C_27
REMARK    7  A    between atoms: C_10  and  C_15
REMARK    8  A    between atoms: C_14  and  C_16
REMARK    9  A    between atoms: C_19  and  C_22
REMARK   10  A    between atoms: C_29  and  C_30
REMARK                            x       y       z     vdW  Elec       q    Type
REMARK                         _______ _______ _______ _____ _____    ______ ____
ROOT
ATOM      1  O   UNL     1      12.472   7.812  17.111  0.00  0.00    -0.336 OA
ATOM      6  N   UNL     1      13.650   9.406  18.155  0.00  0.00    -0.190 NA
ATOM      7  N   UNL     1      13.140   8.523  16.107  0.00  0.00    -0.056 NA
ATOM     15  C   UNL     1      12.828   8.396  18.286  0.00  0.00    +0.245 A 
ATOM     19  C   UNL     1      13.813   9.445  16.801  0.00  0.00    +0.204 A 
ENDROOT
BRANCH  19  22
ATOM      8  N   UNL     1      15.874  12.504  16.328  0.00  0.00    -0.239 NA
ATOM     22  C   UNL     1      14.656  10.422  16.173  0.00  0.00    +0.041 A 
ATOM     24  C   UNL     1      15.073  10.268  14.855  0.00  0.00    +0.016 A 
ATOM     25  C   UNL     1      15.081  11.547  16.861  0.00  0.00    +0.124 A 
ATOM     26  C   UNL     1      15.889  11.231  14.274  0.00  0.00    +0.044 A 
ATOM     27  C   UNL     1      16.259  12.321  15.046  0.00  0.00    +0.125 A 
BRANCH  27   9
ATOM      4  O   UNL     1      19.254  12.432  14.775  0.00  0.00    -0.273 OA
ATOM      9  N   UNL     1      17.081  13.285  14.451  0.00  0.00    -0.268 N 
ATOM     29  C   UNL     1      18.477  13.284  14.354  0.00  0.00    +0.244 C 
ATOM     32  H   UNL     1      16.581  14.073  14.047  0.00  0.00    +0.156 HD
BRANCH  29  30
ATOM     30  C   UNL     1      18.997  14.514  13.641  0.00  0.00    +0.255 C 
BRANCH  30   3
ATOM      3  O   UNL     1      18.613  14.450  12.283  0.00  0.00    -0.374 OA
ATOM     31  C   UNL     1      19.533  13.688  11.506  0.00  0.00    +0.194 C 
ENDBRANCH  30   3
ENDBRANCH  29  30
ENDBRANCH  27   9
ENDBRANCH  19  22
BRANCH  15  10
ATOM      5  N   UNL     1      13.124   7.926  20.711  0.00  0.00    -0.287 NA
ATOM     10  C   UNL     1      12.230   7.801  19.544  0.00  0.00    +0.146 C 
ATOM     11  C   UNL     1      10.927   8.502  19.971  0.00  0.00    +0.030 C 
ATOM     12  C   UNL     1      11.162   8.933  21.412  0.00  0.00    +0.017 C 
ATOM     13  C   UNL     1      12.259   8.002  21.888  0.00  0.00    +0.085 C 
BRANCH   5  14
ATOM     14  C   UNL     1      14.093   6.842  20.812  0.00  0.00    +0.120 C 
BRANCH  14  16
ATOM     16  C   UNL     1      15.495   7.359  20.993  0.00  0.00    -0.033 A 
ATOM     17  C   UNL     1      15.738   8.732  20.993  0.00  0.00    +0.008 A 
ATOM     18  C   UNL     1      16.552   6.464  21.161  0.00  0.00    +0.008 A 
ATOM     20  C   UNL     1      17.037   9.211  21.160  0.00  0.00    +0.046 A 
ATOM     21  C   UNL     1      17.851   6.943  21.329  0.00  0.00    +0.046 A 
ATOM     23  C   UNL     1      18.095   8.316  21.328  0.00  0.00    +0.120 A 
BRANCH  23   2
ATOM      2  O   UNL     1      19.362   8.783  21.493  0.00  0.00    -0.495 OA
ATOM     28  C   UNL     1      20.429   7.882  21.200  0.00  0.00    +0.277 C 
ENDBRANCH  23   2
ENDBRANCH  14  16
ENDBRANCH   5  14
ENDBRANCH  15  10
TORSDOF 8
ENDMDL
