REMARK  Name = 45783306
REMARK  2 active torsions:
REMARK  status: ('A' for Active; 'I' for Inactive)
REMARK    1  A    between atoms: C_8  and  C_12
REMARK    2  A    between atoms: C_18  and  C_19
REMARK                            x       y       z     vdW  Elec       q    Type
REMARK                         _______ _______ _______ _____ _____    ______ ____
ROOT
ATOM      2  O   UNL     1      -5.032   2.559  -0.112  0.00  0.00    -0.377 OA
ATOM      4  N   UNL     1      -3.210   0.422   0.002  0.00  0.00    -0.311 N 
ATOM      7  N   UNL     1      -2.968  -1.931  -0.070  0.00  0.00    -0.240 NA
ATOM     13  C   UNL     1      -3.114   1.422  -1.067  0.00  0.00    +0.134 C 
ATOM     14  C   UNL     1      -4.532   0.305   0.632  0.00  0.00    +0.134 C 
ATOM     15  C   UNL     1      -3.700   2.745  -0.590  0.00  0.00    +0.178 C 
ATOM     16  C   UNL     1      -5.042   1.688   1.020  0.00  0.00    +0.178 C 
ATOM     17  C   UNL     1      -2.389  -0.710  -0.026  0.00  0.00    +0.122 A 
ATOM     19  C   UNL     1      -0.190  -1.617  -0.030  0.00  0.00    +0.027 A 
ATOM     20  C   UNL     1      -1.019  -0.501  -0.004  0.00  0.00    +0.055 A 
ATOM     21  C   UNL     1      -0.749  -2.890  -0.076  0.00  0.00    +0.031 A 
ATOM     22  C   UNL     1      -2.130  -2.992  -0.094  0.00  0.00    +0.113 A 
ENDROOT
BRANCH  19  18
ATOM      1  O   UNL     1       3.332  -1.873  -0.001  0.00  0.00    -0.336 OA
ATOM      5  N   UNL     1       1.817  -0.223   0.034  0.00  0.00    -0.190 NA
ATOM      6  N   UNL     1       2.077  -2.495  -0.034  0.00  0.00    -0.056 NA
ATOM     12  C   UNL     1       3.088  -0.537   0.038  0.00  0.00    +0.245 A 
ATOM     18  C   UNL     1       1.236  -1.457  -0.011  0.00  0.00    +0.202 A 
BRANCH  12   8
ATOM      3  N   UNL     1       4.352   1.265  -1.087  0.00  0.00    -0.305 NA
ATOM      8  C   UNL     1       4.299   0.367   0.079  0.00  0.00    +0.143 C 
ATOM      9  C   UNL     1       4.346   1.290   1.306  0.00  0.00    +0.029 C 
ATOM     10  C   UNL     1       4.478   2.695   0.736  0.00  0.00    +0.017 C 
ATOM     11  C   UNL     1       5.051   2.467  -0.646  0.00  0.00    +0.081 C 
ATOM     23  H   UNL     1       3.400   1.531  -1.343  0.00  0.00    +0.123 HD
ENDBRANCH  12   8
ENDBRANCH  19  18
TORSDOF 2
