MODEL 1
REMARK VINA RESULT:      -6.8      0.000      0.000
REMARK  Name = 38029612
REMARK  13 active torsions:
REMARK  status: ('A' for Active; 'I' for Inactive)
REMARK    1  A    between atoms: O_1  and  C_18
REMARK    2  A    between atoms: O_4  and  C_21
REMARK    3  A    between atoms: O_4  and  C_22
REMARK    4  A    between atoms: N_5  and  C_13
REMARK    5  A    between atoms: C_6  and  C_10
REMARK    6  A    between atoms: C_7  and  C_13
REMARK    7  A    between atoms: C_9  and  C_14
REMARK    8  A    between atoms: C_10  and  C_15
REMARK    9  A    between atoms: C_10  and  C_16
REMARK   10  A    between atoms: C_11  and  C_17
REMARK   11  A    between atoms: C_14  and  C_18
REMARK   12  A    between atoms: C_19  and  C_20
REMARK   13  A    between atoms: C_20  and  C_21
REMARK                            x       y       z     vdW  Elec       q    Type
REMARK                         _______ _______ _______ _____ _____    ______ ____
ROOT
ATOM      6  C   UNL     1      -2.818  -0.712  24.852  0.00  0.00    +0.000 C 
ATOM      7  C   UNL     1      -1.669  -0.133  23.989  0.00  0.00    +0.032 C 
ATOM      8  C   UNL     1      -4.182  -0.307  24.270  0.00  0.00    +0.012 C 
ATOM      9  C   UNL     1      -4.351   1.222  24.194  0.00  0.00    +0.025 C 
ATOM     11  C   UNL     1      -3.133   1.894  23.593  0.00  0.00    -0.073 C 
ATOM     12  C   UNL     1      -1.946   1.268  23.497  0.00  0.00    -0.022 C 
ATOM     17  C   UNL     1      -3.320   3.288  23.062  0.00  0.00    +0.039 C 
ENDROOT
BRANCH   6  10
ATOM     10  C   UNL     1      -2.734  -2.237  24.963  0.00  0.00    -0.013 C 
ATOM     15  C   UNL     1      -3.963  -2.885  24.331  0.00  0.00    +0.007 C 
ATOM     16  C   UNL     1      -1.456  -2.749  24.308  0.00  0.00    +0.007 C 
ENDBRANCH   6  10
BRANCH   7  13
ATOM     13  C   UNL     1      -0.340  -0.154  24.752  0.00  0.00    +0.112 C 
BRANCH  13   5
ATOM      3  O   UNL     1       1.533   1.806  23.761  0.00  0.00    -0.276 OA
ATOM      5  N   UNL     1       0.753  -0.382  23.859  0.00  0.00    -0.315 N 
ATOM     19  C   UNL     1       1.616   0.627  23.428  0.00  0.00    +0.215 C 
ATOM     23  H   UNL     1       0.938  -1.337  23.565  0.00  0.00    +0.149 HD
BRANCH  19  20
ATOM     20  C   UNL     1       2.687   0.099  22.487  0.00  0.00    +0.124 C 
BRANCH  20  21
ATOM     21  C   UNL     1       3.945   0.954  22.479  0.00  0.00    +0.168 C 
BRANCH  21   4
ATOM      4  O   UNL     1       4.633   0.794  23.712  0.00  0.00    -0.382 OA
ATOM     22  C   UNL     1       5.371  -0.420  23.744  0.00  0.00    +0.194 C 
ENDBRANCH  21   4
ENDBRANCH  20  21
ENDBRANCH  19  20
ENDBRANCH  13   5
ENDBRANCH   7  13
BRANCH   9  14
ATOM     14  C   UNL     1      -4.680   1.812  25.569  0.00  0.00    +0.128 C 
BRANCH  14  18
ATOM      2  O   UNL     1      -5.893   3.912  25.821  0.00  0.00    -0.251 OA
ATOM     18  C   UNL     1      -5.866   2.732  25.504  0.00  0.00    +0.305 C 
BRANCH  18   1
ATOM      1  O   UNL     1      -6.942   2.053  25.030  0.00  0.00    -0.481 OA
ATOM     24  H   UNL     1      -6.836   1.813  24.085  0.00  0.00    +0.295 HD
ENDBRANCH  18   1
ENDBRANCH  14  18
ENDBRANCH   9  14
TORSDOF 9
ENDMDL
MODEL 2
REMARK VINA RESULT:      -6.3      2.084      3.101
REMARK  Name = 38029612
REMARK  13 active torsions:
REMARK  status: ('A' for Active; 'I' for Inactive)
REMARK    1  A    between atoms: O_1  and  C_18
REMARK    2  A    between atoms: O_4  and  C_21
REMARK    3  A    between atoms: O_4  and  C_22
REMARK    4  A    between atoms: N_5  and  C_13
REMARK    5  A    between atoms: C_6  and  C_10
REMARK    6  A    between atoms: C_7  and  C_13
REMARK    7  A    between atoms: C_9  and  C_14
REMARK    8  A    between atoms: C_10  and  C_15
REMARK    9  A    between atoms: C_10  and  C_16
REMARK   10  A    between atoms: C_11  and  C_17
REMARK   11  A    between atoms: C_14  and  C_18
REMARK   12  A    between atoms: C_19  and  C_20
REMARK   13  A    between atoms: C_20  and  C_21
REMARK                            x       y       z     vdW  Elec       q    Type
REMARK                         _______ _______ _______ _____ _____    ______ ____
ROOT
ATOM      6  C   UNL     1      -3.031  -0.654  24.826  0.00  0.00    +0.000 C 
ATOM      7  C   UNL     1      -2.078  -0.202  23.691  0.00  0.00    +0.032 C 
ATOM      8  C   UNL     1      -4.467  -0.191  24.536  0.00  0.00    +0.012 C 
ATOM      9  C   UNL     1      -4.568   1.339  24.394  0.00  0.00    +0.025 C 
ATOM     11  C   UNL     1      -3.485   1.894  23.492  0.00  0.00    -0.073 C 
ATOM     12  C   UNL     1      -2.384   1.185  23.178  0.00  0.00    -0.022 C 
ATOM     17  C   UNL     1      -3.713   3.266  22.921  0.00  0.00    +0.039 C 
ENDROOT
BRANCH   6  10
ATOM     10  C   UNL     1      -3.005  -2.172  25.021  0.00  0.00    -0.013 C 
ATOM     15  C   UNL     1      -4.048  -2.841  24.131  0.00  0.00    +0.007 C 
ATOM     16  C   UNL     1      -1.613  -2.723  24.731  0.00  0.00    +0.007 C 
ENDBRANCH   6  10
BRANCH   7  13
ATOM     13  C   UNL     1      -0.614  -0.270  24.139  0.00  0.00    +0.112 C 
BRANCH  13   5
ATOM      3  O   UNL     1       0.955   2.149  23.988  0.00  0.00    -0.276 OA
ATOM      5  N   UNL     1      -0.363   0.662  25.195  0.00  0.00    -0.315 N 
ATOM     19  C   UNL     1       0.410   1.813  25.035  0.00  0.00    +0.215 C 
ATOM     23  H   UNL     1      -0.813   0.499  26.090  0.00  0.00    +0.149 HD
BRANCH  19  20
ATOM     20  C   UNL     1       0.505   2.618  26.321  0.00  0.00    +0.124 C 
BRANCH  20  21
ATOM     21  C   UNL     1      -0.807   3.287  26.702  0.00  0.00    +0.168 C 
BRANCH  21   4
ATOM      4  O   UNL     1      -1.520   3.634  25.522  0.00  0.00    -0.382 OA
ATOM     22  C   UNL     1      -1.274   4.981  25.141  0.00  0.00    +0.194 C 
ENDBRANCH  21   4
ENDBRANCH  20  21
ENDBRANCH  19  20
ENDBRANCH  13   5
ENDBRANCH   7  13
BRANCH   9  14
ATOM     14  C   UNL     1      -4.546   2.026  25.764  0.00  0.00    +0.128 C 
BRANCH  14  18
ATOM      2  O   UNL     1      -6.024   3.961  25.639  0.00  0.00    -0.251 OA
ATOM     18  C   UNL     1      -5.801   2.816  26.004  0.00  0.00    +0.305 C 
BRANCH  18   1
ATOM      1  O   UNL     1      -6.685   2.062  26.707  0.00  0.00    -0.481 OA
ATOM     24  H   UNL     1      -6.642   2.249  27.669  0.00  0.00    +0.295 HD
ENDBRANCH  18   1
ENDBRANCH  14  18
ENDBRANCH   9  14
TORSDOF 9
ENDMDL
MODEL 3
REMARK VINA RESULT:      -5.9     19.663     23.134
REMARK  Name = 38029612
REMARK  13 active torsions:
REMARK  status: ('A' for Active; 'I' for Inactive)
REMARK    1  A    between atoms: O_1  and  C_18
REMARK    2  A    between atoms: O_4  and  C_21
REMARK    3  A    between atoms: O_4  and  C_22
REMARK    4  A    between atoms: N_5  and  C_13
REMARK    5  A    between atoms: C_6  and  C_10
REMARK    6  A    between atoms: C_7  and  C_13
REMARK    7  A    between atoms: C_9  and  C_14
REMARK    8  A    between atoms: C_10  and  C_15
REMARK    9  A    between atoms: C_10  and  C_16
REMARK   10  A    between atoms: C_11  and  C_17
REMARK   11  A    between atoms: C_14  and  C_18
REMARK   12  A    between atoms: C_19  and  C_20
REMARK   13  A    between atoms: C_20  and  C_21
REMARK                            x       y       z     vdW  Elec       q    Type
REMARK                         _______ _______ _______ _____ _____    ______ ____
ROOT
ATOM      6  C   UNL     1       9.510   8.751   7.281  0.00  0.00    +0.000 C 
ATOM      7  C   UNL     1       9.084   8.646   5.796  0.00  0.00    +0.032 C 
ATOM      8  C   UNL     1      10.601   7.717   7.601  0.00  0.00    +0.012 C 
ATOM      9  C   UNL     1      10.134   6.275   7.328  0.00  0.00    +0.025 C 
ATOM     11  C   UNL     1       9.457   6.148   5.979  0.00  0.00    -0.073 C 
ATOM     12  C   UNL     1       9.005   7.220   5.302  0.00  0.00    -0.022 C 
ATOM     17  C   UNL     1       9.349   4.764   5.401  0.00  0.00    +0.039 C 
ENDROOT
BRANCH   6  10
ATOM     10  C   UNL     1      10.009  10.156   7.632  0.00  0.00    -0.013 C 
ATOM     15  C   UNL     1       9.466  10.589   8.991  0.00  0.00    +0.007 C 
ATOM     16  C   UNL     1      11.533  10.198   7.620  0.00  0.00    +0.007 C 
ENDBRANCH   6  10
BRANCH   7  13
ATOM     13  C   UNL     1       7.741   9.344   5.555  0.00  0.00    +0.112 C 
BRANCH  13   5
ATOM      3  O   UNL     1       8.042  11.048   3.244  0.00  0.00    -0.276 OA
ATOM      5  N   UNL     1       7.268   9.090   4.229  0.00  0.00    -0.315 N 
ATOM     19  C   UNL     1       7.458   9.971   3.164  0.00  0.00    +0.215 C 
ATOM     23  H   UNL     1       6.815   8.199   4.048  0.00  0.00    +0.149 HD
BRANCH  19  20
ATOM     20  C   UNL     1       6.853   9.443   1.873  0.00  0.00    +0.124 C 
BRANCH  20  21
ATOM     21  C   UNL     1       5.462   9.996   1.599  0.00  0.00    +0.168 C 
BRANCH  21   4
ATOM      4  O   UNL     1       4.695   9.955   2.795  0.00  0.00    -0.382 OA
ATOM     22  C   UNL     1       4.056  11.200   3.047  0.00  0.00    +0.194 C 
ENDBRANCH  21   4
ENDBRANCH  20  21
ENDBRANCH  19  20
ENDBRANCH  13   5
ENDBRANCH   7  13
BRANCH   9  14
ATOM     14  C   UNL     1       9.222   5.767   8.450  0.00  0.00    +0.128 C 
BRANCH  14  18
ATOM      2  O   UNL     1       9.983   4.683  10.497  0.00  0.00    -0.251 OA
ATOM     18  C   UNL     1       9.901   4.713   9.278  0.00  0.00    +0.305 C 
BRANCH  18   1
ATOM      1  O   UNL     1      10.432   3.767   8.462  0.00  0.00    -0.481 OA
ATOM     24  H   UNL     1       9.946   2.916   8.524  0.00  0.00    +0.295 HD
ENDBRANCH  18   1
ENDBRANCH  14  18
ENDBRANCH   9  14
TORSDOF 9
ENDMDL
MODEL 4
REMARK VINA RESULT:      -5.9     13.627     15.945
REMARK  Name = 38029612
REMARK  13 active torsions:
REMARK  status: ('A' for Active; 'I' for Inactive)
REMARK    1  A    between atoms: O_1  and  C_18
REMARK    2  A    between atoms: O_4  and  C_21
REMARK    3  A    between atoms: O_4  and  C_22
REMARK    4  A    between atoms: N_5  and  C_13
REMARK    5  A    between atoms: C_6  and  C_10
REMARK    6  A    between atoms: C_7  and  C_13
REMARK    7  A    between atoms: C_9  and  C_14
REMARK    8  A    between atoms: C_10  and  C_15
REMARK    9  A    between atoms: C_10  and  C_16
REMARK   10  A    between atoms: C_11  and  C_17
REMARK   11  A    between atoms: C_14  and  C_18
REMARK   12  A    between atoms: C_19  and  C_20
REMARK   13  A    between atoms: C_20  and  C_21
REMARK                            x       y       z     vdW  Elec       q    Type
REMARK                         _______ _______ _______ _____ _____    ______ ____
ROOT
ATOM      6  C   UNL     1      -5.750 -10.306  15.392  0.00  0.00    +0.000 C 
ATOM      7  C   UNL     1      -6.625 -10.516  16.653  0.00  0.00    +0.032 C 
ATOM      8  C   UNL     1      -4.726 -11.444  15.255  0.00  0.00    +0.012 C 
ATOM      9  C   UNL     1      -3.799 -11.544  16.480  0.00  0.00    +0.025 C 
ATOM     11  C   UNL     1      -4.576 -11.488  17.780  0.00  0.00    -0.073 C 
ATOM     12  C   UNL     1      -5.843 -11.037  17.836  0.00  0.00    -0.022 C 
ATOM     17  C   UNL     1      -3.881 -12.003  19.010  0.00  0.00    +0.039 C 
ENDROOT
BRANCH   6  10
ATOM     10  C   UNL     1      -6.597 -10.215  14.120  0.00  0.00    -0.013 C 
ATOM     15  C   UNL     1      -5.701 -10.070  12.893  0.00  0.00    +0.007 C 
ATOM     16  C   UNL     1      -7.498 -11.438  13.991  0.00  0.00    +0.007 C 
ENDBRANCH   6  10
BRANCH   7  13
ATOM     13  C   UNL     1      -7.346  -9.222  17.047  0.00  0.00    +0.112 C 
BRANCH  13   5
ATOM      3  O   UNL     1     -10.080 -10.080  16.697  0.00  0.00    -0.276 OA
ATOM      5  N   UNL     1      -8.309  -9.472  18.075  0.00  0.00    -0.315 N 
ATOM     19  C   UNL     1      -9.616  -9.886  17.817  0.00  0.00    +0.215 C 
ATOM     23  H   UNL     1      -8.006  -9.388  19.041  0.00  0.00    +0.149 HD
BRANCH  19  20
ATOM     20  C   UNL     1     -10.416 -10.077  19.096  0.00  0.00    +0.124 C 
BRANCH  20  21
ATOM     21  C   UNL     1     -10.151 -11.415  19.769  0.00  0.00    +0.168 C 
BRANCH  21   4
ATOM      4  O   UNL     1      -8.767 -11.523  20.077  0.00  0.00    -0.382 OA
ATOM     22  C   UNL     1      -8.296 -12.853  19.904  0.00  0.00    +0.194 C 
ENDBRANCH  21   4
ENDBRANCH  20  21
ENDBRANCH  19  20
ENDBRANCH  13   5
ENDBRANCH   7  13
BRANCH   9  14
ATOM     14  C   UNL     1      -2.713 -10.465  16.444  0.00  0.00    +0.128 C 
BRANCH  14  18
ATOM      2  O   UNL     1      -1.296 -11.801  14.977  0.00  0.00    -0.251 OA
ATOM     18  C   UNL     1      -1.724 -10.715  15.341  0.00  0.00    +0.305 C 
BRANCH  18   1
ATOM      1  O   UNL     1      -1.355  -9.534  14.784  0.00  0.00    -0.481 OA
ATOM     24  H   UNL     1      -1.914  -8.791  15.098  0.00  0.00    +0.295 HD
ENDBRANCH  18   1
ENDBRANCH  14  18
ENDBRANCH   9  14
TORSDOF 9
ENDMDL
MODEL 5
REMARK VINA RESULT:      -5.9     13.520     14.710
REMARK  Name = 38029612
REMARK  13 active torsions:
REMARK  status: ('A' for Active; 'I' for Inactive)
REMARK    1  A    between atoms: O_1  and  C_18
REMARK    2  A    between atoms: O_4  and  C_21
REMARK    3  A    between atoms: O_4  and  C_22
REMARK    4  A    between atoms: N_5  and  C_13
REMARK    5  A    between atoms: C_6  and  C_10
REMARK    6  A    between atoms: C_7  and  C_13
REMARK    7  A    between atoms: C_9  and  C_14
REMARK    8  A    between atoms: C_10  and  C_15
REMARK    9  A    between atoms: C_10  and  C_16
REMARK   10  A    between atoms: C_11  and  C_17
REMARK   11  A    between atoms: C_14  and  C_18
REMARK   12  A    between atoms: C_19  and  C_20
REMARK   13  A    between atoms: C_20  and  C_21
REMARK                            x       y       z     vdW  Elec       q    Type
REMARK                         _______ _______ _______ _____ _____    ______ ____
ROOT
ATOM      6  C   UNL     1     -10.991  -9.970  18.906  0.00  0.00    +0.000 C 
ATOM      7  C   UNL     1      -9.978 -10.999  18.346  0.00  0.00    +0.032 C 
ATOM      8  C   UNL     1     -11.877  -9.421  17.776  0.00  0.00    +0.012 C 
ATOM      9  C   UNL     1     -11.051  -8.739  16.669  0.00  0.00    +0.025 C 
ATOM     11  C   UNL     1      -9.866  -9.585  16.248  0.00  0.00    -0.073 C 
ATOM     12  C   UNL     1      -9.409 -10.600  17.005  0.00  0.00    -0.022 C 
ATOM     17  C   UNL     1      -9.245  -9.269  14.916  0.00  0.00    +0.039 C 
ENDROOT
BRANCH   6  10
ATOM     10  C   UNL     1     -11.870 -10.576  20.004  0.00  0.00    -0.013 C 
ATOM     15  C   UNL     1     -12.933  -9.576  20.448  0.00  0.00    +0.007 C 
ATOM     16  C   UNL     1     -12.513 -11.870  19.518  0.00  0.00    +0.007 C 
ENDBRANCH   6  10
BRANCH   7  13
ATOM     13  C   UNL     1      -8.832 -11.241  19.335  0.00  0.00    +0.112 C 
BRANCH  13   5
ATOM      3  O   UNL     1      -6.261 -10.993  20.624  0.00  0.00    -0.276 OA
ATOM      5  N   UNL     1      -7.565 -11.050  18.700  0.00  0.00    -0.315 N 
ATOM     19  C   UNL     1      -6.364 -10.940  19.401  0.00  0.00    +0.215 C 
ATOM     23  H   UNL     1      -7.537 -11.044  17.685  0.00  0.00    +0.149 HD
BRANCH  19  20
ATOM     20  C   UNL     1      -5.176 -10.746  18.472  0.00  0.00    +0.124 C 
BRANCH  20  21
ATOM     21  C   UNL     1      -5.503 -11.053  17.018  0.00  0.00    +0.168 C 
BRANCH  21   4
ATOM      4  O   UNL     1      -5.860  -9.850  16.350  0.00  0.00    -0.382 OA
ATOM     22  C   UNL     1      -5.670  -9.957  14.946  0.00  0.00    +0.194 C 
ENDBRANCH  21   4
ENDBRANCH  20  21
ENDBRANCH  19  20
ENDBRANCH  13   5
ENDBRANCH   7  13
BRANCH   9  14
ATOM     14  C   UNL     1     -10.601  -7.339  17.096  0.00  0.00    +0.128 C 
BRANCH  14  18
ATOM      2  O   UNL     1     -12.125  -5.954  15.791  0.00  0.00    -0.251 OA
ATOM     18  C   UNL     1     -10.990  -6.302  16.081  0.00  0.00    +0.305 C 
BRANCH  18   1
ATOM      1  O   UNL     1      -9.873  -5.784  15.508  0.00  0.00    -0.481 OA
ATOM     24  H   UNL     1     -10.084  -5.248  14.714  0.00  0.00    +0.295 HD
ENDBRANCH  18   1
ENDBRANCH  14  18
ENDBRANCH   9  14
TORSDOF 9
ENDMDL
MODEL 6
REMARK VINA RESULT:      -5.8     18.478     21.578
REMARK  Name = 38029612
REMARK  13 active torsions:
REMARK  status: ('A' for Active; 'I' for Inactive)
REMARK    1  A    between atoms: O_1  and  C_18
REMARK    2  A    between atoms: O_4  and  C_21
REMARK    3  A    between atoms: O_4  and  C_22
REMARK    4  A    between atoms: N_5  and  C_13
REMARK    5  A    between atoms: C_6  and  C_10
REMARK    6  A    between atoms: C_7  and  C_13
REMARK    7  A    between atoms: C_9  and  C_14
REMARK    8  A    between atoms: C_10  and  C_15
REMARK    9  A    between atoms: C_10  and  C_16
REMARK   10  A    between atoms: C_11  and  C_17
REMARK   11  A    between atoms: C_14  and  C_18
REMARK   12  A    between atoms: C_19  and  C_20
REMARK   13  A    between atoms: C_20  and  C_21
REMARK                            x       y       z     vdW  Elec       q    Type
REMARK                         _______ _______ _______ _____ _____    ______ ____
ROOT
ATOM      6  C   UNL     1      17.475  -3.449  23.784  0.00  0.00    +0.000 C 
ATOM      7  C   UNL     1      17.272  -3.952  25.235  0.00  0.00    +0.032 C 
ATOM      8  C   UNL     1      17.283  -4.602  22.786  0.00  0.00    +0.012 C 
ATOM      9  C   UNL     1      18.261  -5.763  23.041  0.00  0.00    +0.025 C 
ATOM     11  C   UNL     1      18.315  -6.141  24.508  0.00  0.00    -0.073 C 
ATOM     12  C   UNL     1      17.857  -5.324  25.473  0.00  0.00    -0.022 C 
ATOM     17  C   UNL     1      18.869  -7.500  24.838  0.00  0.00    +0.039 C 
ENDROOT
BRANCH   6  10
ATOM     10  C   UNL     1      16.522  -2.301  23.440  0.00  0.00    -0.013 C 
ATOM     15  C   UNL     1      17.238  -1.249  22.599  0.00  0.00    +0.007 C 
ATOM     16  C   UNL     1      15.291  -2.831  22.711  0.00  0.00    +0.007 C 
ENDBRANCH   6  10
BRANCH   7  13
ATOM     13  C   UNL     1      17.858  -2.964  26.249  0.00  0.00    +0.112 C 
BRANCH  13   5
ATOM      3  O   UNL     1      19.314  -0.643  25.339  0.00  0.00    -0.276 OA
ATOM      5  N   UNL     1      19.274  -2.845  26.082  0.00  0.00    -0.315 N 
ATOM     19  C   UNL     1      19.899  -1.681  25.635  0.00  0.00    +0.215 C 
ATOM     23  H   UNL     1      19.853  -3.635  26.350  0.00  0.00    +0.149 HD
BRANCH  19  20
ATOM     20  C   UNL     1      21.409  -1.839  25.555  0.00  0.00    +0.124 C 
BRANCH  20  21
ATOM     21  C   UNL     1      21.896  -3.176  26.092  0.00  0.00    +0.168 C 
BRANCH  21   4
ATOM      4  O   UNL     1      21.642  -4.192  25.130  0.00  0.00    -0.382 OA
ATOM     22  C   UNL     1      21.894  -5.486  25.659  0.00  0.00    +0.194 C 
ENDBRANCH  21   4
ENDBRANCH  20  21
ENDBRANCH  19  20
ENDBRANCH  13   5
ENDBRANCH   7  13
BRANCH   9  14
ATOM     14  C   UNL     1      19.660  -5.438  22.507  0.00  0.00    +0.128 C 
BRANCH  14  18
ATOM      2  O   UNL     1      19.984  -7.133  20.785  0.00  0.00    -0.251 OA
ATOM     18  C   UNL     1      19.853  -5.963  21.113  0.00  0.00    +0.305 C 
BRANCH  18   1
ATOM      1  O   UNL     1      19.863  -4.928  20.235  0.00  0.00    -0.481 OA
ATOM     24  H   UNL     1      20.102  -4.082  20.669  0.00  0.00    +0.295 HD
ENDBRANCH  18   1
ENDBRANCH  14  18
ENDBRANCH   9  14
TORSDOF 9
ENDMDL
MODEL 7
REMARK VINA RESULT:      -5.7     13.468     14.636
REMARK  Name = 38029612
REMARK  13 active torsions:
REMARK  status: ('A' for Active; 'I' for Inactive)
REMARK    1  A    between atoms: O_1  and  C_18
REMARK    2  A    between atoms: O_4  and  C_21
REMARK    3  A    between atoms: O_4  and  C_22
REMARK    4  A    between atoms: N_5  and  C_13
REMARK    5  A    between atoms: C_6  and  C_10
REMARK    6  A    between atoms: C_7  and  C_13
REMARK    7  A    between atoms: C_9  and  C_14
REMARK    8  A    between atoms: C_10  and  C_15
REMARK    9  A    between atoms: C_10  and  C_16
REMARK   10  A    between atoms: C_11  and  C_17
REMARK   11  A    between atoms: C_14  and  C_18
REMARK   12  A    between atoms: C_19  and  C_20
REMARK   13  A    between atoms: C_20  and  C_21
REMARK                            x       y       z     vdW  Elec       q    Type
REMARK                         _______ _______ _______ _____ _____    ______ ____
ROOT
ATOM      6  C   UNL     1      -5.780 -10.663  17.685  0.00  0.00    +0.000 C 
ATOM      7  C   UNL     1      -5.164 -11.035  16.314  0.00  0.00    +0.032 C 
ATOM      8  C   UNL     1      -7.279 -11.002  17.710  0.00  0.00    +0.012 C 
ATOM      9  C   UNL     1      -8.060 -10.264  16.607  0.00  0.00    +0.025 C 
ATOM     11  C   UNL     1      -7.367 -10.362  15.263  0.00  0.00    -0.073 C 
ATOM     12  C   UNL     1      -6.075 -10.721  15.151  0.00  0.00    -0.022 C 
ATOM     17  C   UNL     1      -8.204 -10.081  14.046  0.00  0.00    +0.039 C 
ENDROOT
BRANCH   6  10
ATOM     10  C   UNL     1      -5.069 -11.373  18.841  0.00  0.00    -0.013 C 
ATOM     15  C   UNL     1      -5.888 -11.257  20.122  0.00  0.00    +0.007 C 
ATOM     16  C   UNL     1      -4.816 -12.836  18.491  0.00  0.00    +0.007 C 
ENDBRANCH   6  10
BRANCH   7  13
ATOM     13  C   UNL     1      -3.814 -10.340  16.107  0.00  0.00    +0.112 C 
BRANCH  13   5
ATOM      3  O   UNL     1      -1.133 -10.504  15.049  0.00  0.00    -0.276 OA
ATOM      5  N   UNL     1      -3.432 -10.373  14.729  0.00  0.00    -0.315 N 
ATOM     19  C   UNL     1      -2.106 -10.454  14.302  0.00  0.00    +0.215 C 
ATOM     23  H   UNL     1      -4.169 -10.388  14.031  0.00  0.00    +0.149 HD
BRANCH  19  20
ATOM     20  C   UNL     1      -1.996 -10.476  12.786  0.00  0.00    +0.124 C 
BRANCH  20  21
ATOM     21  C   UNL     1      -3.276 -10.933  12.103  0.00  0.00    +0.168 C 
BRANCH  21   4
ATOM      4  O   UNL     1      -4.078  -9.800  11.797  0.00  0.00    -0.382 OA
ATOM     22  C   UNL     1      -3.909  -9.390  10.446  0.00  0.00    +0.194 C 
ENDBRANCH  21   4
ENDBRANCH  20  21
ENDBRANCH  19  20
ENDBRANCH  13   5
ENDBRANCH   7  13
BRANCH   9  14
ATOM     14  C   UNL     1      -8.311  -8.801  16.990  0.00  0.00    +0.128 C 
BRANCH  14  18
ATOM      2  O   UNL     1     -10.541  -9.421  17.756  0.00  0.00    -0.251 OA
ATOM     18  C   UNL     1      -9.741  -8.573  17.388  0.00  0.00    +0.305 C 
BRANCH  18   1
ATOM      1  O   UNL     1     -10.038  -7.253  17.280  0.00  0.00    -0.481 OA
ATOM     24  H   UNL     1      -9.235  -6.708  17.140  0.00  0.00    +0.295 HD
ENDBRANCH  18   1
ENDBRANCH  14  18
ENDBRANCH   9  14
TORSDOF 9
ENDMDL
MODEL 8
REMARK VINA RESULT:      -5.6     20.534     24.332
REMARK  Name = 38029612
REMARK  13 active torsions:
REMARK  status: ('A' for Active; 'I' for Inactive)
REMARK    1  A    between atoms: O_1  and  C_18
REMARK    2  A    between atoms: O_4  and  C_21
REMARK    3  A    between atoms: O_4  and  C_22
REMARK    4  A    between atoms: N_5  and  C_13
REMARK    5  A    between atoms: C_6  and  C_10
REMARK    6  A    between atoms: C_7  and  C_13
REMARK    7  A    between atoms: C_9  and  C_14
REMARK    8  A    between atoms: C_10  and  C_15
REMARK    9  A    between atoms: C_10  and  C_16
REMARK   10  A    between atoms: C_11  and  C_17
REMARK   11  A    between atoms: C_14  and  C_18
REMARK   12  A    between atoms: C_19  and  C_20
REMARK   13  A    between atoms: C_20  and  C_21
REMARK                            x       y       z     vdW  Elec       q    Type
REMARK                         _______ _______ _______ _____ _____    ______ ____
ROOT
ATOM      6  C   UNL     1      10.149   7.928   4.694  0.00  0.00    +0.000 C 
ATOM      7  C   UNL     1      11.638   8.177   4.346  0.00  0.00    +0.032 C 
ATOM      8  C   UNL     1       9.932   8.016   6.212  0.00  0.00    +0.012 C 
ATOM      9  C   UNL     1      10.789   6.995   6.983  0.00  0.00    +0.025 C 
ATOM     11  C   UNL     1      12.227   6.993   6.506  0.00  0.00    -0.073 C 
ATOM     12  C   UNL     1      12.590   7.537   5.330  0.00  0.00    -0.022 C 
ATOM     17  C   UNL     1      13.249   6.390   7.430  0.00  0.00    +0.039 C 
ENDROOT
BRANCH   6  10
ATOM     10  C   UNL     1       9.226   8.919   3.980  0.00  0.00    -0.013 C 
ATOM     15  C   UNL     1       8.111   8.176   3.249  0.00  0.00    +0.007 C 
ATOM     16  C   UNL     1       8.647   9.919   4.975  0.00  0.00    +0.007 C 
ENDBRANCH   6  10
BRANCH   7  13
ATOM     13  C   UNL     1      11.964   7.690   2.930  0.00  0.00    +0.112 C 
BRANCH  13   5
ATOM      3  O   UNL     1      10.185   6.596   0.936  0.00  0.00    -0.276 OA
ATOM      5  N   UNL     1      11.591   6.318   2.767  0.00  0.00    -0.315 N 
ATOM     19  C   UNL     1      10.721   5.873   1.771  0.00  0.00    +0.215 C 
ATOM     23  H   UNL     1      12.022   5.632   3.379  0.00  0.00    +0.149 HD
BRANCH  19  20
ATOM     20  C   UNL     1      10.506   4.369   1.833  0.00  0.00    +0.124 C 
BRANCH  20  21
ATOM     21  C   UNL     1      11.781   3.599   2.144  0.00  0.00    +0.168 C 
BRANCH  21   4
ATOM      4  O   UNL     1      12.778   3.929   1.185  0.00  0.00    -0.382 OA
ATOM     22  C   UNL     1      14.065   3.489   1.598  0.00  0.00    +0.194 C 
ENDBRANCH  21   4
ENDBRANCH  20  21
ENDBRANCH  19  20
ENDBRANCH  13   5
ENDBRANCH   7  13
BRANCH   9  14
ATOM     14  C   UNL     1      10.183   5.590   6.904  0.00  0.00    +0.128 C 
BRANCH  14  18
ATOM      2  O   UNL     1       9.198   5.603   9.134  0.00  0.00    -0.251 OA
ATOM     18  C   UNL     1       9.861   5.051   8.268  0.00  0.00    +0.305 C 
BRANCH  18   1
ATOM      1  O   UNL     1      10.426   3.826   8.418  0.00  0.00    -0.481 OA
ATOM     24  H   UNL     1      10.977   3.580   7.644  0.00  0.00    +0.295 HD
ENDBRANCH  18   1
ENDBRANCH  14  18
ENDBRANCH   9  14
TORSDOF 9
ENDMDL
MODEL 9
REMARK VINA RESULT:      -5.6     13.920     14.851
REMARK  Name = 38029612
REMARK  13 active torsions:
REMARK  status: ('A' for Active; 'I' for Inactive)
REMARK    1  A    between atoms: O_1  and  C_18
REMARK    2  A    between atoms: O_4  and  C_21
REMARK    3  A    between atoms: O_4  and  C_22
REMARK    4  A    between atoms: N_5  and  C_13
REMARK    5  A    between atoms: C_6  and  C_10
REMARK    6  A    between atoms: C_7  and  C_13
REMARK    7  A    between atoms: C_9  and  C_14
REMARK    8  A    between atoms: C_10  and  C_15
REMARK    9  A    between atoms: C_10  and  C_16
REMARK   10  A    between atoms: C_11  and  C_17
REMARK   11  A    between atoms: C_14  and  C_18
REMARK   12  A    between atoms: C_19  and  C_20
REMARK   13  A    between atoms: C_20  and  C_21
REMARK                            x       y       z     vdW  Elec       q    Type
REMARK                         _______ _______ _______ _____ _____    ______ ____
ROOT
ATOM      6  C   UNL     1      -8.191  -9.955  16.744  0.00  0.00    +0.000 C 
ATOM      7  C   UNL     1      -6.677  -9.627  16.781  0.00  0.00    +0.032 C 
ATOM      8  C   UNL     1      -8.777  -9.941  18.164  0.00  0.00    +0.012 C 
ATOM      9  C   UNL     1      -8.081 -10.955  19.091  0.00  0.00    +0.025 C 
ATOM     11  C   UNL     1      -6.572 -10.874  18.983  0.00  0.00    -0.073 C 
ATOM     12  C   UNL     1      -5.962 -10.265  17.949  0.00  0.00    -0.022 C 
ATOM     17  C   UNL     1      -5.778 -11.469  20.112  0.00  0.00    +0.039 C 
ENDROOT
BRANCH   6  10
ATOM     10  C   UNL     1      -8.963  -8.977  15.854  0.00  0.00    -0.013 C 
ATOM     15  C   UNL     1      -9.868  -9.736  14.888  0.00  0.00    +0.007 C 
ATOM     16  C   UNL     1      -9.775  -8.008  16.707  0.00  0.00    +0.007 C 
ENDBRANCH   6  10
BRANCH   7  13
ATOM     13  C   UNL     1      -5.990 -10.040  15.475  0.00  0.00    +0.112 C 
BRANCH  13   5
ATOM      3  O   UNL     1      -4.206 -12.309  15.415  0.00  0.00    -0.276 OA
ATOM      5  N   UNL     1      -4.567 -10.022  15.623  0.00  0.00    -0.315 N 
ATOM     19  C   UNL     1      -3.776 -11.171  15.581  0.00  0.00    +0.215 C 
ATOM     23  H   UNL     1      -4.109  -9.120  15.715  0.00  0.00    +0.149 HD
BRANCH  19  20
ATOM     20  C   UNL     1      -2.300 -10.855  15.764  0.00  0.00    +0.124 C 
BRANCH  20  21
ATOM     21  C   UNL     1      -1.669 -10.231  14.528  0.00  0.00    +0.168 C 
BRANCH  21   4
ATOM      4  O   UNL     1      -2.586 -10.298  13.445  0.00  0.00    -0.382 OA
ATOM     22  C   UNL     1      -1.915 -10.441  12.200  0.00  0.00    +0.194 C 
ENDBRANCH  21   4
ENDBRANCH  20  21
ENDBRANCH  19  20
ENDBRANCH  13   5
ENDBRANCH   7  13
BRANCH   9  14
ATOM     14  C   UNL     1      -8.575 -12.381  18.823  0.00  0.00    +0.128 C 
BRANCH  14  18
ATOM      2  O   UNL     1     -10.315 -12.653  20.508  0.00  0.00    -0.251 OA
ATOM     18  C   UNL     1      -9.234 -12.973  20.036  0.00  0.00    +0.305 C 
BRANCH  18   1
ATOM      1  O   UNL     1      -8.441 -13.944  20.556  0.00  0.00    -0.481 OA
ATOM     24  H   UNL     1      -8.855 -14.831  20.486  0.00  0.00    +0.295 HD
ENDBRANCH  18   1
ENDBRANCH  14  18
ENDBRANCH   9  14
TORSDOF 9
ENDMDL
MODEL 10
REMARK VINA RESULT:      -5.6     18.402     21.487
REMARK  Name = 38029612
REMARK  13 active torsions:
REMARK  status: ('A' for Active; 'I' for Inactive)
REMARK    1  A    between atoms: O_1  and  C_18
REMARK    2  A    between atoms: O_4  and  C_21
REMARK    3  A    between atoms: O_4  and  C_22
REMARK    4  A    between atoms: N_5  and  C_13
REMARK    5  A    between atoms: C_6  and  C_10
REMARK    6  A    between atoms: C_7  and  C_13
REMARK    7  A    between atoms: C_9  and  C_14
REMARK    8  A    between atoms: C_10  and  C_15
REMARK    9  A    between atoms: C_10  and  C_16
REMARK   10  A    between atoms: C_11  and  C_17
REMARK   11  A    between atoms: C_14  and  C_18
REMARK   12  A    between atoms: C_19  and  C_20
REMARK   13  A    between atoms: C_20  and  C_21
REMARK                            x       y       z     vdW  Elec       q    Type
REMARK                         _______ _______ _______ _____ _____    ______ ____
ROOT
ATOM      6  C   UNL     1      17.400  -3.553  23.767  0.00  0.00    +0.000 C 
ATOM      7  C   UNL     1      17.068  -4.012  25.209  0.00  0.00    +0.032 C 
ATOM      8  C   UNL     1      17.187  -4.707  22.775  0.00  0.00    +0.012 C 
ATOM      9  C   UNL     1      18.060  -5.931  23.110  0.00  0.00    +0.025 C 
ATOM     11  C   UNL     1      17.993  -6.284  24.582  0.00  0.00    -0.073 C 
ATOM     12  C   UNL     1      17.534  -5.418  25.504  0.00  0.00    -0.022 C 
ATOM     17  C   UNL     1      18.423  -7.672  24.968  0.00  0.00    +0.039 C 
ENDROOT
BRANCH   6  10
ATOM     10  C   UNL     1      16.557  -2.346  23.345  0.00  0.00    -0.013 C 
ATOM     15  C   UNL     1      17.345  -1.454  22.390  0.00  0.00    +0.007 C 
ATOM     16  C   UNL     1      15.252  -2.805  22.704  0.00  0.00    +0.007 C 
ENDBRANCH   6  10
BRANCH   7  13
ATOM     13  C   UNL     1      17.659  -3.049  26.245  0.00  0.00    +0.112 C 
BRANCH  13   5
ATOM      3  O   UNL     1      19.119  -0.747  25.295  0.00  0.00    -0.276 OA
ATOM      5  N   UNL     1      19.075  -2.935  26.080  0.00  0.00    -0.315 N 
ATOM     19  C   UNL     1      19.703  -1.779  25.613  0.00  0.00    +0.215 C 
ATOM     23  H   UNL     1      19.653  -3.720  26.366  0.00  0.00    +0.149 HD
BRANCH  19  20
ATOM     20  C   UNL     1      21.213  -1.939  25.542  0.00  0.00    +0.124 C 
BRANCH  20  21
ATOM     21  C   UNL     1      21.856  -2.129  26.908  0.00  0.00    +0.168 C 
BRANCH  21   4
ATOM      4  O   UNL     1      20.990  -1.616  27.912  0.00  0.00    -0.382 OA
ATOM     22  C   UNL     1      21.531  -0.452  28.523  0.00  0.00    +0.194 C 
ENDBRANCH  21   4
ENDBRANCH  20  21
ENDBRANCH  19  20
ENDBRANCH  13   5
ENDBRANCH   7  13
BRANCH   9  14
ATOM     14  C   UNL     1      19.510  -5.717  22.663  0.00  0.00    +0.128 C 
BRANCH  14  18
ATOM      2  O   UNL     1      19.523  -6.467  20.343  0.00  0.00    -0.251 OA
ATOM     18  C   UNL     1      19.867  -6.608  21.508  0.00  0.00    +0.305 C 
BRANCH  18   1
ATOM      1  O   UNL     1      20.650  -7.627  21.945  0.00  0.00    -0.481 OA
ATOM     24  H   UNL     1      21.387  -7.307  22.507  0.00  0.00    +0.295 HD
ENDBRANCH  18   1
ENDBRANCH  14  18
ENDBRANCH   9  14
TORSDOF 9
ENDMDL
