MODEL 1
REMARK VINA RESULT:      -7.7      0.000      0.000
REMARK  Name = 45360854
REMARK  10 active torsions:
REMARK  status: ('A' for Active; 'I' for Inactive)
REMARK    1  A    between atoms: O_4  and  C_29
REMARK    2  A    between atoms: N_6  and  C_17
REMARK    3  A    between atoms: N_7  and  C_19
REMARK    4  A    between atoms: N_9  and  C_28
REMARK    5  A    between atoms: C_14  and  C_18
REMARK    6  A    between atoms: C_17  and  C_21
REMARK    7  A    between atoms: C_18  and  C_20
REMARK    8  A    between atoms: C_20  and  C_22
REMARK    9  A    between atoms: C_27  and  C_29
REMARK   10  A    between atoms: C_28  and  C_30
REMARK                            x       y       z     vdW  Elec       q    Type
REMARK                         _______ _______ _______ _____ _____    ______ ____
ROOT
ATOM      1  O   UNL     1     -13.301   4.801  22.476  0.00  0.00    -0.274 OA
ATOM      6  N   UNL     1     -15.168   6.173  21.090  0.00  0.00    -0.286 NA
ATOM      7  N   UNL     1     -16.904   3.409  22.746  0.00  0.00    -0.296 NA
ATOM      8  N   UNL     1     -14.654   4.376  24.272  0.00  0.00    -0.312 N 
ATOM     10  C   UNL     1     -16.840   4.752  22.129  0.00  0.00    +0.084 C 
ATOM     11  C   UNL     1     -15.587   5.634  22.399  0.00  0.00    +0.161 C 
ATOM     12  C   UNL     1     -16.896   4.735  20.590  0.00  0.00    +0.036 C 
ATOM     13  C   UNL     1     -16.323   6.082  20.202  0.00  0.00    +0.087 C 
ATOM     14  C   UNL     1     -16.937   3.417  24.237  0.00  0.00    +0.074 C 
ATOM     15  C   UNL     1     -14.401   4.899  23.019  0.00  0.00    +0.232 C 
ATOM     16  C   UNL     1     -15.959   4.405  24.902  0.00  0.00    +0.123 C 
ATOM     19  C   UNL     1     -18.041   2.640  22.216  0.00  0.00    +0.105 C 
ATOM     34  H   UNL     1     -13.899   3.894  24.751  0.00  0.00    +0.149 HD
ENDROOT
BRANCH   6  17
ATOM     17  C   UNL     1     -14.641   7.529  21.166  0.00  0.00    +0.120 C 
BRANCH  17  21
ATOM     21  C   UNL     1     -13.540   7.759  20.164  0.00  0.00    -0.033 A 
ATOM     23  C   UNL     1     -12.217   7.487  20.510  0.00  0.00    +0.006 A 
ATOM     24  C   UNL     1     -13.845   8.244  18.893  0.00  0.00    +0.006 A 
ATOM     25  C   UNL     1     -11.197   7.700  19.582  0.00  0.00    +0.015 A 
ATOM     26  C   UNL     1     -12.825   8.456  17.965  0.00  0.00    +0.015 A 
ATOM     27  C   UNL     1     -11.500   8.185  18.310  0.00  0.00    +0.059 A 
BRANCH  27  29
ATOM      5  O   UNL     1     -10.369   7.887  16.224  0.00  0.00    -0.245 OA
ATOM     29  C   UNL     1     -10.437   8.406  17.342  0.00  0.00    +0.337 C 
BRANCH  29   4
ATOM      4  O   UNL     1      -9.490   9.269  17.799  0.00  0.00    -0.477 OA
ATOM     36  H   UNL     1      -8.612   8.837  17.883  0.00  0.00    +0.295 HD
ENDBRANCH  29   4
ENDBRANCH  27  29
ENDBRANCH  17  21
ENDBRANCH   6  17
BRANCH  14  18
ATOM     18  C   UNL     1     -16.626   2.010  24.790  0.00  0.00    +0.029 C 
BRANCH  18  20
ATOM     20  C   UNL     1     -17.903   1.304  25.208  0.00  0.00    +0.097 C 
BRANCH  20  22
ATOM      2  O   UNL     1     -18.318  -0.110  27.128  0.00  0.00    -0.276 OA
ATOM      9  N   UNL     1     -17.343   1.971  27.449  0.00  0.00    -0.308 N 
ATOM     22  C   UNL     1     -17.891   0.952  26.684  0.00  0.00    +0.213 C 
ATOM     35  H   UNL     1     -16.998   2.811  26.992  0.00  0.00    +0.149 HD
BRANCH   9  28
ATOM     28  C   UNL     1     -17.221   1.878  28.884  0.00  0.00    +0.178 C 
BRANCH  28  30
ATOM      3  O   UNL     1     -15.590   0.115  29.281  0.00  0.00    -0.466 OA
ATOM     30  C   UNL     1     -15.839   1.450  29.302  0.00  0.00    +0.122 A 
ATOM     31  C   UNL     1     -14.726   2.143  29.719  0.00  0.00    +0.046 A 
ATOM     32  C   UNL     1     -13.729   1.169  29.969  0.00  0.00    +0.041 A 
ATOM     33  C   UNL     1     -14.304  -0.048  29.689  0.00  0.00    +0.195 A 
ENDBRANCH  28  30
ENDBRANCH   9  28
ENDBRANCH  20  22
ENDBRANCH  18  20
ENDBRANCH  14  18
TORSDOF 9
ENDMDL
MODEL 2
REMARK VINA RESULT:      -7.2     20.094     22.847
REMARK  Name = 45360854
REMARK  10 active torsions:
REMARK  status: ('A' for Active; 'I' for Inactive)
REMARK    1  A    between atoms: O_4  and  C_29
REMARK    2  A    between atoms: N_6  and  C_17
REMARK    3  A    between atoms: N_7  and  C_19
REMARK    4  A    between atoms: N_9  and  C_28
REMARK    5  A    between atoms: C_14  and  C_18
REMARK    6  A    between atoms: C_17  and  C_21
REMARK    7  A    between atoms: C_18  and  C_20
REMARK    8  A    between atoms: C_20  and  C_22
REMARK    9  A    between atoms: C_27  and  C_29
REMARK   10  A    between atoms: C_28  and  C_30
REMARK                            x       y       z     vdW  Elec       q    Type
REMARK                         _______ _______ _______ _____ _____    ______ ____
ROOT
ATOM      1  O   UNL     1      -6.198  -9.749  13.143  0.00  0.00    -0.274 OA
ATOM      6  N   UNL     1      -4.126 -11.349  13.804  0.00  0.00    -0.286 NA
ATOM      7  N   UNL     1      -4.760 -11.865  10.236  0.00  0.00    -0.296 NA
ATOM      8  N   UNL     1      -5.365  -9.176  11.090  0.00  0.00    -0.312 N 
ATOM     10  C   UNL     1      -3.904 -11.870  11.443  0.00  0.00    +0.084 C 
ATOM     11  C   UNL     1      -4.066 -10.714  12.473  0.00  0.00    +0.161 C 
ATOM     12  C   UNL     1      -4.081 -13.117  12.329  0.00  0.00    +0.036 C 
ATOM     13  C   UNL     1      -3.534 -12.676  13.671  0.00  0.00    +0.087 C 
ATOM     14  C   UNL     1      -4.537 -10.705   9.327  0.00  0.00    +0.074 C 
ATOM     15  C   UNL     1      -5.317  -9.858  12.291  0.00  0.00    +0.232 C 
ATOM     16  C   UNL     1      -4.385  -9.345  10.036  0.00  0.00    +0.123 C 
ATOM     19  C   UNL     1      -4.628 -13.128   9.493  0.00  0.00    +0.105 C 
ATOM     34  H   UNL     1      -6.161  -8.569  10.916  0.00  0.00    +0.149 HD
ENDROOT
BRANCH   6  17
ATOM     17  C   UNL     1      -3.480 -10.563  14.847  0.00  0.00    +0.120 C 
BRANCH  17  21
ATOM     21  C   UNL     1      -4.226 -10.644  16.153  0.00  0.00    -0.033 A 
ATOM     23  C   UNL     1      -3.697 -11.383  17.212  0.00  0.00    +0.006 A 
ATOM     24  C   UNL     1      -5.443  -9.981  16.304  0.00  0.00    +0.006 A 
ATOM     25  C   UNL     1      -4.387 -11.457  18.421  0.00  0.00    +0.015 A 
ATOM     26  C   UNL     1      -6.133 -10.056  17.514  0.00  0.00    +0.015 A 
ATOM     27  C   UNL     1      -5.605 -10.795  18.573  0.00  0.00    +0.059 A 
BRANCH  27  29
ATOM      5  O   UNL     1      -5.890 -11.376  20.876  0.00  0.00    -0.245 OA
ATOM     29  C   UNL     1      -6.324 -10.872  19.835  0.00  0.00    +0.337 C 
BRANCH  29   4
ATOM      4  O   UNL     1      -7.564 -10.318  19.762  0.00  0.00    -0.477 OA
ATOM     36  H   UNL     1      -8.026 -10.339  20.628  0.00  0.00    +0.295 HD
ENDBRANCH  29   4
ENDBRANCH  27  29
ENDBRANCH  17  21
ENDBRANCH   6  17
BRANCH  14  18
ATOM     18  C   UNL     1      -5.699 -10.578   8.320  0.00  0.00    +0.029 C 
BRANCH  18  20
ATOM     20  C   UNL     1      -5.172 -10.513   6.898  0.00  0.00    +0.097 C 
BRANCH  20  22
ATOM      2  O   UNL     1      -6.528 -10.501   4.893  0.00  0.00    -0.276 OA
ATOM      9  N   UNL     1      -6.734  -8.752   6.405  0.00  0.00    -0.308 N 
ATOM     22  C   UNL     1      -6.208  -9.950   5.942  0.00  0.00    +0.213 C 
ATOM     35  H   UNL     1      -6.420  -8.378   7.296  0.00  0.00    +0.149 HD
BRANCH   9  28
ATOM     28  C   UNL     1      -7.738  -8.017   5.673  0.00  0.00    +0.178 C 
BRANCH  28  30
ATOM      3  O   UNL     1      -7.954  -6.561   7.611  0.00  0.00    -0.466 OA
ATOM     30  C   UNL     1      -8.593  -7.178   6.584  0.00  0.00    +0.122 A 
ATOM     31  C   UNL     1      -9.938  -6.886   6.606  0.00  0.00    +0.046 A 
ATOM     32  C   UNL     1     -10.136  -6.035   7.719  0.00  0.00    +0.041 A 
ATOM     33  C   UNL     1      -8.900  -5.867   8.298  0.00  0.00    +0.195 A 
ENDBRANCH  28  30
ENDBRANCH   9  28
ENDBRANCH  20  22
ENDBRANCH  18  20
ENDBRANCH  14  18
TORSDOF 9
ENDMDL
MODEL 3
REMARK VINA RESULT:      -7.2     28.325     32.582
REMARK  Name = 45360854
REMARK  10 active torsions:
REMARK  status: ('A' for Active; 'I' for Inactive)
REMARK    1  A    between atoms: O_4  and  C_29
REMARK    2  A    between atoms: N_6  and  C_17
REMARK    3  A    between atoms: N_7  and  C_19
REMARK    4  A    between atoms: N_9  and  C_28
REMARK    5  A    between atoms: C_14  and  C_18
REMARK    6  A    between atoms: C_17  and  C_21
REMARK    7  A    between atoms: C_18  and  C_20
REMARK    8  A    between atoms: C_20  and  C_22
REMARK    9  A    between atoms: C_27  and  C_29
REMARK   10  A    between atoms: C_28  and  C_30
REMARK                            x       y       z     vdW  Elec       q    Type
REMARK                         _______ _______ _______ _____ _____    ______ ____
ROOT
ATOM      1  O   UNL     1      17.951   6.046  19.196  0.00  0.00    -0.274 OA
ATOM      6  N   UNL     1      18.715   7.563  21.295  0.00  0.00    -0.286 NA
ATOM      7  N   UNL     1      15.653   9.065  19.968  0.00  0.00    -0.296 NA
ATOM      8  N   UNL     1      15.712   6.199  19.640  0.00  0.00    -0.312 N 
ATOM     10  C   UNL     1      16.635   8.789  21.039  0.00  0.00    +0.084 C 
ATOM     11  C   UNL     1      17.263   7.366  21.121  0.00  0.00    +0.161 C 
ATOM     12  C   UNL     1      17.883   9.689  20.988  0.00  0.00    +0.036 C 
ATOM     13  C   UNL     1      18.905   8.919  21.800  0.00  0.00    +0.087 C 
ATOM     14  C   UNL     1      14.402   8.259  20.056  0.00  0.00    +0.074 C 
ATOM     15  C   UNL     1      17.039   6.489  19.892  0.00  0.00    +0.232 C 
ATOM     16  C   UNL     1      14.612   6.770  20.391  0.00  0.00    +0.123 C 
ATOM     19  C   UNL     1      15.331  10.500  19.907  0.00  0.00    +0.105 C 
ATOM     34  H   UNL     1      15.495   5.600  18.849  0.00  0.00    +0.149 HD
ENDROOT
BRANCH   6  17
ATOM     17  C   UNL     1      19.334   6.566  22.158  0.00  0.00    +0.120 C 
BRANCH  17  21
ATOM     21  C   UNL     1      20.673   6.123  21.632  0.00  0.00    -0.033 A 
ATOM     23  C   UNL     1      21.825   6.830  21.978  0.00  0.00    +0.006 A 
ATOM     24  C   UNL     1      20.763   5.005  20.803  0.00  0.00    +0.006 A 
ATOM     25  C   UNL     1      23.066   6.419  21.493  0.00  0.00    +0.015 A 
ATOM     26  C   UNL     1      22.004   4.595  20.317  0.00  0.00    +0.015 A 
ATOM     27  C   UNL     1      23.156   5.302  20.662  0.00  0.00    +0.059 A 
BRANCH  27  29
ATOM      5  O   UNL     1      25.544   5.324  20.514  0.00  0.00    -0.245 OA
ATOM     29  C   UNL     1      24.451   4.873  20.156  0.00  0.00    +0.337 C 
BRANCH  29   4
ATOM      4  O   UNL     1      24.344   3.893  19.219  0.00  0.00    -0.477 OA
ATOM     36  H   UNL     1      25.037   3.206  19.328  0.00  0.00    +0.295 HD
ENDBRANCH  29   4
ENDBRANCH  27  29
ENDBRANCH  17  21
ENDBRANCH   6  17
BRANCH  14  18
ATOM     18  C   UNL     1      13.620   8.330  18.727  0.00  0.00    +0.029 C 
BRANCH  18  20
ATOM     20  C   UNL     1      12.383   9.196  18.878  0.00  0.00    +0.097 C 
BRANCH  20  22
ATOM      2  O   UNL     1      10.937   7.747  20.170  0.00  0.00    -0.276 OA
ATOM      9  N   UNL     1      11.626   9.763  21.089  0.00  0.00    -0.308 N 
ATOM     22  C   UNL     1      11.566   8.799  20.095  0.00  0.00    +0.213 C 
ATOM     35  H   UNL     1      12.189  10.598  20.945  0.00  0.00    +0.149 HD
BRANCH   9  28
ATOM     28  C   UNL     1      10.931   9.620  22.346  0.00  0.00    +0.178 C 
BRANCH  28  30
ATOM      3  O   UNL     1      10.922  12.051  22.447  0.00  0.00    -0.466 OA
ATOM     30  C   UNL     1      10.960  10.891  23.152  0.00  0.00    +0.122 A 
ATOM     31  C   UNL     1      11.020  11.147  24.502  0.00  0.00    +0.046 A 
ATOM     32  C   UNL     1      11.017  12.556  24.635  0.00  0.00    +0.041 A 
ATOM     33  C   UNL     1      10.957  13.061  23.356  0.00  0.00    +0.195 A 
ENDBRANCH  28  30
ENDBRANCH   9  28
ENDBRANCH  20  22
ENDBRANCH  18  20
ENDBRANCH  14  18
TORSDOF 9
ENDMDL
MODEL 4
REMARK VINA RESULT:      -7.1     28.368     34.664
REMARK  Name = 45360854
REMARK  10 active torsions:
REMARK  status: ('A' for Active; 'I' for Inactive)
REMARK    1  A    between atoms: O_4  and  C_29
REMARK    2  A    between atoms: N_6  and  C_17
REMARK    3  A    between atoms: N_7  and  C_19
REMARK    4  A    between atoms: N_9  and  C_28
REMARK    5  A    between atoms: C_14  and  C_18
REMARK    6  A    between atoms: C_17  and  C_21
REMARK    7  A    between atoms: C_18  and  C_20
REMARK    8  A    between atoms: C_20  and  C_22
REMARK    9  A    between atoms: C_27  and  C_29
REMARK   10  A    between atoms: C_28  and  C_30
REMARK                            x       y       z     vdW  Elec       q    Type
REMARK                         _______ _______ _______ _____ _____    ______ ____
ROOT
ATOM      1  O   UNL     1      12.408   7.187   6.245  0.00  0.00    -0.274 OA
ATOM      6  N   UNL     1      10.317   7.754   4.633  0.00  0.00    -0.286 NA
ATOM      7  N   UNL     1      13.254   9.365   3.158  0.00  0.00    -0.296 NA
ATOM      8  N   UNL     1      13.911   6.919   4.541  0.00  0.00    -0.312 N 
ATOM     10  C   UNL     1      11.904   8.764   3.097  0.00  0.00    +0.084 C 
ATOM     11  C   UNL     1      11.611   7.507   3.967  0.00  0.00    +0.161 C 
ATOM     12  C   UNL     1      10.775   9.720   3.525  0.00  0.00    +0.036 C 
ATOM     13  C   UNL     1       9.631   8.786   3.863  0.00  0.00    +0.087 C 
ATOM     14  C   UNL     1      14.346   8.478   2.666  0.00  0.00    +0.074 C 
ATOM     15  C   UNL     1      12.655   7.207   5.040  0.00  0.00    +0.232 C 
ATOM     16  C   UNL     1      14.253   7.013   3.136  0.00  0.00    +0.123 C 
ATOM     19  C   UNL     1      13.287  10.655   2.449  0.00  0.00    +0.105 C 
ATOM     34  H   UNL     1      14.647   6.688   5.201  0.00  0.00    +0.149 HD
ENDROOT
BRANCH   6  17
ATOM     17  C   UNL     1       9.507   6.553   4.784  0.00  0.00    +0.120 C 
BRANCH  17  21
ATOM     21  C   UNL     1       9.466   6.079   6.212  0.00  0.00    -0.033 A 
ATOM     23  C   UNL     1       9.024   6.939   7.218  0.00  0.00    +0.006 A 
ATOM     24  C   UNL     1       9.867   4.782   6.529  0.00  0.00    +0.006 A 
ATOM     25  C   UNL     1       8.985   6.500   8.541  0.00  0.00    +0.015 A 
ATOM     26  C   UNL     1       9.828   4.344   7.853  0.00  0.00    +0.015 A 
ATOM     27  C   UNL     1       9.387   5.203   8.859  0.00  0.00    +0.059 A 
BRANCH  27  29
ATOM      5  O   UNL     1      10.311   4.322  10.882  0.00  0.00    -0.245 OA
ATOM     29  C   UNL     1       9.345   4.745  10.239  0.00  0.00    +0.337 C 
BRANCH  29   4
ATOM      4  O   UNL     1       8.098   4.829  10.777  0.00  0.00    -0.477 OA
ATOM     36  H   UNL     1       7.680   5.698  10.595  0.00  0.00    +0.295 HD
ENDBRANCH  29   4
ENDBRANCH  27  29
ENDBRANCH  17  21
ENDBRANCH   6  17
BRANCH  14  18
ATOM     18  C   UNL     1      15.722   9.021   3.106  0.00  0.00    +0.029 C 
BRANCH  18  20
ATOM     20  C   UNL     1      15.612   9.742   4.437  0.00  0.00    +0.097 C 
BRANCH  20  22
ATOM      2  O   UNL     1      16.102   8.197   6.235  0.00  0.00    -0.276 OA
ATOM      9  N   UNL     1      17.759   9.654   5.517  0.00  0.00    -0.308 N 
ATOM     22  C   UNL     1      16.488   9.098   5.496  0.00  0.00    +0.213 C 
ATOM     35  H   UNL     1      17.996  10.387   4.854  0.00  0.00    +0.149 HD
BRANCH   9  28
ATOM     28  C   UNL     1      18.779   9.212   6.438  0.00  0.00    +0.178 C 
BRANCH  28  30
ATOM      3  O   UNL     1      19.537   7.990   4.474  0.00  0.00    -0.466 OA
ATOM     30  C   UNL     1      19.776   8.299   5.775  0.00  0.00    +0.122 A 
ATOM     31  C   UNL     1      20.924   7.683   6.216  0.00  0.00    +0.046 A 
ATOM     32  C   UNL     1      21.422   6.947   5.114  0.00  0.00    +0.041 A 
ATOM     33  C   UNL     1      20.543   7.166   4.079  0.00  0.00    +0.195 A 
ENDBRANCH  28  30
ENDBRANCH   9  28
ENDBRANCH  20  22
ENDBRANCH  18  20
ENDBRANCH  14  18
TORSDOF 9
ENDMDL
MODEL 5
REMARK VINA RESULT:      -7.0     18.975     20.038
REMARK  Name = 45360854
REMARK  10 active torsions:
REMARK  status: ('A' for Active; 'I' for Inactive)
REMARK    1  A    between atoms: O_4  and  C_29
REMARK    2  A    between atoms: N_6  and  C_17
REMARK    3  A    between atoms: N_7  and  C_19
REMARK    4  A    between atoms: N_9  and  C_28
REMARK    5  A    between atoms: C_14  and  C_18
REMARK    6  A    between atoms: C_17  and  C_21
REMARK    7  A    between atoms: C_18  and  C_20
REMARK    8  A    between atoms: C_20  and  C_22
REMARK    9  A    between atoms: C_27  and  C_29
REMARK   10  A    between atoms: C_28  and  C_30
REMARK                            x       y       z     vdW  Elec       q    Type
REMARK                         _______ _______ _______ _____ _____    ______ ____
ROOT
ATOM      1  O   UNL     1      -5.997  -9.507  13.382  0.00  0.00    -0.274 OA
ATOM      6  N   UNL     1      -3.922 -10.616  12.055  0.00  0.00    -0.286 NA
ATOM      7  N   UNL     1      -3.127 -10.827  15.621  0.00  0.00    -0.296 NA
ATOM      8  N   UNL     1      -5.960 -11.011  15.106  0.00  0.00    -0.312 N 
ATOM     10  C   UNL     1      -3.019 -11.266  14.213  0.00  0.00    +0.084 C 
ATOM     11  C   UNL     1      -4.302 -11.254  13.331  0.00  0.00    +0.161 C 
ATOM     12  C   UNL     1      -2.042 -10.426  13.371  0.00  0.00    +0.036 C 
ATOM     13  C   UNL     1      -2.470 -10.710  11.946  0.00  0.00    +0.087 C 
ATOM     14  C   UNL     1      -4.004 -11.685  16.468  0.00  0.00    +0.074 C 
ATOM     15  C   UNL     1      -5.483 -10.487  13.920  0.00  0.00    +0.232 C 
ATOM     16  C   UNL     1      -5.329 -12.112  15.805  0.00  0.00    +0.123 C 
ATOM     19  C   UNL     1      -1.795 -10.698  16.235  0.00  0.00    +0.105 C 
ATOM     34  H   UNL     1      -6.761 -10.561  15.540  0.00  0.00    +0.149 HD
ENDROOT
BRANCH   6  17
ATOM     17  C   UNL     1      -4.597 -11.190  10.899  0.00  0.00    +0.120 C 
BRANCH  17  21
ATOM     21  C   UNL     1      -5.469 -10.182  10.200  0.00  0.00    -0.033 A 
ATOM     23  C   UNL     1      -5.029  -8.866  10.049  0.00  0.00    +0.006 A 
ATOM     24  C   UNL     1      -6.715 -10.562   9.702  0.00  0.00    +0.006 A 
ATOM     25  C   UNL     1      -5.836  -7.932   9.401  0.00  0.00    +0.015 A 
ATOM     26  C   UNL     1      -7.522  -9.627   9.054  0.00  0.00    +0.015 A 
ATOM     27  C   UNL     1      -7.083  -8.312   8.903  0.00  0.00    +0.059 A 
BRANCH  27  29
ATOM      5  O   UNL     1      -8.885  -6.749   8.730  0.00  0.00    -0.245 OA
ATOM     29  C   UNL     1      -7.924  -7.338   8.226  0.00  0.00    +0.337 C 
BRANCH  29   4
ATOM      4  O   UNL     1      -7.541  -7.126   6.937  0.00  0.00    -0.477 OA
ATOM     36  H   UNL     1      -7.601  -7.944   6.399  0.00  0.00    +0.295 HD
ENDBRANCH  29   4
ENDBRANCH  27  29
ENDBRANCH  17  21
ENDBRANCH   6  17
BRANCH  14  18
ATOM     18  C   UNL     1      -4.356 -10.962  17.785  0.00  0.00    +0.029 C 
BRANCH  18  20
ATOM     20  C   UNL     1      -5.210 -11.848  18.672  0.00  0.00    +0.097 C 
BRANCH  20  22
ATOM      2  O   UNL     1      -6.479 -10.563  20.284  0.00  0.00    -0.276 OA
ATOM      9  N   UNL     1      -7.474 -11.143  18.269  0.00  0.00    -0.308 N 
ATOM     22  C   UNL     1      -6.434 -11.112  19.187  0.00  0.00    +0.213 C 
ATOM     35  H   UNL     1      -7.339 -11.608  17.375  0.00  0.00    +0.149 HD
BRANCH   9  28
ATOM     28  C   UNL     1      -8.747 -10.514  18.525  0.00  0.00    +0.178 C 
BRANCH  28  30
ATOM      3  O   UNL     1      -8.807  -9.948  16.159  0.00  0.00    -0.466 OA
ATOM     30  C   UNL     1      -9.138  -9.569  17.420  0.00  0.00    +0.122 A 
ATOM     31  C   UNL     1      -9.784  -8.354  17.407  0.00  0.00    +0.046 A 
ATOM     32  C   UNL     1      -9.854  -7.962  16.048  0.00  0.00    +0.041 A 
ATOM     33  C   UNL     1      -9.246  -8.964  15.329  0.00  0.00    +0.195 A 
ENDBRANCH  28  30
ENDBRANCH   9  28
ENDBRANCH  20  22
ENDBRANCH  18  20
ENDBRANCH  14  18
TORSDOF 9
ENDMDL
MODEL 6
REMARK VINA RESULT:      -6.8     18.112     20.281
REMARK  Name = 45360854
REMARK  10 active torsions:
REMARK  status: ('A' for Active; 'I' for Inactive)
REMARK    1  A    between atoms: O_4  and  C_29
REMARK    2  A    between atoms: N_6  and  C_17
REMARK    3  A    between atoms: N_7  and  C_19
REMARK    4  A    between atoms: N_9  and  C_28
REMARK    5  A    between atoms: C_14  and  C_18
REMARK    6  A    between atoms: C_17  and  C_21
REMARK    7  A    between atoms: C_18  and  C_20
REMARK    8  A    between atoms: C_20  and  C_22
REMARK    9  A    between atoms: C_27  and  C_29
REMARK   10  A    between atoms: C_28  and  C_30
REMARK                            x       y       z     vdW  Elec       q    Type
REMARK                         _______ _______ _______ _____ _____    ______ ____
ROOT
ATOM      1  O   UNL     1      -7.802  -9.497  15.506  0.00  0.00    -0.274 OA
ATOM      6  N   UNL     1      -8.699 -10.935  17.608  0.00  0.00    -0.286 NA
ATOM      7  N   UNL     1      -5.570 -12.493  16.523  0.00  0.00    -0.296 NA
ATOM      8  N   UNL     1      -5.594  -9.640  16.090  0.00  0.00    -0.312 N 
ATOM     10  C   UNL     1      -6.613 -12.175  17.523  0.00  0.00    +0.084 C 
ATOM     11  C   UNL     1      -7.238 -10.749  17.516  0.00  0.00    +0.161 C 
ATOM     12  C   UNL     1      -7.861 -13.073  17.429  0.00  0.00    +0.036 C 
ATOM     13  C   UNL     1      -8.926 -12.272  18.149  0.00  0.00    +0.087 C 
ATOM     14  C   UNL     1      -4.322 -11.688  16.658  0.00  0.00    +0.074 C 
ATOM     15  C   UNL     1      -6.935  -9.918  16.272  0.00  0.00    +0.232 C 
ATOM     16  C   UNL     1      -4.545 -10.187  16.927  0.00  0.00    +0.123 C 
ATOM     19  C   UNL     1      -5.252 -13.930  16.534  0.00  0.00    +0.105 C 
ATOM     34  H   UNL     1      -5.327  -9.071  15.293  0.00  0.00    +0.149 HD
ENDROOT
BRANCH   6  17
ATOM     17  C   UNL     1      -9.363  -9.905  18.396  0.00  0.00    +0.120 C 
BRANCH  17  21
ATOM     21  C   UNL     1     -10.351  -9.121  17.574  0.00  0.00    -0.033 A 
ATOM     23  C   UNL     1     -11.510  -9.738  17.103  0.00  0.00    +0.006 A 
ATOM     24  C   UNL     1     -10.109  -7.778  17.285  0.00  0.00    +0.006 A 
ATOM     25  C   UNL     1     -12.426  -9.011  16.343  0.00  0.00    +0.015 A 
ATOM     26  C   UNL     1     -11.025  -7.052  16.525  0.00  0.00    +0.015 A 
ATOM     27  C   UNL     1     -12.184  -7.669  16.053  0.00  0.00    +0.059 A 
BRANCH  27  29
ATOM      5  O   UNL     1     -12.975  -6.551  14.092  0.00  0.00    -0.245 OA
ATOM     29  C   UNL     1     -13.140  -6.911  15.261  0.00  0.00    +0.337 C 
BRANCH  29   4
ATOM      4  O   UNL     1     -14.276  -6.623  15.953  0.00  0.00    -0.477 OA
ATOM     36  H   UNL     1     -14.292  -5.690  16.257  0.00  0.00    +0.295 HD
ENDBRANCH  29   4
ENDBRANCH  27  29
ENDBRANCH  17  21
ENDBRANCH   6  17
BRANCH  14  18
ATOM     18  C   UNL     1      -3.462 -11.810  15.383  0.00  0.00    +0.029 C 
BRANCH  18  20
ATOM     20  C   UNL     1      -2.099 -11.176  15.593  0.00  0.00    +0.097 C 
BRANCH  20  22
ATOM      2  O   UNL     1      -1.012  -9.325  14.474  0.00  0.00    -0.276 OA
ATOM      9  N   UNL     1      -2.116 -10.920  13.202  0.00  0.00    -0.308 N 
ATOM     22  C   UNL     1      -1.671 -10.357  14.388  0.00  0.00    +0.213 C 
ATOM     35  H   UNL     1      -2.643 -11.789  13.226  0.00  0.00    +0.149 HD
BRANCH   9  28
ATOM     28  C   UNL     1      -1.839 -10.328  11.915  0.00  0.00    +0.178 C 
BRANCH  28  30
ATOM      3  O   UNL     1      -4.225  -9.852  12.000  0.00  0.00    -0.466 OA
ATOM     30  C   UNL     1      -3.088  -9.806  11.257  0.00  0.00    +0.122 A 
ATOM     31  C   UNL     1      -3.344  -9.269  10.016  0.00  0.00    +0.046 A 
ATOM     32  C   UNL     1      -4.726  -8.966   9.996  0.00  0.00    +0.041 A 
ATOM     33  C   UNL     1      -5.217  -9.339  11.226  0.00  0.00    +0.195 A 
ENDBRANCH  28  30
ENDBRANCH   9  28
ENDBRANCH  20  22
ENDBRANCH  18  20
ENDBRANCH  14  18
TORSDOF 9
ENDMDL
MODEL 7
REMARK VINA RESULT:      -6.7     28.531     34.941
REMARK  Name = 45360854
REMARK  10 active torsions:
REMARK  status: ('A' for Active; 'I' for Inactive)
REMARK    1  A    between atoms: O_4  and  C_29
REMARK    2  A    between atoms: N_6  and  C_17
REMARK    3  A    between atoms: N_7  and  C_19
REMARK    4  A    between atoms: N_9  and  C_28
REMARK    5  A    between atoms: C_14  and  C_18
REMARK    6  A    between atoms: C_17  and  C_21
REMARK    7  A    between atoms: C_18  and  C_20
REMARK    8  A    between atoms: C_20  and  C_22
REMARK    9  A    between atoms: C_27  and  C_29
REMARK   10  A    between atoms: C_28  and  C_30
REMARK                            x       y       z     vdW  Elec       q    Type
REMARK                         _______ _______ _______ _____ _____    ______ ____
ROOT
ATOM      1  O   UNL     1      10.666   9.846   4.565  0.00  0.00    -0.274 OA
ATOM      6  N   UNL     1      10.297   7.208   4.122  0.00  0.00    -0.286 NA
ATOM      7  N   UNL     1      13.897   7.711   4.553  0.00  0.00    -0.296 NA
ATOM      8  N   UNL     1      12.326   9.560   6.115  0.00  0.00    -0.312 N 
ATOM     10  C   UNL     1      12.660   6.900   4.589  0.00  0.00    +0.084 C 
ATOM     11  C   UNL     1      11.348   7.569   5.094  0.00  0.00    +0.161 C 
ATOM     12  C   UNL     1      12.233   6.351   3.215  0.00  0.00    +0.036 C 
ATOM     13  C   UNL     1      10.766   6.026   3.406  0.00  0.00    +0.087 C 
ATOM     14  C   UNL     1      14.368   8.176   5.889  0.00  0.00    +0.074 C 
ATOM     15  C   UNL     1      11.400   9.091   5.203  0.00  0.00    +0.232 C 
ATOM     16  C   UNL     1      13.258   8.704   6.820  0.00  0.00    +0.123 C 
ATOM     19  C   UNL     1      14.975   6.993   3.854  0.00  0.00    +0.105 C 
ATOM     34  H   UNL     1      12.396  10.564   6.253  0.00  0.00    +0.149 HD
ENDROOT
BRANCH   6  17
ATOM     17  C   UNL     1       8.993   6.996   4.736  0.00  0.00    +0.120 C 
BRANCH  17  21
ATOM     21  C   UNL     1       9.112   6.473   6.142  0.00  0.00    -0.033 A 
ATOM     23  C   UNL     1       9.510   5.154   6.363  0.00  0.00    +0.006 A 
ATOM     24  C   UNL     1       8.827   7.306   7.223  0.00  0.00    +0.006 A 
ATOM     25  C   UNL     1       9.622   4.669   7.666  0.00  0.00    +0.015 A 
ATOM     26  C   UNL     1       8.938   6.821   8.526  0.00  0.00    +0.015 A 
ATOM     27  C   UNL     1       9.336   5.502   8.748  0.00  0.00    +0.059 A 
BRANCH  27  29
ATOM      5  O   UNL     1      10.511   4.846  10.725  0.00  0.00    -0.245 OA
ATOM     29  C   UNL     1       9.453   4.997  10.107  0.00  0.00    +0.337 C 
BRANCH  29   4
ATOM      4  O   UNL     1       8.245   4.695  10.655  0.00  0.00    -0.477 OA
ATOM     36  H   UNL     1       8.147   5.074  11.556  0.00  0.00    +0.295 HD
ENDBRANCH  29   4
ENDBRANCH  27  29
ENDBRANCH  17  21
ENDBRANCH   6  17
BRANCH  14  18
ATOM     18  C   UNL     1      15.415   9.299   5.730  0.00  0.00    +0.029 C 
BRANCH  18  20
ATOM     20  C   UNL     1      16.774   8.837   6.221  0.00  0.00    +0.097 C 
BRANCH  20  22
ATOM      2  O   UNL     1      18.428  10.459   5.516  0.00  0.00    -0.276 OA
ATOM      9  N   UNL     1      18.229   8.467   4.342  0.00  0.00    -0.308 N 
ATOM     22  C   UNL     1      17.895   9.366   5.344  0.00  0.00    +0.213 C 
ATOM     35  H   UNL     1      17.744   7.575   4.287  0.00  0.00    +0.149 HD
BRANCH   9  28
ATOM     28  C   UNL     1      19.267   8.739   3.376  0.00  0.00    +0.178 C 
BRANCH  28  30
ATOM      3  O   UNL     1      20.949   7.362   2.281  0.00  0.00    -0.466 OA
ATOM     30  C   UNL     1      20.387   7.736   3.459  0.00  0.00    +0.122 A 
ATOM     31  C   UNL     1      20.993   7.089   4.511  0.00  0.00    +0.046 A 
ATOM     32  C   UNL     1      21.991   6.263   3.941  0.00  0.00    +0.041 A 
ATOM     33  C   UNL     1      21.924   6.465   2.582  0.00  0.00    +0.195 A 
ENDBRANCH  28  30
ENDBRANCH   9  28
ENDBRANCH  20  22
ENDBRANCH  18  20
ENDBRANCH  14  18
TORSDOF 9
ENDMDL
MODEL 8
REMARK VINA RESULT:      -6.7     19.320     20.426
REMARK  Name = 45360854
REMARK  10 active torsions:
REMARK  status: ('A' for Active; 'I' for Inactive)
REMARK    1  A    between atoms: O_4  and  C_29
REMARK    2  A    between atoms: N_6  and  C_17
REMARK    3  A    between atoms: N_7  and  C_19
REMARK    4  A    between atoms: N_9  and  C_28
REMARK    5  A    between atoms: C_14  and  C_18
REMARK    6  A    between atoms: C_17  and  C_21
REMARK    7  A    between atoms: C_18  and  C_20
REMARK    8  A    between atoms: C_20  and  C_22
REMARK    9  A    between atoms: C_27  and  C_29
REMARK   10  A    between atoms: C_28  and  C_30
REMARK                            x       y       z     vdW  Elec       q    Type
REMARK                         _______ _______ _______ _____ _____    ______ ____
ROOT
ATOM      1  O   UNL     1      -1.934 -11.020  16.356  0.00  0.00    -0.274 OA
ATOM      6  N   UNL     1      -2.373 -12.936  14.504  0.00  0.00    -0.286 NA
ATOM      7  N   UNL     1      -5.527 -12.461  16.298  0.00  0.00    -0.296 NA
ATOM      8  N   UNL     1      -3.983 -10.031  16.112  0.00  0.00    -0.312 N 
ATOM     10  C   UNL     1      -4.718 -12.859  15.125  0.00  0.00    +0.084 C 
ATOM     11  C   UNL     1      -3.481 -11.993  14.748  0.00  0.00    +0.161 C 
ATOM     12  C   UNL     1      -4.103 -14.266  15.240  0.00  0.00    +0.036 C 
ATOM     13  C   UNL     1      -2.971 -14.239  14.233  0.00  0.00    +0.087 C 
ATOM     14  C   UNL     1      -6.198 -11.137  16.163  0.00  0.00    +0.074 C 
ATOM     15  C   UNL     1      -3.040 -10.997  15.818  0.00  0.00    +0.232 C 
ATOM     16  C   UNL     1      -5.321 -10.024  15.556  0.00  0.00    +0.123 C 
ATOM     19  C   UNL     1      -6.514 -13.501  16.633  0.00  0.00    +0.105 C 
ATOM     34  H   UNL     1      -3.743  -9.323  16.800  0.00  0.00    +0.149 HD
ENDROOT
BRANCH   6  17
ATOM     17  C   UNL     1      -1.477 -12.511  13.436  0.00  0.00    +0.120 C 
BRANCH  17  21
ATOM     21  C   UNL     1      -2.218 -11.815  12.326  0.00  0.00    -0.033 A 
ATOM     23  C   UNL     1      -3.050 -12.547  11.478  0.00  0.00    +0.006 A 
ATOM     24  C   UNL     1      -2.075 -10.439  12.147  0.00  0.00    +0.006 A 
ATOM     25  C   UNL     1      -3.737 -11.901  10.451  0.00  0.00    +0.015 A 
ATOM     26  C   UNL     1      -2.762  -9.795  11.119  0.00  0.00    +0.015 A 
ATOM     27  C   UNL     1      -3.594 -10.526  10.270  0.00  0.00    +0.059 A 
BRANCH  27  29
ATOM      5  O   UNL     1      -4.575  -8.647   9.161  0.00  0.00    -0.245 OA
ATOM     29  C   UNL     1      -4.311  -9.853   9.199  0.00  0.00    +0.337 C 
BRANCH  29   4
ATOM      4  O   UNL     1      -4.679 -10.705   8.204  0.00  0.00    -0.477 OA
ATOM     36  H   UNL     1      -4.183 -11.551   8.246  0.00  0.00    +0.295 HD
ENDBRANCH  29   4
ENDBRANCH  27  29
ENDBRANCH  17  21
ENDBRANCH   6  17
BRANCH  14  18
ATOM     18  C   UNL     1      -6.694 -10.641  17.538  0.00  0.00    +0.029 C 
BRANCH  18  20
ATOM     20  C   UNL     1      -7.469  -9.345  17.392  0.00  0.00    +0.097 C 
BRANCH  20  22
ATOM      2  O   UNL     1      -9.474 -10.695  17.532  0.00  0.00    -0.276 OA
ATOM      9  N   UNL     1      -9.674  -8.386  17.412  0.00  0.00    -0.308 N 
ATOM     22  C   UNL     1      -8.968  -9.579  17.454  0.00  0.00    +0.213 C 
ATOM     35  H   UNL     1      -9.169  -7.506  17.365  0.00  0.00    +0.149 HD
BRANCH   9  28
ATOM     28  C   UNL     1     -11.117  -8.342  17.456  0.00  0.00    +0.178 C 
BRANCH  28  30
ATOM      3  O   UNL     1     -10.784  -6.549  15.844  0.00  0.00    -0.466 OA
ATOM     30  C   UNL     1     -11.678  -7.369  16.454  0.00  0.00    +0.122 A 
ATOM     31  C   UNL     1     -12.953  -7.118  16.000  0.00  0.00    +0.046 A 
ATOM     32  C   UNL     1     -12.832  -6.076  15.050  0.00  0.00    +0.041 A 
ATOM     33  C   UNL     1     -11.494  -5.764  14.991  0.00  0.00    +0.195 A 
ENDBRANCH  28  30
ENDBRANCH   9  28
ENDBRANCH  20  22
ENDBRANCH  18  20
ENDBRANCH  14  18
TORSDOF 9
ENDMDL
MODEL 9
REMARK VINA RESULT:      -6.6     29.369     34.196
REMARK  Name = 45360854
REMARK  10 active torsions:
REMARK  status: ('A' for Active; 'I' for Inactive)
REMARK    1  A    between atoms: O_4  and  C_29
REMARK    2  A    between atoms: N_6  and  C_17
REMARK    3  A    between atoms: N_7  and  C_19
REMARK    4  A    between atoms: N_9  and  C_28
REMARK    5  A    between atoms: C_14  and  C_18
REMARK    6  A    between atoms: C_17  and  C_21
REMARK    7  A    between atoms: C_18  and  C_20
REMARK    8  A    between atoms: C_20  and  C_22
REMARK    9  A    between atoms: C_27  and  C_29
REMARK   10  A    between atoms: C_28  and  C_30
REMARK                            x       y       z     vdW  Elec       q    Type
REMARK                         _______ _______ _______ _____ _____    ______ ____
ROOT
ATOM      1  O   UNL     1      18.761   6.149  19.689  0.00  0.00    -0.274 OA
ATOM      6  N   UNL     1      19.704   7.437  21.867  0.00  0.00    -0.286 NA
ATOM      7  N   UNL     1      16.774   9.307  20.723  0.00  0.00    -0.296 NA
ATOM      8  N   UNL     1      16.555   6.479  20.199  0.00  0.00    -0.312 N 
ATOM     10  C   UNL     1      17.745   8.866  21.748  0.00  0.00    +0.084 C 
ATOM     11  C   UNL     1      18.237   7.389  21.717  0.00  0.00    +0.161 C 
ATOM     12  C   UNL     1      19.072   9.646  21.728  0.00  0.00    +0.036 C 
ATOM     13  C   UNL     1      20.032   8.730  22.459  0.00  0.00    +0.087 C 
ATOM     14  C   UNL     1      15.454   8.618  20.787  0.00  0.00    +0.074 C 
ATOM     15  C   UNL     1      17.908   6.625  20.437  0.00  0.00    +0.232 C 
ATOM     16  C   UNL     1      15.528   7.095  21.015  0.00  0.00    +0.123 C 
ATOM     19  C   UNL     1      16.589  10.767  20.769  0.00  0.00    +0.105 C 
ATOM     34  H   UNL     1      16.267   5.959  19.375  0.00  0.00    +0.149 HD
ENDROOT
BRANCH   6  17
ATOM     17  C   UNL     1      20.241   6.327  22.644  0.00  0.00    +0.120 C 
BRANCH  17  21
ATOM     21  C   UNL     1      21.384   5.648  21.937  0.00  0.00    -0.033 A 
ATOM     23  C   UNL     1      22.550   6.360  21.656  0.00  0.00    +0.006 A 
ATOM     24  C   UNL     1      21.276   4.308  21.564  0.00  0.00    +0.006 A 
ATOM     25  C   UNL     1      23.609   5.730  21.002  0.00  0.00    +0.015 A 
ATOM     26  C   UNL     1      22.336   3.680  20.910  0.00  0.00    +0.015 A 
ATOM     27  C   UNL     1      23.503   4.391  20.628  0.00  0.00    +0.059 A 
BRANCH  27  29
ATOM      5  O   UNL     1      25.670   4.274  19.623  0.00  0.00    -0.245 OA
ATOM     29  C   UNL     1      24.607   3.735  19.947  0.00  0.00    +0.337 C 
BRANCH  29   4
ATOM      4  O   UNL     1      24.354   2.423  19.690  0.00  0.00    -0.477 OA
ATOM     36  H   UNL     1      25.116   1.851  19.925  0.00  0.00    +0.295 HD
ENDBRANCH  29   4
ENDBRANCH  27  29
ENDBRANCH  17  21
ENDBRANCH   6  17
BRANCH  14  18
ATOM     18  C   UNL     1      14.658   8.855  19.487  0.00  0.00    +0.029 C 
BRANCH  18  20
ATOM     20  C   UNL     1      13.511   7.869  19.373  0.00  0.00    +0.097 C 
BRANCH  20  22
ATOM      2  O   UNL     1      11.939   7.193  17.660  0.00  0.00    -0.276 OA
ATOM      9  N   UNL     1      13.300   9.034  17.280  0.00  0.00    -0.308 N 
ATOM     22  C   UNL     1      12.817   7.969  18.027  0.00  0.00    +0.213 C 
ATOM     35  H   UNL     1      14.019   9.636  17.673  0.00  0.00    +0.149 HD
BRANCH   9  28
ATOM     28  C   UNL     1      12.801   9.340  15.961  0.00  0.00    +0.178 C 
BRANCH  28  30
ATOM      3  O   UNL     1      12.996  11.154  14.350  0.00  0.00    -0.466 OA
ATOM     30  C   UNL     1      13.632  10.393  15.278  0.00  0.00    +0.122 A 
ATOM     31  C   UNL     1      14.950  10.772  15.392  0.00  0.00    +0.046 A 
ATOM     32  C   UNL     1      15.134  11.833  14.474  0.00  0.00    +0.041 A 
ATOM     33  C   UNL     1      13.917  12.028  13.865  0.00  0.00    +0.195 A 
ENDBRANCH  28  30
ENDBRANCH   9  28
ENDBRANCH  20  22
ENDBRANCH  18  20
ENDBRANCH  14  18
TORSDOF 9
ENDMDL
MODEL 10
REMARK VINA RESULT:      -6.6     17.678     19.108
REMARK  Name = 45360854
REMARK  10 active torsions:
REMARK  status: ('A' for Active; 'I' for Inactive)
REMARK    1  A    between atoms: O_4  and  C_29
REMARK    2  A    between atoms: N_6  and  C_17
REMARK    3  A    between atoms: N_7  and  C_19
REMARK    4  A    between atoms: N_9  and  C_28
REMARK    5  A    between atoms: C_14  and  C_18
REMARK    6  A    between atoms: C_17  and  C_21
REMARK    7  A    between atoms: C_18  and  C_20
REMARK    8  A    between atoms: C_20  and  C_22
REMARK    9  A    between atoms: C_27  and  C_29
REMARK   10  A    between atoms: C_28  and  C_30
REMARK                            x       y       z     vdW  Elec       q    Type
REMARK                         _______ _______ _______ _____ _____    ______ ____
ROOT
ATOM      1  O   UNL     1      -8.098  -8.827  16.918  0.00  0.00    -0.274 OA
ATOM      6  N   UNL     1     -10.418 -10.132  17.373  0.00  0.00    -0.286 NA
ATOM      7  N   UNL     1      -7.732 -12.584  17.781  0.00  0.00    -0.296 NA
ATOM      8  N   UNL     1      -6.927  -9.922  18.551  0.00  0.00    -0.312 N 
ATOM     10  C   UNL     1      -9.092 -12.056  18.029  0.00  0.00    +0.084 C 
ATOM     11  C   UNL     1      -9.270 -10.521  18.214  0.00  0.00    +0.161 C 
ATOM     12  C   UNL     1     -10.095 -12.362  16.901  0.00  0.00    +0.036 C 
ATOM     13  C   UNL     1     -11.193 -11.342  17.120  0.00  0.00    +0.087 C 
ATOM     14  C   UNL     1      -6.774 -12.369  18.903  0.00  0.00    +0.074 C 
ATOM     15  C   UNL     1      -8.065  -9.677  17.807  0.00  0.00    +0.232 C 
ATOM     16  C   UNL     1      -6.834 -10.970  19.547  0.00  0.00    +0.123 C 
ATOM     19  C   UNL     1      -7.780 -14.010  17.418  0.00  0.00    +0.105 C 
ATOM     34  H   UNL     1      -6.095  -9.377  18.345  0.00  0.00    +0.149 HD
ENDROOT
BRANCH   6  17
ATOM     17  C   UNL     1     -11.231  -9.073  17.958  0.00  0.00    +0.120 C 
BRANCH  17  21
ATOM     21  C   UNL     1     -11.664  -8.064  16.928  0.00  0.00    -0.033 A 
ATOM     23  C   UNL     1     -10.821  -7.004  16.594  0.00  0.00    +0.006 A 
ATOM     24  C   UNL     1     -12.907  -8.190  16.309  0.00  0.00    +0.006 A 
ATOM     25  C   UNL     1     -11.222  -6.070  15.639  0.00  0.00    +0.015 A 
ATOM     26  C   UNL     1     -13.308  -7.255  15.354  0.00  0.00    +0.015 A 
ATOM     27  C   UNL     1     -12.465  -6.194  15.019  0.00  0.00    +0.059 A 
BRANCH  27  29
ATOM      5  O   UNL     1     -14.024  -5.112  13.563  0.00  0.00    -0.245 OA
ATOM     29  C   UNL     1     -12.883  -5.220  14.023  0.00  0.00    +0.337 C 
BRANCH  29   4
ATOM      4  O   UNL     1     -11.864  -4.408  13.631  0.00  0.00    -0.477 OA
ATOM     36  H   UNL     1     -12.147  -3.779  12.933  0.00  0.00    +0.295 HD
ENDBRANCH  29   4
ENDBRANCH  27  29
ENDBRANCH  17  21
ENDBRANCH   6  17
BRANCH  14  18
ATOM     18  C   UNL     1      -5.325 -12.600  18.426  0.00  0.00    +0.029 C 
BRANCH  18  20
ATOM     20  C   UNL     1      -4.531 -11.308  18.478  0.00  0.00    +0.097 C 
BRANCH  20  22
ATOM      2  O   UNL     1      -4.727  -9.993  16.455  0.00  0.00    -0.276 OA
ATOM      9  N   UNL     1      -2.982 -11.511  16.651  0.00  0.00    -0.308 N 
ATOM     22  C   UNL     1      -4.118 -10.848  17.092  0.00  0.00    +0.213 C 
ATOM     35  H   UNL     1      -2.533 -12.193  17.255  0.00  0.00    +0.149 HD
BRANCH   9  28
ATOM     28  C   UNL     1      -2.390 -11.251  15.360  0.00  0.00    +0.178 C 
BRANCH  28  30
ATOM      3  O   UNL     1      -3.322 -13.400  14.697  0.00  0.00    -0.466 OA
ATOM     30  C   UNL     1      -2.328 -12.493  14.511  0.00  0.00    +0.122 A 
ATOM     31  C   UNL     1      -1.449 -12.930  13.547  0.00  0.00    +0.046 A 
ATOM     32  C   UNL     1      -1.935 -14.186  13.114  0.00  0.00    +0.041 A 
ATOM     33  C   UNL     1      -3.076 -14.428  13.844  0.00  0.00    +0.195 A 
ENDBRANCH  28  30
ENDBRANCH   9  28
ENDBRANCH  20  22
ENDBRANCH  18  20
ENDBRANCH  14  18
TORSDOF 9
ENDMDL
