REMARK  Name = 51137862
REMARK  4 active torsions:
REMARK  status: ('A' for Active; 'I' for Inactive)
REMARK    1  A    between atoms: N_3  and  C_12
REMARK    2  A    between atoms: C_7  and  C_11
REMARK    3  A    between atoms: C_12  and  C_13
REMARK    4  A    between atoms: C_16  and  C_24
REMARK                            x       y       z     vdW  Elec       q    Type
REMARK                         _______ _______ _______ _____ _____    ______ ____
ROOT
ATOM      4  N   UNL     1       2.601  -2.037   0.305  0.00  0.00    -0.342 N 
ATOM      5  N   UNL     1       2.176   0.137   0.124  0.00  0.00    -0.231 NA
ATOM     11  C   UNL     1       1.649  -1.056   0.281  0.00  0.00    +0.113 A 
ATOM     14  C   UNL     1       3.824  -1.436   0.152  0.00  0.00    +0.067 A 
ATOM     15  C   UNL     1       3.532  -0.080   0.041  0.00  0.00    +0.101 A 
ATOM     16  C   UNL     1       4.584   0.836  -0.129  0.00  0.00    +0.064 A 
ATOM     17  C   UNL     1       5.122  -1.947   0.104  0.00  0.00    +0.028 A 
ATOM     20  C   UNL     1       5.895   0.346  -0.181  0.00  0.00    +0.015 A 
ATOM     21  C   UNL     1       6.157  -1.022  -0.066  0.00  0.00    +0.003 A 
ATOM     26  H   UNL     1       2.437  -3.029   0.415  0.00  0.00    +0.167 HD
ENDROOT
BRANCH  16  24
ATOM      2  O   UNL     1       5.246   3.079  -0.411  0.00  0.00    -0.270 OA
ATOM      6  N   UNL     1       2.998   2.684  -0.187  0.00  0.00    -0.325 N 
ATOM     24  C   UNL     1       4.323   2.259  -0.246  0.00  0.00    +0.244 C 
ATOM     27  H   UNL     1       2.775   3.671  -0.271  0.00  0.00    +0.145 HD
ATOM     28  H   UNL     1       2.208   2.061  -0.061  0.00  0.00    +0.145 HD
ENDBRANCH  16  24
BRANCH  11   7
ATOM      3  N   UNL     1      -1.963  -0.667  -0.199  0.00  0.00    -0.297 NA
ATOM      7  C   UNL     1       0.180  -1.384   0.426  0.00  0.00    +0.070 C 
ATOM      8  C   UNL     1      -0.513  -0.724   1.631  0.00  0.00    +0.028 C 
ATOM      9  C   UNL     1      -0.652  -0.950  -0.787  0.00  0.00    +0.096 C 
ATOM     10  C   UNL     1      -1.673   0.064   1.035  0.00  0.00    +0.085 C 
BRANCH   3  12
ATOM     12  C   UNL     1      -2.825   0.085  -1.099  0.00  0.00    +0.119 C 
BRANCH  12  13
ATOM      1 CL   UNL     1      -6.981   2.323   1.110  0.00  0.00    -0.084 Cl
ATOM     13  C   UNL     1      -4.272  -0.003  -0.693  0.00  0.00    -0.032 A 
ATOM     18  C   UNL     1      -4.885   1.075  -0.054  0.00  0.00    +0.025 A 
ATOM     19  C   UNL     1      -5.001  -1.163  -0.956  0.00  0.00    +0.005 A 
ATOM     22  C   UNL     1      -6.226   0.993   0.321  0.00  0.00    +0.041 A 
ATOM     23  C   UNL     1      -6.342  -1.245  -0.581  0.00  0.00    +0.002 A 
ATOM     25  C   UNL     1      -6.955  -0.167   0.057  0.00  0.00    +0.020 A 
ENDBRANCH  12  13
ENDBRANCH   3  12
ENDBRANCH  11   7
TORSDOF 4
