MODEL 1
REMARK VINA RESULT:      -7.4      0.000      0.000
REMARK  Name = 11865552
REMARK  6 active torsions:
REMARK  status: ('A' for Active; 'I' for Inactive)
REMARK    1  A    between atoms: O_6  and  C_16
REMARK    2  A    between atoms: O_6  and  C_20
REMARK    3  A    between atoms: N_9  and  C_15
REMARK    4  A    between atoms: N_10  and  C_22
REMARK    5  A    between atoms: C_19  and  C_21
REMARK    6  A    between atoms: C_27  and  C_31
REMARK                            x       y       z     vdW  Elec       q    Type
REMARK                         _______ _______ _______ _____ _____    ______ ____
ROOT
ATOM      4  O   UNL     1     -16.630   4.759  25.399  0.00  0.00    -0.368 OA
ATOM      5  O   UNL     1     -17.086   1.951  24.255  0.00  0.00    -0.368 OA
ATOM     13  C   UNL     1     -16.250   2.419  25.334  0.00  0.00    +0.173 C 
ATOM     14  C   UNL     1     -15.707   3.771  24.914  0.00  0.00    +0.192 C 
ATOM     15  C   UNL     1     -17.094   2.729  26.547  0.00  0.00    +0.130 C 
ATOM     16  C   UNL     1     -15.729   3.677  23.406  0.00  0.00    +0.235 C 
ATOM     17  C   UNL     1     -17.611   4.122  26.233  0.00  0.00    +0.185 C 
ATOM     18  C   UNL     1     -16.981   2.868  23.156  0.00  0.00    +0.207 C 
ENDROOT
BRANCH  15   9
ATOM      7  O   UNL     1     -16.659   0.501  28.305  0.00  0.00    -0.270 OA
ATOM      9  N   UNL     1     -16.300   2.725  27.751  0.00  0.00    -0.304 N 
ATOM     19  C   UNL     1     -16.147   1.593  28.540  0.00  0.00    +0.247 C 
ATOM     32  H   UNL     1     -15.928   3.616  28.065  0.00  0.00    +0.149 HD
BRANCH  19  21
ATOM     11  N   UNL     1     -14.587   0.934  31.868  0.00  0.00    -0.243 NA
ATOM     12  N   UNL     1     -13.769   3.039  31.029  0.00  0.00    -0.243 NA
ATOM     21  C   UNL     1     -15.319   1.758  29.763  0.00  0.00    +0.073 A 
ATOM     23  C   UNL     1     -15.327   0.816  30.745  0.00  0.00    +0.127 A 
ATOM     24  C   UNL     1     -14.532   2.857  29.931  0.00  0.00    +0.127 A 
ATOM     29  C   UNL     1     -13.843   2.054  31.943  0.00  0.00    +0.221 A 
ENDBRANCH  19  21
ENDBRANCH  15   9
BRANCH  16   6
ATOM      6  O   UNL     1     -15.771   4.932  22.765  0.00  0.00    -0.442 OA
BRANCH   6  20
ATOM      8  O   UNL     1     -13.504   4.865  22.469  0.00  0.00    -0.226 OA
ATOM     10  N   UNL     1     -14.769   6.741  21.866  0.00  0.00    -0.251 N 
ATOM     20  C   UNL     1     -14.565   5.470  22.368  0.00  0.00    +0.405 C 
ATOM     33  H   UNL     1     -15.729   7.074  21.865  0.00  0.00    +0.158 HD
BRANCH  10  22
ATOM     22  C   UNL     1     -13.805   7.639  21.352  0.00  0.00    +0.037 A 
ATOM     25  C   UNL     1     -13.094   7.295  20.214  0.00  0.00    +0.035 A 
ATOM     26  C   UNL     1     -13.592   8.848  21.996  0.00  0.00    +0.023 A 
ATOM     27  C   UNL     1     -12.145   8.182  19.706  0.00  0.00    +0.057 A 
ATOM     28  C   UNL     1     -12.642   9.735  21.488  0.00  0.00    +0.002 A 
ATOM     30  C   UNL     1     -11.919   9.402  20.343  0.00  0.00    +0.012 A 
BRANCH  27  31
ATOM      1  F   UNL     1     -10.254   8.590  18.299  0.00  0.00    -0.166 F 
ATOM      2  F   UNL     1     -12.086   7.961  17.324  0.00  0.00    -0.166 F 
ATOM      3  F   UNL     1     -10.934   6.533  18.493  0.00  0.00    -0.166 F 
ATOM     31  C   UNL     1     -11.372   7.826  18.481  0.00  0.00    +0.417 C 
ENDBRANCH  27  31
ENDBRANCH  10  22
ENDBRANCH   6  20
ENDBRANCH  16   6
TORSDOF 6
ENDMDL
MODEL 2
REMARK VINA RESULT:      -7.3     27.309     30.020
REMARK  Name = 11865552
REMARK  6 active torsions:
REMARK  status: ('A' for Active; 'I' for Inactive)
REMARK    1  A    between atoms: O_6  and  C_16
REMARK    2  A    between atoms: O_6  and  C_20
REMARK    3  A    between atoms: N_9  and  C_15
REMARK    4  A    between atoms: N_10  and  C_22
REMARK    5  A    between atoms: C_19  and  C_21
REMARK    6  A    between atoms: C_27  and  C_31
REMARK                            x       y       z     vdW  Elec       q    Type
REMARK                         _______ _______ _______ _____ _____    ______ ____
ROOT
ATOM      4  O   UNL     1      12.286  10.338  20.828  0.00  0.00    -0.368 OA
ATOM      5  O   UNL     1      10.668   8.147  22.237  0.00  0.00    -0.368 OA
ATOM     13  C   UNL     1      11.754   8.978  22.696  0.00  0.00    +0.173 C 
ATOM     14  C   UNL     1      12.700   9.152  21.524  0.00  0.00    +0.192 C 
ATOM     15  C   UNL     1      11.257  10.378  22.971  0.00  0.00    +0.130 C 
ATOM     16  C   UNL     1      12.443   7.906  20.711  0.00  0.00    +0.235 C 
ATOM     17  C   UNL     1      11.259  10.998  21.585  0.00  0.00    +0.185 C 
ATOM     18  C   UNL     1      10.958   7.699  20.905  0.00  0.00    +0.207 C 
ENDROOT
BRANCH  15   9
ATOM      7  O   UNL     1      10.505  12.240  25.024  0.00  0.00    -0.270 OA
ATOM      9  N   UNL     1      12.146  11.083  23.862  0.00  0.00    -0.304 N 
ATOM     19  C   UNL     1      11.687  11.967  24.828  0.00  0.00    +0.247 C 
ATOM     32  H   UNL     1      13.143  10.986  23.695  0.00  0.00    +0.149 HD
BRANCH  19  21
ATOM     11  N   UNL     1      14.933  12.654  26.542  0.00  0.00    -0.243 NA
ATOM     12  N   UNL     1      13.402  14.452  27.024  0.00  0.00    -0.243 NA
ATOM     21  C   UNL     1      12.730  12.634  25.649  0.00  0.00    +0.073 A 
ATOM     23  C   UNL     1      13.962  12.076  25.803  0.00  0.00    +0.127 A 
ATOM     24  C   UNL     1      12.479  13.820  26.270  0.00  0.00    +0.127 A 
ATOM     29  C   UNL     1      14.589  13.823  27.116  0.00  0.00    +0.221 A 
ENDBRANCH  19  21
ENDBRANCH  15   9
BRANCH  16   6
ATOM      6  O   UNL     1      12.787   8.042  19.350  0.00  0.00    -0.442 OA
BRANCH   6  20
ATOM      8  O   UNL     1      14.621   8.605  18.106  0.00  0.00    -0.226 OA
ATOM     10  N   UNL     1      14.768   7.124  19.913  0.00  0.00    -0.251 N 
ATOM     20  C   UNL     1      14.128   7.977  19.035  0.00  0.00    +0.405 C 
ATOM     33  H   UNL     1      14.184   6.691  20.624  0.00  0.00    +0.158 HD
BRANCH  10  22
ATOM     22  C   UNL     1      16.138   6.776  19.946  0.00  0.00    +0.037 A 
ATOM     25  C   UNL     1      16.959   7.337  20.910  0.00  0.00    +0.035 A 
ATOM     26  C   UNL     1      16.632   5.877  19.014  0.00  0.00    +0.023 A 
ATOM     27  C   UNL     1      18.310   6.992  20.943  0.00  0.00    +0.057 A 
ATOM     28  C   UNL     1      17.984   5.532  19.047  0.00  0.00    +0.002 A 
ATOM     30  C   UNL     1      18.823   6.090  20.012  0.00  0.00    +0.012 A 
BRANCH  27  31
ATOM      1  F   UNL     1      19.501   6.736  23.002  0.00  0.00    -0.166 F 
ATOM      2  F   UNL     1      18.688   8.701  22.575  0.00  0.00    -0.166 F 
ATOM      3  F   UNL     1      20.411   7.976  21.464  0.00  0.00    -0.166 F 
ATOM     31  C   UNL     1      19.207   7.588  21.976  0.00  0.00    +0.417 C 
ENDBRANCH  27  31
ENDBRANCH  10  22
ENDBRANCH   6  20
ENDBRANCH  16   6
TORSDOF 6
ENDMDL
MODEL 3
REMARK VINA RESULT:      -7.2     18.144     19.588
REMARK  Name = 11865552
REMARK  6 active torsions:
REMARK  status: ('A' for Active; 'I' for Inactive)
REMARK    1  A    between atoms: O_6  and  C_16
REMARK    2  A    between atoms: O_6  and  C_20
REMARK    3  A    between atoms: N_9  and  C_15
REMARK    4  A    between atoms: N_10  and  C_22
REMARK    5  A    between atoms: C_19  and  C_21
REMARK    6  A    between atoms: C_27  and  C_31
REMARK                            x       y       z     vdW  Elec       q    Type
REMARK                         _______ _______ _______ _____ _____    ______ ____
ROOT
ATOM      4  O   UNL     1      -6.890 -11.558  17.018  0.00  0.00    -0.368 OA
ATOM      5  O   UNL     1      -6.487 -11.001  20.007  0.00  0.00    -0.368 OA
ATOM     13  C   UNL     1      -7.003 -10.176  18.942  0.00  0.00    +0.173 C 
ATOM     14  C   UNL     1      -6.195 -10.503  17.702  0.00  0.00    +0.192 C 
ATOM     15  C   UNL     1      -8.406 -10.607  18.583  0.00  0.00    +0.130 C 
ATOM     16  C   UNL     1      -4.885 -10.980  18.283  0.00  0.00    +0.235 C 
ATOM     17  C   UNL     1      -8.155 -11.786  17.660  0.00  0.00    +0.185 C 
ATOM     18  C   UNL     1      -5.336 -11.711  19.527  0.00  0.00    +0.207 C 
ENDROOT
BRANCH  15   9
ATOM      7  O   UNL     1     -11.256 -10.295  18.422  0.00  0.00    -0.270 OA
ATOM      9  N   UNL     1      -9.120  -9.553  17.905  0.00  0.00    -0.304 N 
ATOM     19  C   UNL     1     -10.506  -9.485  17.882  0.00  0.00    +0.247 C 
ATOM     32  H   UNL     1      -8.571  -8.903  17.352  0.00  0.00    +0.149 HD
BRANCH  19  21
ATOM     11  N   UNL     1     -10.831  -6.231  16.080  0.00  0.00    -0.243 NA
ATOM     12  N   UNL     1     -12.964  -7.351  16.055  0.00  0.00    -0.243 NA
ATOM     21  C   UNL     1     -11.090  -8.353  17.119  0.00  0.00    +0.073 A 
ATOM     23  C   UNL     1     -10.332  -7.277  16.773  0.00  0.00    +0.127 A 
ATOM     24  C   UNL     1     -12.401  -8.362  16.747  0.00  0.00    +0.127 A 
ATOM     29  C   UNL     1     -12.135  -6.333  15.759  0.00  0.00    +0.221 A 
ENDBRANCH  19  21
ENDBRANCH  15   9
BRANCH  16   6
ATOM      6  O   UNL     1      -4.154 -11.815  17.413  0.00  0.00    -0.442 OA
BRANCH   6  20
ATOM      8  O   UNL     1      -2.580 -10.443  16.478  0.00  0.00    -0.226 OA
ATOM     10  N   UNL     1      -4.137 -11.600  15.168  0.00  0.00    -0.251 N 
ATOM     20  C   UNL     1      -3.529 -11.207  16.344  0.00  0.00    +0.405 C 
ATOM     33  H   UNL     1      -4.917 -12.245  15.260  0.00  0.00    +0.158 HD
BRANCH  10  22
ATOM     22  C   UNL     1      -3.810 -11.214  13.847  0.00  0.00    +0.037 A 
ATOM     25  C   UNL     1      -4.652 -10.354  13.163  0.00  0.00    +0.035 A 
ATOM     26  C   UNL     1      -2.652 -11.704  13.265  0.00  0.00    +0.023 A 
ATOM     27  C   UNL     1      -4.328  -9.972  11.861  0.00  0.00    +0.057 A 
ATOM     28  C   UNL     1      -2.328 -11.322  11.962  0.00  0.00    +0.002 A 
ATOM     30  C   UNL     1      -3.166 -10.456  11.260  0.00  0.00    +0.012 A 
BRANCH  27  31
ATOM      1  F   UNL     1      -6.011  -9.673  10.187  0.00  0.00    -0.166 F 
ATOM      2  F   UNL     1      -4.553  -8.083  10.409  0.00  0.00    -0.166 F 
ATOM      3  F   UNL     1      -6.084  -8.370  11.927  0.00  0.00    -0.166 F 
ATOM     31  C   UNL     1      -5.224  -9.045  11.110  0.00  0.00    +0.417 C 
ENDBRANCH  27  31
ENDBRANCH  10  22
ENDBRANCH   6  20
ENDBRANCH  16   6
TORSDOF 6
ENDMDL
MODEL 4
REMARK VINA RESULT:      -7.1     20.336     21.652
REMARK  Name = 11865552
REMARK  6 active torsions:
REMARK  status: ('A' for Active; 'I' for Inactive)
REMARK    1  A    between atoms: O_6  and  C_16
REMARK    2  A    between atoms: O_6  and  C_20
REMARK    3  A    between atoms: N_9  and  C_15
REMARK    4  A    between atoms: N_10  and  C_22
REMARK    5  A    between atoms: C_19  and  C_21
REMARK    6  A    between atoms: C_27  and  C_31
REMARK                            x       y       z     vdW  Elec       q    Type
REMARK                         _______ _______ _______ _____ _____    ______ ____
ROOT
ATOM      4  O   UNL     1      -3.889 -12.061  14.397  0.00  0.00    -0.368 OA
ATOM      5  O   UNL     1      -2.022 -10.930  16.552  0.00  0.00    -0.368 OA
ATOM     13  C   UNL     1      -3.373 -10.584  16.179  0.00  0.00    +0.173 C 
ATOM     14  C   UNL     1      -3.460 -10.717  14.672  0.00  0.00    +0.192 C 
ATOM     15  C   UNL     1      -4.337 -11.628  16.692  0.00  0.00    +0.130 C 
ATOM     16  C   UNL     1      -2.031 -10.486  14.241  0.00  0.00    +0.235 C 
ATOM     17  C   UNL     1      -4.233 -12.710  15.631  0.00  0.00    +0.185 C 
ATOM     18  C   UNL     1      -1.251 -11.138  15.360  0.00  0.00    +0.207 C 
ENDROOT
BRANCH  15   9
ATOM      7  O   UNL     1      -5.577 -10.457  19.002  0.00  0.00    -0.270 OA
ATOM      9  N   UNL     1      -5.678 -11.104  16.777  0.00  0.00    -0.304 N 
ATOM     19  C   UNL     1      -6.192 -10.554  17.943  0.00  0.00    +0.247 C 
ATOM     32  H   UNL     1      -6.281 -11.239  15.971  0.00  0.00    +0.149 HD
BRANCH  19  21
ATOM     11  N   UNL     1      -9.859 -10.268  18.588  0.00  0.00    -0.243 NA
ATOM     12  N   UNL     1      -9.220  -8.596  16.974  0.00  0.00    -0.243 NA
ATOM     21  C   UNL     1      -7.599 -10.082  17.876  0.00  0.00    +0.073 A 
ATOM     23  C   UNL     1      -8.571 -10.670  18.625  0.00  0.00    +0.127 A 
ATOM     24  C   UNL     1      -7.952  -9.049  17.060  0.00  0.00    +0.127 A 
ATOM     29  C   UNL     1     -10.109  -9.241  17.753  0.00  0.00    +0.221 A 
ENDBRANCH  19  21
ENDBRANCH  15   9
BRANCH  16   6
ATOM      6  O   UNL     1      -1.725 -11.047  12.984  0.00  0.00    -0.442 OA
BRANCH   6  20
ATOM      8  O   UNL     1      -1.375  -9.470  11.364  0.00  0.00    -0.226 OA
ATOM     10  N   UNL     1      -3.354 -10.717  11.460  0.00  0.00    -0.251 N 
ATOM     20  C   UNL     1      -2.095 -10.322  11.870  0.00  0.00    +0.405 C 
ATOM     33  H   UNL     1      -3.798 -11.445  12.013  0.00  0.00    +0.158 HD
BRANCH  10  22
ATOM     22  C   UNL     1      -4.104 -10.232  10.364  0.00  0.00    +0.037 A 
ATOM     25  C   UNL     1      -4.181 -10.988   9.206  0.00  0.00    +0.035 A 
ATOM     26  C   UNL     1      -4.751  -9.011  10.471  0.00  0.00    +0.023 A 
ATOM     27  C   UNL     1      -4.923 -10.510   8.125  0.00  0.00    +0.057 A 
ATOM     28  C   UNL     1      -5.492  -8.533   9.391  0.00  0.00    +0.002 A 
ATOM     30  C   UNL     1      -5.578  -9.282   8.218  0.00  0.00    +0.012 A 
BRANCH  27  31
ATOM      1  F   UNL     1      -5.302 -10.565   5.764  0.00  0.00    -0.166 F 
ATOM      2  F   UNL     1      -5.983 -12.277   6.908  0.00  0.00    -0.166 F 
ATOM      3  F   UNL     1      -3.855 -11.969   6.580  0.00  0.00    -0.166 F 
ATOM     31  C   UNL     1      -5.016 -11.312   6.871  0.00  0.00    +0.417 C 
ENDBRANCH  27  31
ENDBRANCH  10  22
ENDBRANCH   6  20
ENDBRANCH  16   6
TORSDOF 6
ENDMDL
MODEL 5
REMARK VINA RESULT:      -7.1     18.272     19.753
REMARK  Name = 11865552
REMARK  6 active torsions:
REMARK  status: ('A' for Active; 'I' for Inactive)
REMARK    1  A    between atoms: O_6  and  C_16
REMARK    2  A    between atoms: O_6  and  C_20
REMARK    3  A    between atoms: N_9  and  C_15
REMARK    4  A    between atoms: N_10  and  C_22
REMARK    5  A    between atoms: C_19  and  C_21
REMARK    6  A    between atoms: C_27  and  C_31
REMARK                            x       y       z     vdW  Elec       q    Type
REMARK                         _______ _______ _______ _____ _____    ______ ____
ROOT
ATOM      4  O   UNL     1      -8.475 -12.078  17.084  0.00  0.00    -0.368 OA
ATOM      5  O   UNL     1      -7.611 -11.151  19.876  0.00  0.00    -0.368 OA
ATOM     13  C   UNL     1      -7.971 -10.410  18.692  0.00  0.00    +0.173 C 
ATOM     14  C   UNL     1      -7.431 -11.186  17.507  0.00  0.00    +0.192 C 
ATOM     15  C   UNL     1      -9.468 -10.442  18.494  0.00  0.00    +0.130 C 
ATOM     16  C   UNL     1      -6.266 -11.934  18.111  0.00  0.00    +0.235 C 
ATOM     17  C   UNL     1      -9.675 -11.785  17.817  0.00  0.00    +0.185 C 
ATOM     18  C   UNL     1      -6.777 -12.255  19.496  0.00  0.00    +0.207 C 
ENDROOT
BRANCH  15   9
ATOM      7  O   UNL     1     -12.142  -9.417  18.273  0.00  0.00    -0.270 OA
ATOM      9  N   UNL     1      -9.908  -9.357  17.652  0.00  0.00    -0.304 N 
ATOM     19  C   UNL     1     -11.228  -8.930  17.612  0.00  0.00    +0.247 C 
ATOM     32  H   UNL     1      -9.230  -8.970  17.002  0.00  0.00    +0.149 HD
BRANCH  19  21
ATOM     11  N   UNL     1     -10.782  -5.945  15.414  0.00  0.00    -0.243 NA
ATOM     12  N   UNL     1     -13.092  -6.624  15.344  0.00  0.00    -0.243 NA
ATOM     21  C   UNL     1     -11.526  -7.818  16.673  0.00  0.00    +0.073 A 
ATOM     23  C   UNL     1     -10.547  -6.965  16.266  0.00  0.00    +0.127 A 
ATOM     24  C   UNL     1     -12.787  -7.623  16.197  0.00  0.00    +0.127 A 
ATOM     29  C   UNL     1     -12.058  -5.834  14.999  0.00  0.00    +0.221 A 
ENDBRANCH  19  21
ENDBRANCH  15   9
BRANCH  16   6
ATOM      6  O   UNL     1      -5.910 -13.095  17.393  0.00  0.00    -0.442 OA
BRANCH   6  20
ATOM      8  O   UNL     1      -4.469 -13.920  15.821  0.00  0.00    -0.226 OA
ATOM     10  N   UNL     1      -4.414 -11.675  16.483  0.00  0.00    -0.251 N 
ATOM     20  C   UNL     1      -4.875 -12.977  16.490  0.00  0.00    +0.405 C 
ATOM     33  H   UNL     1      -4.881 -11.030  17.114  0.00  0.00    +0.158 HD
BRANCH  10  22
ATOM     22  C   UNL     1      -3.368 -11.126  15.705  0.00  0.00    +0.037 A 
ATOM     25  C   UNL     1      -3.518 -11.037  14.331  0.00  0.00    +0.035 A 
ATOM     26  C   UNL     1      -2.214 -10.684  16.333  0.00  0.00    +0.023 A 
ATOM     27  C   UNL     1      -2.487 -10.493  13.564  0.00  0.00    +0.057 A 
ATOM     28  C   UNL     1      -1.183 -10.141  15.567  0.00  0.00    +0.002 A 
ATOM     30  C   UNL     1      -1.319 -10.046  14.182  0.00  0.00    +0.012 A 
BRANCH  27  31
ATOM      1  F   UNL     1      -2.564 -11.595  11.442  0.00  0.00    -0.166 F 
ATOM      2  F   UNL     1      -1.675  -9.617  11.491  0.00  0.00    -0.166 F 
ATOM      3  F   UNL     1      -3.827  -9.845  11.710  0.00  0.00    -0.166 F 
ATOM     31  C   UNL     1      -2.633 -10.391  12.083  0.00  0.00    +0.417 C 
ENDBRANCH  27  31
ENDBRANCH  10  22
ENDBRANCH   6  20
ENDBRANCH  16   6
TORSDOF 6
ENDMDL
MODEL 6
REMARK VINA RESULT:      -7.1      2.039      3.082
REMARK  Name = 11865552
REMARK  6 active torsions:
REMARK  status: ('A' for Active; 'I' for Inactive)
REMARK    1  A    between atoms: O_6  and  C_16
REMARK    2  A    between atoms: O_6  and  C_20
REMARK    3  A    between atoms: N_9  and  C_15
REMARK    4  A    between atoms: N_10  and  C_22
REMARK    5  A    between atoms: C_19  and  C_21
REMARK    6  A    between atoms: C_27  and  C_31
REMARK                            x       y       z     vdW  Elec       q    Type
REMARK                         _______ _______ _______ _____ _____    ______ ____
ROOT
ATOM      4  O   UNL     1     -15.700   6.485  23.762  0.00  0.00    -0.368 OA
ATOM      5  O   UNL     1     -16.520   4.341  21.728  0.00  0.00    -0.368 OA
ATOM     13  C   UNL     1     -15.915   4.239  23.034  0.00  0.00    +0.173 C 
ATOM     14  C   UNL     1     -14.959   5.407  23.168  0.00  0.00    +0.192 C 
ATOM     15  C   UNL     1     -16.948   4.491  24.106  0.00  0.00    +0.130 C 
ATOM     16  C   UNL     1     -14.598   5.700  21.731  0.00  0.00    +0.235 C 
ATOM     17  C   UNL     1     -16.996   6.008  24.156  0.00  0.00    +0.185 C 
ATOM     18  C   UNL     1     -15.898   5.419  21.012  0.00  0.00    +0.207 C 
ENDROOT
BRANCH  15   9
ATOM      7  O   UNL     1     -17.712   1.947  25.197  0.00  0.00    -0.270 OA
ATOM      9  N   UNL     1     -16.534   3.938  25.372  0.00  0.00    -0.304 N 
ATOM     19  C   UNL     1     -16.957   2.693  25.817  0.00  0.00    +0.247 C 
ATOM     32  H   UNL     1     -15.990   4.538  25.985  0.00  0.00    +0.149 HD
BRANCH  19  21
ATOM     11  N   UNL     1     -16.208   0.592  28.811  0.00  0.00    -0.243 NA
ATOM     12  N   UNL     1     -15.356   2.814  29.187  0.00  0.00    -0.243 NA
ATOM     21  C   UNL     1     -16.463   2.276  27.154  0.00  0.00    +0.073 A 
ATOM     23  C   UNL     1     -16.644   1.004  27.602  0.00  0.00    +0.127 A 
ATOM     24  C   UNL     1     -15.817   3.158  27.967  0.00  0.00    +0.127 A 
ATOM     29  C   UNL     1     -15.582   1.535  29.541  0.00  0.00    +0.221 A 
ENDBRANCH  19  21
ENDBRANCH  15   9
BRANCH  16   6
ATOM      6  O   UNL     1     -14.151   7.021  21.521  0.00  0.00    -0.442 OA
BRANCH   6  20
ATOM      8  O   UNL     1     -11.951   6.496  21.179  0.00  0.00    -0.226 OA
ATOM     10  N   UNL     1     -13.020   8.176  19.948  0.00  0.00    -0.251 N 
ATOM     20  C   UNL     1     -12.931   7.175  20.896  0.00  0.00    +0.405 C 
ATOM     33  H   UNL     1     -13.926   8.629  19.858  0.00  0.00    +0.158 HD
BRANCH  10  22
ATOM     22  C   UNL     1     -12.005   8.652  19.086  0.00  0.00    +0.037 A 
ATOM     25  C   UNL     1     -12.034   8.302  17.746  0.00  0.00    +0.035 A 
ATOM     26  C   UNL     1     -11.004   9.461  19.598  0.00  0.00    +0.023 A 
ATOM     27  C   UNL     1     -11.034   8.773  16.895  0.00  0.00    +0.057 A 
ATOM     28  C   UNL     1     -10.004   9.932  18.747  0.00  0.00    +0.002 A 
ATOM     30  C   UNL     1     -10.018   9.588  17.396  0.00  0.00    +0.012 A 
BRANCH  27  31
ATOM      1  F   UNL     1     -10.721   9.439  14.619  0.00  0.00    -0.166 F 
ATOM      2  F   UNL     1     -12.268   7.970  15.009  0.00  0.00    -0.166 F 
ATOM      3  F   UNL     1     -10.174   7.403  15.152  0.00  0.00    -0.166 F 
ATOM     31  C   UNL     1     -11.050   8.406  15.449  0.00  0.00    +0.417 C 
ENDBRANCH  27  31
ENDBRANCH  10  22
ENDBRANCH   6  20
ENDBRANCH  16   6
TORSDOF 6
ENDMDL
MODEL 7
REMARK VINA RESULT:      -7.1     28.149     30.923
REMARK  Name = 11865552
REMARK  6 active torsions:
REMARK  status: ('A' for Active; 'I' for Inactive)
REMARK    1  A    between atoms: O_6  and  C_16
REMARK    2  A    between atoms: O_6  and  C_20
REMARK    3  A    between atoms: N_9  and  C_15
REMARK    4  A    between atoms: N_10  and  C_22
REMARK    5  A    between atoms: C_19  and  C_21
REMARK    6  A    between atoms: C_27  and  C_31
REMARK                            x       y       z     vdW  Elec       q    Type
REMARK                         _______ _______ _______ _____ _____    ______ ____
ROOT
ATOM      4  O   UNL     1      13.524   9.354  20.085  0.00  0.00    -0.368 OA
ATOM      5  O   UNL     1      11.638   7.124  21.024  0.00  0.00    -0.368 OA
ATOM     13  C   UNL     1      12.404   8.102  21.759  0.00  0.00    +0.173 C 
ATOM     14  C   UNL     1      13.715   8.279  21.020  0.00  0.00    +0.192 C 
ATOM     15  C   UNL     1      11.746   9.458  21.660  0.00  0.00    +0.130 C 
ATOM     16  C   UNL     1      13.878   6.951  20.321  0.00  0.00    +0.235 C 
ATOM     17  C   UNL     1      12.242   9.960  20.315  0.00  0.00    +0.185 C 
ATOM     18  C   UNL     1      12.451   6.602  19.963  0.00  0.00    +0.207 C 
ENDROOT
BRANCH  15   9
ATOM      7  O   UNL     1      10.802  12.118  22.192  0.00  0.00    -0.270 OA
ATOM      9  N   UNL     1      12.171  10.325  22.732  0.00  0.00    -0.304 N 
ATOM     19  C   UNL     1      11.654  11.601  22.910  0.00  0.00    +0.247 C 
ATOM     32  H   UNL     1      12.945  10.006  23.307  0.00  0.00    +0.149 HD
BRANCH  19  21
ATOM     11  N   UNL     1      13.270  12.425  26.173  0.00  0.00    -0.243 NA
ATOM     12  N   UNL     1      12.700  14.478  25.047  0.00  0.00    -0.243 NA
ATOM     21  C   UNL     1      12.214  12.378  24.045  0.00  0.00    +0.073 A 
ATOM     23  C   UNL     1      12.753  11.750  25.125  0.00  0.00    +0.127 A 
ATOM     24  C   UNL     1      12.201  13.741  24.033  0.00  0.00    +0.127 A 
ATOM     29  C   UNL     1      13.211  13.767  26.070  0.00  0.00    +0.221 A 
ENDBRANCH  19  21
ENDBRANCH  15   9
BRANCH  16   6
ATOM      6  O   UNL     1      14.711   7.011  19.185  0.00  0.00    -0.442 OA
BRANCH   6  20
ATOM      8  O   UNL     1      16.506   5.658  18.760  0.00  0.00    -0.226 OA
ATOM     10  N   UNL     1      16.646   7.456  20.253  0.00  0.00    -0.251 N 
ATOM     20  C   UNL     1      16.022   6.616  19.351  0.00  0.00    +0.405 C 
ATOM     33  H   UNL     1      16.075   8.202  20.641  0.00  0.00    +0.158 HD
BRANCH  10  22
ATOM     22  C   UNL     1      17.986   7.407  20.705  0.00  0.00    +0.037 A 
ATOM     25  C   UNL     1      18.730   6.257  20.500  0.00  0.00    +0.035 A 
ATOM     26  C   UNL     1      18.528   8.512  21.340  0.00  0.00    +0.023 A 
ATOM     27  C   UNL     1      20.052   6.209  20.944  0.00  0.00    +0.057 A 
ATOM     28  C   UNL     1      19.850   8.465  21.785  0.00  0.00    +0.002 A 
ATOM     30  C   UNL     1      20.611   7.314  21.587  0.00  0.00    +0.012 A 
BRANCH  27  31
ATOM      1  F   UNL     1      20.164   3.947  20.175  0.00  0.00    -0.166 F 
ATOM      2  F   UNL     1      21.396   4.467  21.882  0.00  0.00    -0.166 F 
ATOM      3  F   UNL     1      21.929   5.188  19.901  0.00  0.00    -0.166 F 
ATOM     31  C   UNL     1      20.866   4.978  20.731  0.00  0.00    +0.417 C 
ENDBRANCH  27  31
ENDBRANCH  10  22
ENDBRANCH   6  20
ENDBRANCH  16   6
TORSDOF 6
ENDMDL
MODEL 8
REMARK VINA RESULT:      -7.1     16.036     18.706
REMARK  Name = 11865552
REMARK  6 active torsions:
REMARK  status: ('A' for Active; 'I' for Inactive)
REMARK    1  A    between atoms: O_6  and  C_16
REMARK    2  A    between atoms: O_6  and  C_20
REMARK    3  A    between atoms: N_9  and  C_15
REMARK    4  A    between atoms: N_10  and  C_22
REMARK    5  A    between atoms: C_19  and  C_21
REMARK    6  A    between atoms: C_27  and  C_31
REMARK                            x       y       z     vdW  Elec       q    Type
REMARK                         _______ _______ _______ _____ _____    ______ ____
ROOT
ATOM      4  O   UNL     1     -12.391  -7.928  14.612  0.00  0.00    -0.368 OA
ATOM      5  O   UNL     1     -11.077  -5.995  16.598  0.00  0.00    -0.368 OA
ATOM     13  C   UNL     1     -11.076  -6.031  15.155  0.00  0.00    +0.173 C 
ATOM     14  C   UNL     1     -11.030  -7.491  14.752  0.00  0.00    +0.192 C 
ATOM     15  C   UNL     1     -12.406  -5.551  14.623  0.00  0.00    +0.130 C 
ATOM     16  C   UNL     1     -10.354  -8.136  15.939  0.00  0.00    +0.235 C 
ATOM     17  C   UNL     1     -13.267  -6.796  14.735  0.00  0.00    +0.185 C 
ATOM     18  C   UNL     1     -10.903  -7.330  17.094  0.00  0.00    +0.207 C 
ENDROOT
BRANCH  15   9
ATOM      7  O   UNL     1     -13.966  -3.508  13.341  0.00  0.00    -0.270 OA
ATOM      9  N   UNL     1     -12.293  -5.113  13.253  0.00  0.00    -0.304 N 
ATOM     19  C   UNL     1     -13.095  -4.113  12.720  0.00  0.00    +0.247 C 
ATOM     32  H   UNL     1     -11.665  -5.635  12.650  0.00  0.00    +0.149 HD
BRANCH  19  21
ATOM     11  N   UNL     1     -13.743  -3.124   9.178  0.00  0.00    -0.243 NA
ATOM     12  N   UNL     1     -11.394  -3.595   9.437  0.00  0.00    -0.243 NA
ATOM     21  C   UNL     1     -12.874  -3.796  11.286  0.00  0.00    +0.073 A 
ATOM     23  C   UNL     1     -13.908  -3.420  10.485  0.00  0.00    +0.127 A 
ATOM     24  C   UNL     1     -11.630  -3.875  10.735  0.00  0.00    +0.127 A 
ATOM     29  C   UNL     1     -12.479  -3.231   8.727  0.00  0.00    +0.221 A 
ENDBRANCH  19  21
ENDBRANCH  15   9
BRANCH  16   6
ATOM      6  O   UNL     1     -10.637  -9.511  16.069  0.00  0.00    -0.442 OA
BRANCH   6  20
ATOM      8  O   UNL     1      -9.790 -11.502  16.810  0.00  0.00    -0.226 OA
ATOM     10  N   UNL     1      -8.492  -9.554  16.763  0.00  0.00    -0.251 N 
ATOM     20  C   UNL     1      -9.634 -10.309  16.578  0.00  0.00    +0.405 C 
ATOM     33  H   UNL     1      -8.558  -8.572  16.510  0.00  0.00    +0.158 HD
BRANCH  10  22
ATOM     22  C   UNL     1      -7.239  -9.979  17.262  0.00  0.00    +0.037 A 
ATOM     25  C   UNL     1      -6.180 -10.147  16.385  0.00  0.00    +0.035 A 
ATOM     26  C   UNL     1      -7.094 -10.216  18.620  0.00  0.00    +0.023 A 
ATOM     27  C   UNL     1      -4.943 -10.564  16.878  0.00  0.00    +0.057 A 
ATOM     28  C   UNL     1      -5.858 -10.634  19.113  0.00  0.00    +0.002 A 
ATOM     30  C   UNL     1      -4.782 -10.807  18.242  0.00  0.00    +0.012 A 
BRANCH  27  31
ATOM      1  F   UNL     1      -2.655 -10.108  16.350  0.00  0.00    -0.166 F 
ATOM      2  F   UNL     1      -4.032 -10.288  14.683  0.00  0.00    -0.166 F 
ATOM      3  F   UNL     1      -3.443 -12.060  15.798  0.00  0.00    -0.166 F 
ATOM     31  C   UNL     1      -3.793 -10.749  15.947  0.00  0.00    +0.417 C 
ENDBRANCH  27  31
ENDBRANCH  10  22
ENDBRANCH   6  20
ENDBRANCH  16   6
TORSDOF 6
ENDMDL
MODEL 9
REMARK VINA RESULT:      -6.8      6.357      8.159
REMARK  Name = 11865552
REMARK  6 active torsions:
REMARK  status: ('A' for Active; 'I' for Inactive)
REMARK    1  A    between atoms: O_6  and  C_16
REMARK    2  A    between atoms: O_6  and  C_20
REMARK    3  A    between atoms: N_9  and  C_15
REMARK    4  A    between atoms: N_10  and  C_22
REMARK    5  A    between atoms: C_19  and  C_21
REMARK    6  A    between atoms: C_27  and  C_31
REMARK                            x       y       z     vdW  Elec       q    Type
REMARK                         _______ _______ _______ _____ _____    ______ ____
ROOT
ATOM      4  O   UNL     1     -13.483   6.085  33.700  0.00  0.00    -0.368 OA
ATOM      5  O   UNL     1     -16.307   7.080  33.038  0.00  0.00    -0.368 OA
ATOM     13  C   UNL     1     -15.465   6.098  32.398  0.00  0.00    +0.173 C 
ATOM     14  C   UNL     1     -14.042   6.615  32.487  0.00  0.00    +0.192 C 
ATOM     15  C   UNL     1     -15.440   4.826  33.212  0.00  0.00    +0.130 C 
ATOM     16  C   UNL     1     -14.243   8.109  32.570  0.00  0.00    +0.235 C 
ATOM     17  C   UNL     1     -14.403   5.144  34.275  0.00  0.00    +0.185 C 
ATOM     18  C   UNL     1     -15.506   8.217  33.393  0.00  0.00    +0.207 C 
ENDROOT
BRANCH  15   9
ATOM      7  O   UNL     1     -17.000   3.522  31.184  0.00  0.00    -0.270 OA
ATOM      9  N   UNL     1     -15.037   3.699  32.407  0.00  0.00    -0.304 N 
ATOM     19  C   UNL     1     -15.864   3.134  31.446  0.00  0.00    +0.247 C 
ATOM     32  H   UNL     1     -14.150   3.260  32.635  0.00  0.00    +0.149 HD
BRANCH  19  21
ATOM     11  N   UNL     1     -15.577   0.248  29.093  0.00  0.00    -0.243 NA
ATOM     12  N   UNL     1     -13.528   0.438  30.346  0.00  0.00    -0.243 NA
ATOM     21  C   UNL     1     -15.313   1.961  30.720  0.00  0.00    +0.073 A 
ATOM     23  C   UNL     1     -16.047   1.317  29.772  0.00  0.00    +0.127 A 
ATOM     24  C   UNL     1     -14.059   1.500  30.986  0.00  0.00    +0.127 A 
ATOM     29  C   UNL     1     -14.329  -0.132  29.426  0.00  0.00    +0.221 A 
ENDBRANCH  19  21
ENDBRANCH  15   9
BRANCH  16   6
ATOM      6  O   UNL     1     -13.161   8.790  33.166  0.00  0.00    -0.442 OA
BRANCH   6  20
ATOM      8  O   UNL     1     -11.043   9.229  32.422  0.00  0.00    -0.226 OA
ATOM     10  N   UNL     1     -12.928  10.146  31.380  0.00  0.00    -0.251 N 
ATOM     20  C   UNL     1     -12.254   9.386  32.315  0.00  0.00    +0.405 C 
ATOM     33  H   UNL     1     -13.942  10.154  31.454  0.00  0.00    +0.158 HD
BRANCH  10  22
ATOM     22  C   UNL     1     -12.382  10.919  30.328  0.00  0.00    +0.037 A 
ATOM     25  C   UNL     1     -11.858  10.279  29.217  0.00  0.00    +0.035 A 
ATOM     26  C   UNL     1     -12.385  12.301  30.429  0.00  0.00    +0.023 A 
ATOM     27  C   UNL     1     -11.322  11.041  28.179  0.00  0.00    +0.057 A 
ATOM     28  C   UNL     1     -11.848  13.063  29.391  0.00  0.00    +0.002 A 
ATOM     30  C   UNL     1     -11.316  12.433  28.266  0.00  0.00    +0.012 A 
BRANCH  27  31
ATOM      1  F   UNL     1      -9.388  10.351  26.951  0.00  0.00    -0.166 F 
ATOM      2  F   UNL     1     -11.124  10.949  25.796  0.00  0.00    -0.166 F 
ATOM      3  F   UNL     1     -11.137   9.061  26.875  0.00  0.00    -0.166 F 
ATOM     31  C   UNL     1     -10.754  10.367  26.975  0.00  0.00    +0.417 C 
ENDBRANCH  27  31
ENDBRANCH  10  22
ENDBRANCH   6  20
ENDBRANCH  16   6
TORSDOF 6
ENDMDL
MODEL 10
REMARK VINA RESULT:      -6.8     29.273     33.574
REMARK  Name = 11865552
REMARK  6 active torsions:
REMARK  status: ('A' for Active; 'I' for Inactive)
REMARK    1  A    between atoms: O_6  and  C_16
REMARK    2  A    between atoms: O_6  and  C_20
REMARK    3  A    between atoms: N_9  and  C_15
REMARK    4  A    between atoms: N_10  and  C_22
REMARK    5  A    between atoms: C_19  and  C_21
REMARK    6  A    between atoms: C_27  and  C_31
REMARK                            x       y       z     vdW  Elec       q    Type
REMARK                         _______ _______ _______ _____ _____    ______ ____
ROOT
ATOM      4  O   UNL     1      15.377  10.788  13.405  0.00  0.00    -0.368 OA
ATOM      5  O   UNL     1      15.049  13.716  14.254  0.00  0.00    -0.368 OA
ATOM     13  C   UNL     1      16.074  12.745  14.547  0.00  0.00    +0.173 C 
ATOM     14  C   UNL     1      15.381  11.406  14.702  0.00  0.00    +0.192 C 
ATOM     15  C   UNL     1      16.967  12.553  13.344  0.00  0.00    +0.130 C 
ATOM     16  C   UNL     1      13.991  11.807  15.135  0.00  0.00    +0.235 C 
ATOM     17  C   UNL     1      16.167  11.576  12.501  0.00  0.00    +0.185 C 
ATOM     18  C   UNL     1      13.766  13.079  14.349  0.00  0.00    +0.207 C 
ENDROOT
BRANCH  15   9
ATOM      7  O   UNL     1      19.265  14.005  14.270  0.00  0.00    -0.270 OA
ATOM      9  N   UNL     1      18.243  11.996  13.723  0.00  0.00    -0.304 N 
ATOM     19  C   UNL     1      19.300  12.782  14.162  0.00  0.00    +0.247 C 
ATOM     32  H   UNL     1      18.381  11.003  13.565  0.00  0.00    +0.149 HD
BRANCH  19  21
ATOM     11  N   UNL     1      21.929  10.133  14.271  0.00  0.00    -0.243 NA
ATOM     12  N   UNL     1      22.648  11.998  15.615  0.00  0.00    -0.243 NA
ATOM     21  C   UNL     1      20.556  12.061  14.489  0.00  0.00    +0.073 A 
ATOM     23  C   UNL     1      20.798  10.817  13.993  0.00  0.00    +0.127 A 
ATOM     24  C   UNL     1      21.498  12.626  15.296  0.00  0.00    +0.127 A 
ATOM     29  C   UNL     1      22.797  10.774  15.076  0.00  0.00    +0.221 A 
ENDBRANCH  19  21
ENDBRANCH  15   9
BRANCH  16   6
ATOM      6  O   UNL     1      13.011  10.832  14.858  0.00  0.00    -0.442 OA
BRANCH   6  20
ATOM      8  O   UNL     1      13.199   8.559  15.035  0.00  0.00    -0.226 OA
ATOM     10  N   UNL     1      13.004   9.929  16.924  0.00  0.00    -0.251 N 
ATOM     20  C   UNL     1      13.083   9.654  15.573  0.00  0.00    +0.405 C 
ATOM     33  H   UNL     1      12.908  10.909  17.178  0.00  0.00    +0.158 HD
BRANCH  10  22
ATOM     22  C   UNL     1      13.039   9.014  18.002  0.00  0.00    +0.037 A 
ATOM     25  C   UNL     1      14.233   8.390  18.324  0.00  0.00    +0.035 A 
ATOM     26  C   UNL     1      11.879   8.762  18.716  0.00  0.00    +0.023 A 
ATOM     27  C   UNL     1      14.268   7.489  19.389  0.00  0.00    +0.057 A 
ATOM     28  C   UNL     1      11.914   7.860  19.780  0.00  0.00    +0.002 A 
ATOM     30  C   UNL     1      13.108   7.224  20.117  0.00  0.00    +0.012 A 
BRANCH  27  31
ATOM      1  F   UNL     1      15.435   5.967  20.819  0.00  0.00    -0.166 F 
ATOM      2  F   UNL     1      16.552   7.673  20.079  0.00  0.00    -0.166 F 
ATOM      3  F   UNL     1      16.039   6.045  18.731  0.00  0.00    -0.166 F 
ATOM     31  C   UNL     1      15.546   6.809  19.749  0.00  0.00    +0.417 C 
ENDBRANCH  27  31
ENDBRANCH  10  22
ENDBRANCH   6  20
ENDBRANCH  16   6
TORSDOF 6
ENDMDL
