REMARK  Name = 75536749
REMARK  5 active torsions:
REMARK  status: ('A' for Active; 'I' for Inactive)
REMARK    1  A    between atoms: O_4  and  C_12
REMARK    2  A    between atoms: N_7  and  C_10
REMARK    3  A    between atoms: N_7  and  C_11
REMARK    4  A    between atoms: N_8  and  C_20
REMARK    5  A    between atoms: C_13  and  C_20
REMARK                            x       y       z     vdW  Elec       q    Type
REMARK                         _______ _______ _______ _____ _____    ______ ____
ROOT
ATOM      3  O   UNL     1       0.511  -0.812   0.724  0.00  0.00    -0.371 OA
ATOM     10  C   UNL     1      -1.557   0.301   0.369  0.00  0.00    +0.111 C 
ATOM     12  C   UNL     1      -0.503   1.325   0.750  0.00  0.00    +0.164 C 
ATOM     13  C   UNL     1       0.775   0.568   0.417  0.00  0.00    +0.165 C 
ATOM     16  C   UNL     1      -0.911  -0.988   0.848  0.00  0.00    +0.181 C 
ENDROOT
BRANCH  12   4
ATOM      4  O   UNL     1      -0.615   2.524   0.009  0.00  0.00    -0.388 OA
ATOM     27  H   UNL     1      -0.572   2.304  -0.937  0.00  0.00    +0.210 HD
ENDBRANCH  12   4
BRANCH  10   7
ATOM      7  N   UNL     1      -2.854   0.545   0.978  0.00  0.00    -0.306 NA
ATOM     26  H   UNL     1      -3.087   1.536   0.927  0.00  0.00    +0.123 HD
BRANCH   7  11
ATOM      1  F   UNL     1      -7.227   0.655  -0.406  0.00  0.00    -0.206 F 
ATOM      2  F   UNL     1      -7.590  -1.298  -1.289  0.00  0.00    -0.206 F 
ATOM     11  C   UNL     1      -3.898  -0.247   0.328  0.00  0.00    +0.054 C 
ATOM     14  C   UNL     1      -4.342   0.443  -0.968  0.00  0.00    +0.024 C 
ATOM     15  C   UNL     1      -5.078  -0.439   1.288  0.00  0.00    +0.024 C 
ATOM     17  C   UNL     1      -5.483  -0.320  -1.639  0.00  0.00    +0.077 C 
ATOM     18  C   UNL     1      -6.220  -1.202   0.617  0.00  0.00    +0.077 C 
ATOM     19  C   UNL     1      -6.643  -0.540  -0.683  0.00  0.00    +0.249 C 
ENDBRANCH   7  11
ENDBRANCH  10   7
BRANCH  13  20
ATOM     20  C   UNL     1       1.980   1.048   1.206  0.00  0.00    +0.140 C 
BRANCH  20   8
ATOM      5  O   UNL     1       7.688  -1.335  -0.506  0.00  0.00    -0.377 OA
ATOM      6  O   UNL     1       3.805   1.714  -0.830  0.00  0.00    -0.253 OA
ATOM      8  N   UNL     1       3.169   0.301   0.862  0.00  0.00    -0.297 N 
ATOM      9  N   UNL     1       5.133  -0.134  -0.380  0.00  0.00    -0.281 N 
ATOM     21  C   UNL     1       4.022   0.698  -0.161  0.00  0.00    +0.302 C 
ATOM     22  C   UNL     1       6.081   0.205  -1.444  0.00  0.00    +0.137 C 
ATOM     23  C   UNL     1       5.384  -1.432   0.263  0.00  0.00    +0.137 C 
ATOM     24  C   UNL     1       7.515   0.000  -0.982  0.00  0.00    +0.179 C 
ATOM     25  C   UNL     1       6.857  -1.580   0.629  0.00  0.00    +0.179 C 
ATOM     28  H   UNL     1       3.336  -0.538   1.398  0.00  0.00    +0.150 HD
ENDBRANCH  20   8
ENDBRANCH  13  20
TORSDOF 5
