MODEL 1
REMARK VINA RESULT:      -6.6      0.000      0.000
REMARK  Name = 45783871
REMARK  14 active torsions:
REMARK  status: ('A' for Active; 'I' for Inactive)
REMARK    1  A    between atoms: O_3  and  C_26
REMARK    2  A    between atoms: N_5  and  C_15
REMARK    3  A    between atoms: N_6  and  C_23
REMARK    4  A    between atoms: C_8  and  C_12
REMARK    5  A    between atoms: C_9  and  C_15
REMARK    6  A    between atoms: C_11  and  C_16
REMARK    7  A    between atoms: C_12  and  C_17
REMARK    8  A    between atoms: C_12  and  C_18
REMARK    9  A    between atoms: C_13  and  C_19
REMARK   10  A    between atoms: C_16  and  C_20
REMARK   11  A    between atoms: C_21  and  C_22
REMARK   12  A    between atoms: C_22  and  C_24
REMARK   13  A    between atoms: C_23  and  C_25
REMARK   14  A    between atoms: C_24  and  C_26
REMARK                            x       y       z     vdW  Elec       q    Type
REMARK                         _______ _______ _______ _____ _____    ______ ____
ROOT
ATOM      8  C   UNL     1      12.674   7.603   4.738  0.00  0.00    +0.000 C 
ATOM      9  C   UNL     1      11.738   8.748   5.200  0.00  0.00    +0.032 C 
ATOM     10  C   UNL     1      12.448   7.294   3.251  0.00  0.00    +0.012 C 
ATOM     11  C   UNL     1      10.993   6.884   2.955  0.00  0.00    +0.023 C 
ATOM     13  C   UNL     1       9.999   7.823   3.609  0.00  0.00    -0.073 C 
ATOM     14  C   UNL     1      10.354   8.659   4.602  0.00  0.00    -0.022 C 
ATOM     19  C   UNL     1       8.598   7.812   3.064  0.00  0.00    +0.039 C 
ENDROOT
BRANCH   8  12
ATOM     12  C   UNL     1      14.148   7.942   4.980  0.00  0.00    -0.013 C 
ATOM     17  C   UNL     1      14.982   7.600   3.750  0.00  0.00    +0.007 C 
ATOM     18  C   UNL     1      14.668   7.201   6.209  0.00  0.00    +0.007 C 
ENDBRANCH   8  12
BRANCH   9  15
ATOM     15  C   UNL     1      11.631   8.793   6.729  0.00  0.00    +0.112 C 
BRANCH  15   5
ATOM      2  O   UNL     1      11.690   6.122   7.842  0.00  0.00    -0.276 OA
ATOM      5  N   UNL     1      10.517   8.020   7.182  0.00  0.00    -0.315 N 
ATOM     21  C   UNL     1      10.632   6.732   7.710  0.00  0.00    +0.214 C 
ATOM     31  H   UNL     1       9.599   8.453   7.170  0.00  0.00    +0.149 HD
BRANCH  21  22
ATOM     22  C   UNL     1       9.286   6.155   8.106  0.00  0.00    +0.107 C 
BRANCH  22  24
ATOM     24  C   UNL     1       9.400   4.743   8.670  0.00  0.00    +0.129 C 
BRANCH  24  26
ATOM      4  O   UNL     1      10.491   4.717  10.845  0.00  0.00    -0.251 OA
ATOM     26  C   UNL     1       9.464   4.740  10.180  0.00  0.00    +0.305 C 
BRANCH  26   3
ATOM      3  O   UNL     1       8.223   4.769  10.730  0.00  0.00    -0.481 OA
ATOM     33  H   UNL     1       7.689   5.518  10.388  0.00  0.00    +0.295 HD
ENDBRANCH  26   3
ENDBRANCH  24  26
ENDBRANCH  22  24
ENDBRANCH  21  22
ENDBRANCH  15   5
ENDBRANCH   9  15
BRANCH  11  16
ATOM     16  C   UNL     1      10.733   5.433   3.372  0.00  0.00    +0.103 C 
BRANCH  16  20
ATOM      1  O   UNL     1      10.251   4.224   1.332  0.00  0.00    -0.276 OA
ATOM      6  N   UNL     1      12.276   3.877   2.417  0.00  0.00    -0.310 N 
ATOM     20  C   UNL     1      11.028   4.458   2.255  0.00  0.00    +0.214 C 
ATOM     32  H   UNL     1      12.850   4.137   3.215  0.00  0.00    +0.149 HD
BRANCH   6  23
ATOM     23  C   UNL     1      12.821   2.905   1.498  0.00  0.00    +0.159 C 
BRANCH  23  25
ATOM      7  N   UNL     1      15.014   3.840   1.032  0.00  0.00    -0.258 NA
ATOM     25  C   UNL     1      13.797   3.522   0.539  0.00  0.00    +0.058 A 
ATOM     27  C   UNL     1      13.415   3.730  -0.776  0.00  0.00    +0.025 A 
ATOM     28  C   UNL     1      14.344   4.303  -1.641  0.00  0.00    +0.003 A 
ATOM     29  C   UNL     1      15.890   4.393   0.164  0.00  0.00    +0.111 A 
ATOM     30  C   UNL     1      15.606   4.643  -1.169  0.00  0.00    +0.020 A 
ENDBRANCH  23  25
ENDBRANCH   6  23
ENDBRANCH  16  20
ENDBRANCH  11  16
TORSDOF 11
ENDMDL
MODEL 2
REMARK VINA RESULT:      -6.5     13.217     17.068
REMARK  Name = 45783871
REMARK  14 active torsions:
REMARK  status: ('A' for Active; 'I' for Inactive)
REMARK    1  A    between atoms: O_3  and  C_26
REMARK    2  A    between atoms: N_5  and  C_15
REMARK    3  A    between atoms: N_6  and  C_23
REMARK    4  A    between atoms: C_8  and  C_12
REMARK    5  A    between atoms: C_9  and  C_15
REMARK    6  A    between atoms: C_11  and  C_16
REMARK    7  A    between atoms: C_12  and  C_17
REMARK    8  A    between atoms: C_12  and  C_18
REMARK    9  A    between atoms: C_13  and  C_19
REMARK   10  A    between atoms: C_16  and  C_20
REMARK   11  A    between atoms: C_21  and  C_22
REMARK   12  A    between atoms: C_22  and  C_24
REMARK   13  A    between atoms: C_23  and  C_25
REMARK   14  A    between atoms: C_24  and  C_26
REMARK                            x       y       z     vdW  Elec       q    Type
REMARK                         _______ _______ _______ _____ _____    ______ ____
ROOT
ATOM      8  C   UNL     1      13.823  11.162  20.910  0.00  0.00    +0.000 C 
ATOM      9  C   UNL     1      14.154  12.081  22.112  0.00  0.00    +0.032 C 
ATOM     10  C   UNL     1      12.303  11.027  20.741  0.00  0.00    +0.012 C 
ATOM     11  C   UNL     1      11.626  10.448  21.998  0.00  0.00    +0.023 C 
ATOM     13  C   UNL     1      12.108  11.131  23.262  0.00  0.00    -0.073 C 
ATOM     14  C   UNL     1      13.232  11.869  23.291  0.00  0.00    -0.022 C 
ATOM     19  C   UNL     1      11.242  10.986  24.482  0.00  0.00    +0.039 C 
ENDROOT
BRANCH   8  12
ATOM     12  C   UNL     1      14.446  11.681  19.611  0.00  0.00    -0.013 C 
ATOM     17  C   UNL     1      13.397  12.393  18.764  0.00  0.00    +0.007 C 
ATOM     18  C   UNL     1      15.081  10.533  18.831  0.00  0.00    +0.007 C 
ENDBRANCH   8  12
BRANCH   9  15
ATOM     15  C   UNL     1      15.608  11.903  22.563  0.00  0.00    +0.112 C 
BRANCH  15   5
ATOM      2  O   UNL     1      17.984  11.020  21.166  0.00  0.00    -0.276 OA
ATOM      5  N   UNL     1      16.041  10.556  22.359  0.00  0.00    -0.315 N 
ATOM     21  C   UNL     1      17.206  10.214  21.670  0.00  0.00    +0.214 C 
ATOM     31  H   UNL     1      15.498   9.810  22.784  0.00  0.00    +0.149 HD
BRANCH  21  22
ATOM     22  C   UNL     1      17.412   8.711  21.606  0.00  0.00    +0.107 C 
BRANCH  22  24
ATOM     24  C   UNL     1      16.096   7.941  21.634  0.00  0.00    +0.129 C 
BRANCH  24  26
ATOM      4  O   UNL     1      16.735   6.861  19.550  0.00  0.00    -0.251 OA
ATOM     26  C   UNL     1      16.031   6.892  20.550  0.00  0.00    +0.305 C 
BRANCH  26   3
ATOM      3  O   UNL     1      15.079   5.960  20.816  0.00  0.00    -0.481 OA
ATOM     33  H   UNL     1      15.435   5.216  21.348  0.00  0.00    +0.295 HD
ENDBRANCH  26   3
ENDBRANCH  24  26
ENDBRANCH  22  24
ENDBRANCH  21  22
ENDBRANCH  15   5
ENDBRANCH   9  15
BRANCH  11  16
ATOM     16  C   UNL     1      11.825   8.931  22.084  0.00  0.00    +0.103 C 
BRANCH  16  20
ATOM      1  O   UNL     1      10.299   8.172  20.367  0.00  0.00    -0.276 OA
ATOM      6  N   UNL     1      12.563   7.683  20.184  0.00  0.00    -0.310 N 
ATOM     20  C   UNL     1      11.448   8.234  20.797  0.00  0.00    +0.214 C 
ATOM     32  H   UNL     1      13.477   7.788  20.617  0.00  0.00    +0.149 HD
BRANCH   6  23
ATOM     23  C   UNL     1      12.500   6.955  18.937  0.00  0.00    +0.159 C 
BRANCH  23  25
ATOM      7  N   UNL     1      13.951   7.555  17.084  0.00  0.00    -0.258 NA
ATOM     25  C   UNL     1      12.813   7.830  17.759  0.00  0.00    +0.058 A 
ATOM     27  C   UNL     1      11.941   8.852  17.423  0.00  0.00    +0.025 A 
ATOM     28  C   UNL     1      12.259   9.644  16.324  0.00  0.00    +0.003 A 
ATOM     29  C   UNL     1      14.227   8.344  16.022  0.00  0.00    +0.111 A 
ATOM     30  C   UNL     1      13.421   9.391  15.605  0.00  0.00    +0.020 A 
ENDBRANCH  23  25
ENDBRANCH   6  23
ENDBRANCH  16  20
ENDBRANCH  11  16
TORSDOF 11
ENDMDL
MODEL 3
REMARK VINA RESULT:      -6.4     23.212     27.465
REMARK  Name = 45783871
REMARK  14 active torsions:
REMARK  status: ('A' for Active; 'I' for Inactive)
REMARK    1  A    between atoms: O_3  and  C_26
REMARK    2  A    between atoms: N_5  and  C_15
REMARK    3  A    between atoms: N_6  and  C_23
REMARK    4  A    between atoms: C_8  and  C_12
REMARK    5  A    between atoms: C_9  and  C_15
REMARK    6  A    between atoms: C_11  and  C_16
REMARK    7  A    between atoms: C_12  and  C_17
REMARK    8  A    between atoms: C_12  and  C_18
REMARK    9  A    between atoms: C_13  and  C_19
REMARK   10  A    between atoms: C_16  and  C_20
REMARK   11  A    between atoms: C_21  and  C_22
REMARK   12  A    between atoms: C_22  and  C_24
REMARK   13  A    between atoms: C_23  and  C_25
REMARK   14  A    between atoms: C_24  and  C_26
REMARK                            x       y       z     vdW  Elec       q    Type
REMARK                         _______ _______ _______ _____ _____    ______ ____
ROOT
ATOM      8  C   UNL     1      -7.264 -11.644  16.865  0.00  0.00    +0.000 C 
ATOM      9  C   UNL     1      -7.491 -11.939  18.369  0.00  0.00    +0.032 C 
ATOM     10  C   UNL     1      -6.022 -12.388  16.354  0.00  0.00    +0.012 C 
ATOM     11  C   UNL     1      -4.748 -11.994  17.127  0.00  0.00    +0.023 C 
ATOM     13  C   UNL     1      -4.973 -12.002  18.625  0.00  0.00    -0.073 C 
ATOM     14  C   UNL     1      -6.206 -11.992  19.162  0.00  0.00    -0.022 C 
ATOM     19  C   UNL     1      -3.747 -12.070  19.493  0.00  0.00    +0.039 C 
ENDROOT
BRANCH   8  12
ATOM     12  C   UNL     1      -8.483 -12.027  16.021  0.00  0.00    -0.013 C 
ATOM     17  C   UNL     1      -8.413 -13.498  15.623  0.00  0.00    +0.007 C 
ATOM     18  C   UNL     1      -8.575 -11.137  14.785  0.00  0.00    +0.007 C 
ENDBRANCH   8  12
BRANCH   9  15
ATOM     15  C   UNL     1      -8.438 -10.911  18.999  0.00  0.00    +0.112 C 
BRANCH  15   5
ATOM      2  O   UNL     1     -10.895  -9.513  18.381  0.00  0.00    -0.276 OA
ATOM      5  N   UNL     1      -8.596  -9.777  18.143  0.00  0.00    -0.315 N 
ATOM     21  C   UNL     1      -9.824  -9.158  17.898  0.00  0.00    +0.214 C 
ATOM     31  H   UNL     1      -7.762  -9.366  17.735  0.00  0.00    +0.149 HD
BRANCH  21  22
ATOM     22  C   UNL     1      -9.690  -7.981  16.950  0.00  0.00    +0.107 C 
BRANCH  22  24
ATOM     24  C   UNL     1     -10.966  -7.147  16.871  0.00  0.00    +0.129 C 
BRANCH  24  26
ATOM      4  O   UNL     1     -11.897  -5.704  15.148  0.00  0.00    -0.251 OA
ATOM     26  C   UNL     1     -10.922  -6.151  15.736  0.00  0.00    +0.305 C 
BRANCH  26   3
ATOM      3  O   UNL     1      -9.646  -5.796  15.436  0.00  0.00    -0.481 OA
ATOM     33  H   UNL     1      -9.305  -5.107  16.046  0.00  0.00    +0.295 HD
ENDBRANCH  26   3
ENDBRANCH  24  26
ENDBRANCH  22  24
ENDBRANCH  21  22
ENDBRANCH  15   5
ENDBRANCH   9  15
BRANCH  11  16
ATOM     16  C   UNL     1      -4.217 -10.635  16.659  0.00  0.00    +0.103 C 
BRANCH  16  20
ATOM      1  O   UNL     1      -1.980 -11.107  15.867  0.00  0.00    -0.276 OA
ATOM      6  N   UNL     1      -3.625 -10.483  14.348  0.00  0.00    -0.310 N 
ATOM     20  C   UNL     1      -3.136 -10.776  15.612  0.00  0.00    +0.214 C 
ATOM     32  H   UNL     1      -4.600 -10.219  14.237  0.00  0.00    +0.149 HD
BRANCH   6  23
ATOM     23  C   UNL     1      -2.812 -10.535  13.155  0.00  0.00    +0.159 C 
BRANCH  23  25
ATOM      7  N   UNL     1      -4.880  -9.849  12.082  0.00  0.00    -0.258 NA
ATOM     25  C   UNL     1      -3.547 -10.023  11.951  0.00  0.00    +0.058 A 
ATOM     27  C   UNL     1      -2.840  -9.755  10.789  0.00  0.00    +0.025 A 
ATOM     28  C   UNL     1      -3.550  -9.279   9.691  0.00  0.00    +0.003 A 
ATOM     29  C   UNL     1      -5.536  -9.386  10.995  0.00  0.00    +0.111 A 
ATOM     30  C   UNL     1      -4.924  -9.088   9.788  0.00  0.00    +0.020 A 
ENDBRANCH  23  25
ENDBRANCH   6  23
ENDBRANCH  16  20
ENDBRANCH  11  16
TORSDOF 11
ENDMDL
MODEL 4
REMARK VINA RESULT:      -6.3     23.245     27.018
REMARK  Name = 45783871
REMARK  14 active torsions:
REMARK  status: ('A' for Active; 'I' for Inactive)
REMARK    1  A    between atoms: O_3  and  C_26
REMARK    2  A    between atoms: N_5  and  C_15
REMARK    3  A    between atoms: N_6  and  C_23
REMARK    4  A    between atoms: C_8  and  C_12
REMARK    5  A    between atoms: C_9  and  C_15
REMARK    6  A    between atoms: C_11  and  C_16
REMARK    7  A    between atoms: C_12  and  C_17
REMARK    8  A    between atoms: C_12  and  C_18
REMARK    9  A    between atoms: C_13  and  C_19
REMARK   10  A    between atoms: C_16  and  C_20
REMARK   11  A    between atoms: C_21  and  C_22
REMARK   12  A    between atoms: C_22  and  C_24
REMARK   13  A    between atoms: C_23  and  C_25
REMARK   14  A    between atoms: C_24  and  C_26
REMARK                            x       y       z     vdW  Elec       q    Type
REMARK                         _______ _______ _______ _____ _____    ______ ____
ROOT
ATOM      8  C   UNL     1      -6.054 -10.458  15.526  0.00  0.00    +0.000 C 
ATOM      9  C   UNL     1      -6.737 -10.491  16.916  0.00  0.00    +0.032 C 
ATOM     10  C   UNL     1      -5.123 -11.667  15.356  0.00  0.00    +0.012 C 
ATOM     11  C   UNL     1      -4.026 -11.713  16.437  0.00  0.00    +0.023 C 
ATOM     13  C   UNL     1      -4.592 -11.484  17.824  0.00  0.00    -0.073 C 
ATOM     14  C   UNL     1      -5.811 -10.950  18.018  0.00  0.00    -0.022 C 
ATOM     19  C   UNL     1      -3.743 -11.926  18.983  0.00  0.00    +0.039 C 
ENDROOT
BRANCH   8  12
ATOM     12  C   UNL     1      -7.082 -10.431  14.390  0.00  0.00    -0.013 C 
ATOM     17  C   UNL     1      -8.103 -11.550  14.569  0.00  0.00    +0.007 C 
ATOM     18  C   UNL     1      -6.382 -10.549  13.038  0.00  0.00    +0.007 C 
ENDBRANCH   8  12
BRANCH   9  15
ATOM     15  C   UNL     1      -7.323  -9.122  17.278  0.00  0.00    +0.112 C 
BRANCH  15   5
ATOM      2  O   UNL     1      -9.785  -8.213  16.058  0.00  0.00    -0.276 OA
ATOM      5  N   UNL     1      -8.648  -9.259  17.797  0.00  0.00    -0.315 N 
ATOM     21  C   UNL     1      -9.788  -8.790  17.142  0.00  0.00    +0.214 C 
ATOM     31  H   UNL     1      -8.771  -9.774  18.665  0.00  0.00    +0.149 HD
BRANCH  21  22
ATOM     22  C   UNL     1     -11.055  -9.073  17.928  0.00  0.00    +0.107 C 
BRANCH  22  24
ATOM     24  C   UNL     1     -11.088 -10.489  18.492  0.00  0.00    +0.129 C 
BRANCH  24  26
ATOM      4  O   UNL     1      -9.546 -10.736  20.358  0.00  0.00    -0.251 OA
ATOM     26  C   UNL     1     -10.679 -10.529  19.946  0.00  0.00    +0.305 C 
BRANCH  26   3
ATOM      3  O   UNL     1     -11.738 -10.302  20.766  0.00  0.00    -0.481 OA
ATOM     33  H   UNL     1     -12.554 -10.100  20.261  0.00  0.00    +0.295 HD
ENDBRANCH  26   3
ENDBRANCH  24  26
ENDBRANCH  22  24
ENDBRANCH  21  22
ENDBRANCH  15   5
ENDBRANCH   9  15
BRANCH  11  16
ATOM     16  C   UNL     1      -2.906 -10.714  16.130  0.00  0.00    +0.103 C 
BRANCH  16  20
ATOM      1  O   UNL     1      -1.455 -12.124  14.803  0.00  0.00    -0.276 OA
ATOM      6  N   UNL     1      -2.268 -10.145  13.898  0.00  0.00    -0.310 N 
ATOM     20  C   UNL     1      -2.124 -11.098  14.894  0.00  0.00    +0.214 C 
ATOM     32  H   UNL     1      -2.847  -9.326  14.067  0.00  0.00    +0.149 HD
BRANCH   6  23
ATOM     23  C   UNL     1      -1.631 -10.250  12.605  0.00  0.00    +0.159 C 
BRANCH  23  25
ATOM      7  N   UNL     1      -2.909  -9.512  10.676  0.00  0.00    -0.258 NA
ATOM     25  C   UNL     1      -2.619 -10.533  11.512  0.00  0.00    +0.058 A 
ATOM     27  C   UNL     1      -3.173 -11.799  11.410  0.00  0.00    +0.025 A 
ATOM     28  C   UNL     1      -4.085 -12.030  10.385  0.00  0.00    +0.003 A 
ATOM     29  C   UNL     1      -3.798  -9.773   9.692  0.00  0.00    +0.111 A 
ATOM     30  C   UNL     1      -4.408 -11.003   9.505  0.00  0.00    +0.020 A 
ENDBRANCH  23  25
ENDBRANCH   6  23
ENDBRANCH  16  20
ENDBRANCH  11  16
TORSDOF 11
ENDMDL
MODEL 5
REMARK VINA RESULT:      -6.3     30.391     35.678
REMARK  Name = 45783871
REMARK  14 active torsions:
REMARK  status: ('A' for Active; 'I' for Inactive)
REMARK    1  A    between atoms: O_3  and  C_26
REMARK    2  A    between atoms: N_5  and  C_15
REMARK    3  A    between atoms: N_6  and  C_23
REMARK    4  A    between atoms: C_8  and  C_12
REMARK    5  A    between atoms: C_9  and  C_15
REMARK    6  A    between atoms: C_11  and  C_16
REMARK    7  A    between atoms: C_12  and  C_17
REMARK    8  A    between atoms: C_12  and  C_18
REMARK    9  A    between atoms: C_13  and  C_19
REMARK   10  A    between atoms: C_16  and  C_20
REMARK   11  A    between atoms: C_21  and  C_22
REMARK   12  A    between atoms: C_22  and  C_24
REMARK   13  A    between atoms: C_23  and  C_25
REMARK   14  A    between atoms: C_24  and  C_26
REMARK                            x       y       z     vdW  Elec       q    Type
REMARK                         _______ _______ _______ _____ _____    ______ ____
ROOT
ATOM      8  C   UNL     1     -17.060   5.214  27.799  0.00  0.00    +0.000 C 
ATOM      9  C   UNL     1     -17.135   4.193  28.962  0.00  0.00    +0.032 C 
ATOM     10  C   UNL     1     -17.742   4.648  26.544  0.00  0.00    +0.012 C 
ATOM     11  C   UNL     1     -17.099   3.328  26.077  0.00  0.00    +0.023 C 
ATOM     13  C   UNL     1     -16.893   2.364  27.228  0.00  0.00    -0.073 C 
ATOM     14  C   UNL     1     -16.926   2.766  28.511  0.00  0.00    -0.022 C 
ATOM     19  C   UNL     1     -16.693   0.917  26.872  0.00  0.00    +0.039 C 
ENDROOT
BRANCH   8  12
ATOM     12  C   UNL     1     -17.699   6.554  28.177  0.00  0.00    -0.013 C 
ATOM     17  C   UNL     1     -19.071   6.331  28.804  0.00  0.00    +0.007 C 
ATOM     18  C   UNL     1     -17.805   7.456  26.951  0.00  0.00    +0.007 C 
ENDBRANCH   8  12
BRANCH   9  15
ATOM     15  C   UNL     1     -16.125   4.534  30.063  0.00  0.00    +0.112 C 
BRANCH  15   5
ATOM      2  O   UNL     1     -15.512   3.027  32.456  0.00  0.00    -0.276 OA
ATOM      5  N   UNL     1     -15.157   3.491  30.204  0.00  0.00    -0.315 N 
ATOM     21  C   UNL     1     -14.923   2.810  31.401  0.00  0.00    +0.214 C 
ATOM     31  H   UNL     1     -14.652   3.193  29.375  0.00  0.00    +0.149 HD
BRANCH  21  22
ATOM     22  C   UNL     1     -13.839   1.757  31.255  0.00  0.00    +0.107 C 
BRANCH  22  24
ATOM     24  C   UNL     1     -13.894   1.046  29.907  0.00  0.00    +0.129 C 
BRANCH  24  26
ATOM      4  O   UNL     1     -15.898  -0.286  30.273  0.00  0.00    -0.251 OA
ATOM     26  C   UNL     1     -14.714  -0.221  29.969  0.00  0.00    +0.305 C 
BRANCH  26   3
ATOM      3  O   UNL     1     -13.972  -1.309  29.638  0.00  0.00    -0.481 OA
ATOM     33  H   UNL     1     -13.519  -1.194  28.775  0.00  0.00    +0.295 HD
ENDBRANCH  26   3
ENDBRANCH  24  26
ENDBRANCH  22  24
ENDBRANCH  21  22
ENDBRANCH  15   5
ENDBRANCH   9  15
BRANCH  11  16
ATOM     16  C   UNL     1     -15.784   3.587  25.335  0.00  0.00    +0.103 C 
BRANCH  16  20
ATOM      1  O   UNL     1     -16.278   2.677  23.149  0.00  0.00    -0.276 OA
ATOM      6  N   UNL     1     -15.771   4.935  23.362  0.00  0.00    -0.310 N 
ATOM     20  C   UNL     1     -15.977   3.649  23.838  0.00  0.00    +0.214 C 
ATOM     32  H   UNL     1     -15.526   5.677  24.012  0.00  0.00    +0.149 HD
BRANCH   6  23
ATOM     23  C   UNL     1     -15.888   5.289  21.966  0.00  0.00    +0.159 C 
BRANCH  23  25
ATOM      7  N   UNL     1     -14.809   6.932  20.538  0.00  0.00    -0.258 NA
ATOM     25  C   UNL     1     -14.642   5.944  21.445  0.00  0.00    +0.058 A 
ATOM     27  C   UNL     1     -13.408   5.517  21.908  0.00  0.00    +0.025 A 
ATOM     28  C   UNL     1     -12.272   6.145  21.406  0.00  0.00    +0.003 A 
ATOM     29  C   UNL     1     -13.684   7.519  20.074  0.00  0.00    +0.111 A 
ATOM     30  C   UNL     1     -12.405   7.166  20.472  0.00  0.00    +0.020 A 
ENDBRANCH  23  25
ENDBRANCH   6  23
ENDBRANCH  16  20
ENDBRANCH  11  16
TORSDOF 11
ENDMDL
MODEL 6
REMARK VINA RESULT:      -6.2     24.641     29.610
REMARK  Name = 45783871
REMARK  14 active torsions:
REMARK  status: ('A' for Active; 'I' for Inactive)
REMARK    1  A    between atoms: O_3  and  C_26
REMARK    2  A    between atoms: N_5  and  C_15
REMARK    3  A    between atoms: N_6  and  C_23
REMARK    4  A    between atoms: C_8  and  C_12
REMARK    5  A    between atoms: C_9  and  C_15
REMARK    6  A    between atoms: C_11  and  C_16
REMARK    7  A    between atoms: C_12  and  C_17
REMARK    8  A    between atoms: C_12  and  C_18
REMARK    9  A    between atoms: C_13  and  C_19
REMARK   10  A    between atoms: C_16  and  C_20
REMARK   11  A    between atoms: C_21  and  C_22
REMARK   12  A    between atoms: C_22  and  C_24
REMARK   13  A    between atoms: C_23  and  C_25
REMARK   14  A    between atoms: C_24  and  C_26
REMARK                            x       y       z     vdW  Elec       q    Type
REMARK                         _______ _______ _______ _____ _____    ______ ____
ROOT
ATOM      8  C   UNL     1      -7.525 -10.163  16.526  0.00  0.00    +0.000 C 
ATOM      9  C   UNL     1      -6.096  -9.733  16.111  0.00  0.00    +0.032 C 
ATOM     10  C   UNL     1      -7.629 -10.276  18.054  0.00  0.00    +0.012 C 
ATOM     11  C   UNL     1      -6.626 -11.292  18.632  0.00  0.00    +0.023 C 
ATOM     13  C   UNL     1      -5.236 -11.100  18.061  0.00  0.00    -0.073 C 
ATOM     14  C   UNL     1      -5.017 -10.387  16.941  0.00  0.00    -0.022 C 
ATOM     19  C   UNL     1      -4.097 -11.706  18.832  0.00  0.00    +0.039 C 
ENDROOT
BRANCH   8  12
ATOM     12  C   UNL     1      -8.585  -9.188  16.004  0.00  0.00    -0.013 C 
ATOM     17  C   UNL     1      -9.123  -8.328  17.142  0.00  0.00    +0.007 C 
ATOM     18  C   UNL     1      -9.717  -9.951  15.321  0.00  0.00    +0.007 C 
ENDBRANCH   8  12
BRANCH   9  15
ATOM     15  C   UNL     1      -5.841 -10.016  14.626  0.00  0.00    +0.112 C 
BRANCH  15   5
ATOM      2  O   UNL     1      -4.088  -9.910  12.327  0.00  0.00    -0.276 OA
ATOM      5  N   UNL     1      -4.606 -10.713  14.448  0.00  0.00    -0.315 N 
ATOM     21  C   UNL     1      -3.816 -10.606  13.301  0.00  0.00    +0.214 C 
ATOM     31  H   UNL     1      -4.258 -11.275  15.219  0.00  0.00    +0.149 HD
BRANCH  21  22
ATOM     22  C   UNL     1      -2.564 -11.459  13.389  0.00  0.00    +0.107 C 
BRANCH  22  24
ATOM     24  C   UNL     1      -2.198 -11.812  14.827  0.00  0.00    +0.129 C 
BRANCH  24  26
ATOM      4  O   UNL     1      -0.973  -9.713  14.943  0.00  0.00    -0.251 OA
ATOM     26  C   UNL     1      -1.413 -10.709  15.499  0.00  0.00    +0.305 C 
BRANCH  26   3
ATOM      3  O   UNL     1      -1.249 -10.954  16.824  0.00  0.00    -0.481 OA
ATOM     33  H   UNL     1      -1.972 -10.563  17.360  0.00  0.00    +0.295 HD
ENDBRANCH  26   3
ENDBRANCH  24  26
ENDBRANCH  22  24
ENDBRANCH  21  22
ENDBRANCH  15   5
ENDBRANCH   9  15
BRANCH  11  16
ATOM     16  C   UNL     1      -7.113 -12.730  18.419  0.00  0.00    +0.103 C 
BRANCH  16  20
ATOM      1  O   UNL     1      -8.240 -13.329  20.474  0.00  0.00    -0.276 OA
ATOM      6  N   UNL     1      -9.483 -13.010  18.537  0.00  0.00    -0.310 N 
ATOM     20  C   UNL     1      -8.312 -13.058  19.278  0.00  0.00    +0.214 C 
ATOM     32  H   UNL     1      -9.442 -12.773  17.549  0.00  0.00    +0.149 HD
BRANCH   6  23
ATOM     23  C   UNL     1     -10.786 -13.281  19.100  0.00  0.00    +0.159 C 
BRANCH  23  25
ATOM      7  N   UNL     1     -12.332 -12.071  20.530  0.00  0.00    -0.258 NA
ATOM     25  C   UNL     1     -11.521 -12.020  19.451  0.00  0.00    +0.058 A 
ATOM     27  C   UNL     1     -11.336 -10.889  18.673  0.00  0.00    +0.025 A 
ATOM     28  C   UNL     1     -12.030  -9.736  19.026  0.00  0.00    +0.003 A 
ATOM     29  C   UNL     1     -12.990 -10.933  20.843  0.00  0.00    +0.111 A 
ATOM     30  C   UNL     1     -12.874  -9.750  20.130  0.00  0.00    +0.020 A 
ENDBRANCH  23  25
ENDBRANCH   6  23
ENDBRANCH  16  20
ENDBRANCH  11  16
TORSDOF 11
ENDMDL
MODEL 7
REMARK VINA RESULT:      -6.2     24.760     30.239
REMARK  Name = 45783871
REMARK  14 active torsions:
REMARK  status: ('A' for Active; 'I' for Inactive)
REMARK    1  A    between atoms: O_3  and  C_26
REMARK    2  A    between atoms: N_5  and  C_15
REMARK    3  A    between atoms: N_6  and  C_23
REMARK    4  A    between atoms: C_8  and  C_12
REMARK    5  A    between atoms: C_9  and  C_15
REMARK    6  A    between atoms: C_11  and  C_16
REMARK    7  A    between atoms: C_12  and  C_17
REMARK    8  A    between atoms: C_12  and  C_18
REMARK    9  A    between atoms: C_13  and  C_19
REMARK   10  A    between atoms: C_16  and  C_20
REMARK   11  A    between atoms: C_21  and  C_22
REMARK   12  A    between atoms: C_22  and  C_24
REMARK   13  A    between atoms: C_23  and  C_25
REMARK   14  A    between atoms: C_24  and  C_26
REMARK                            x       y       z     vdW  Elec       q    Type
REMARK                         _______ _______ _______ _____ _____    ______ ____
ROOT
ATOM      8  C   UNL     1     -12.483   9.988  18.845  0.00  0.00    +0.000 C 
ATOM      9  C   UNL     1     -12.330   8.630  18.114  0.00  0.00    +0.032 C 
ATOM     10  C   UNL     1     -11.648  10.001  20.133  0.00  0.00    +0.012 C 
ATOM     11  C   UNL     1     -12.057   8.876  21.103  0.00  0.00    +0.023 C 
ATOM     13  C   UNL     1     -12.189   7.542  20.396  0.00  0.00    -0.073 C 
ATOM     14  C   UNL     1     -12.296   7.451  19.058  0.00  0.00    -0.022 C 
ATOM     19  C   UNL     1     -12.148   6.312  21.258  0.00  0.00    +0.039 C 
ENDROOT
BRANCH   8  12
ATOM     12  C   UNL     1     -12.076  11.162  17.950  0.00  0.00    -0.013 C 
ATOM     17  C   UNL     1     -10.718  10.897  17.309  0.00  0.00    +0.007 C 
ATOM     18  C   UNL     1     -12.050  12.459  18.755  0.00  0.00    +0.007 C 
ENDBRANCH   8  12
BRANCH   9  15
ATOM     15  C   UNL     1     -13.447   8.427  17.084  0.00  0.00    +0.112 C 
BRANCH  15   5
ATOM      2  O   UNL     1     -14.876   7.641  14.694  0.00  0.00    -0.276 OA
ATOM      5  N   UNL     1     -12.901   8.213  15.780  0.00  0.00    -0.315 N 
ATOM     21  C   UNL     1     -13.664   7.834  14.674  0.00  0.00    +0.214 C 
ATOM     31  H   UNL     1     -11.912   8.401  15.639  0.00  0.00    +0.149 HD
BRANCH  21  22
ATOM     22  C   UNL     1     -12.819   7.678  13.423  0.00  0.00    +0.107 C 
BRANCH  22  24
ATOM     24  C   UNL     1     -11.510   8.457  13.503  0.00  0.00    +0.129 C 
BRANCH  24  26
ATOM      4  O   UNL     1      -9.572   7.459  12.422  0.00  0.00    -0.251 OA
ATOM     26  C   UNL     1     -10.305   7.552  13.397  0.00  0.00    +0.305 C 
BRANCH  26   3
ATOM      3  O   UNL     1     -10.121   6.835  14.535  0.00  0.00    -0.481 OA
ATOM     33  H   UNL     1      -9.780   7.392  15.267  0.00  0.00    +0.295 HD
ENDBRANCH  26   3
ENDBRANCH  24  26
ENDBRANCH  22  24
ENDBRANCH  21  22
ENDBRANCH  15   5
ENDBRANCH   9  15
BRANCH  11  16
ATOM     16  C   UNL     1     -13.347   9.232  21.849  0.00  0.00    +0.103 C 
BRANCH  16  20
ATOM      1  O   UNL     1     -13.932  11.573  22.017  0.00  0.00    -0.276 OA
ATOM      6  N   UNL     1     -12.437  10.654  23.540  0.00  0.00    -0.310 N 
ATOM     20  C   UNL     1     -13.293  10.617  22.451  0.00  0.00    +0.214 C 
ATOM     32  H   UNL     1     -11.953   9.808  23.826  0.00  0.00    +0.149 HD
BRANCH   6  23
ATOM     23  C   UNL     1     -12.190  11.852  24.311  0.00  0.00    +0.159 C 
BRANCH  23  25
ATOM      7  N   UNL     1     -12.308  12.383  26.678  0.00  0.00    -0.258 NA
ATOM     25  C   UNL     1     -11.832  11.541  25.735  0.00  0.00    +0.058 A 
ATOM     27  C   UNL     1     -11.051  10.430  26.010  0.00  0.00    +0.025 A 
ATOM     28  C   UNL     1     -10.738  10.169  27.340  0.00  0.00    +0.003 A 
ATOM     29  C   UNL     1     -11.985  12.097  27.958  0.00  0.00    +0.111 A 
ATOM     30  C   UNL     1     -11.210  11.013  28.339  0.00  0.00    +0.020 A 
ENDBRANCH  23  25
ENDBRANCH   6  23
ENDBRANCH  16  20
ENDBRANCH  11  16
TORSDOF 11
ENDMDL
MODEL 8
REMARK VINA RESULT:      -6.1      2.278      4.289
REMARK  Name = 45783871
REMARK  14 active torsions:
REMARK  status: ('A' for Active; 'I' for Inactive)
REMARK    1  A    between atoms: O_3  and  C_26
REMARK    2  A    between atoms: N_5  and  C_15
REMARK    3  A    between atoms: N_6  and  C_23
REMARK    4  A    between atoms: C_8  and  C_12
REMARK    5  A    between atoms: C_9  and  C_15
REMARK    6  A    between atoms: C_11  and  C_16
REMARK    7  A    between atoms: C_12  and  C_17
REMARK    8  A    between atoms: C_12  and  C_18
REMARK    9  A    between atoms: C_13  and  C_19
REMARK   10  A    between atoms: C_16  and  C_20
REMARK   11  A    between atoms: C_21  and  C_22
REMARK   12  A    between atoms: C_22  and  C_24
REMARK   13  A    between atoms: C_23  and  C_25
REMARK   14  A    between atoms: C_24  and  C_26
REMARK                            x       y       z     vdW  Elec       q    Type
REMARK                         _______ _______ _______ _____ _____    ______ ____
ROOT
ATOM      8  C   UNL     1       8.779   8.474   5.292  0.00  0.00    +0.000 C 
ATOM      9  C   UNL     1       8.660   7.963   6.750  0.00  0.00    +0.032 C 
ATOM     10  C   UNL     1       8.325   7.389   4.305  0.00  0.00    +0.012 C 
ATOM     11  C   UNL     1       9.152   6.096   4.439  0.00  0.00    +0.023 C 
ATOM     13  C   UNL     1       9.306   5.673   5.886  0.00  0.00    -0.073 C 
ATOM     14  C   UNL     1       9.068   6.517   6.906  0.00  0.00    -0.022 C 
ATOM     19  C   UNL     1       9.696   4.243   6.135  0.00  0.00    +0.039 C 
ENDROOT
BRANCH   8  12
ATOM     12  C   UNL     1       7.965   9.752   5.070  0.00  0.00    -0.013 C 
ATOM     17  C   UNL     1       6.928   9.538   3.973  0.00  0.00    +0.007 C 
ATOM     18  C   UNL     1       8.889  10.916   4.722  0.00  0.00    +0.007 C 
ENDBRANCH   8  12
BRANCH   9  15
ATOM     15  C   UNL     1       9.481   8.832   7.710  0.00  0.00    +0.112 C 
BRANCH  15   5
ATOM      2  O   UNL     1      11.351  10.998   7.278  0.00  0.00    -0.276 OA
ATOM      5  N   UNL     1      10.877   8.725   7.422  0.00  0.00    -0.315 N 
ATOM     21  C   UNL     1      11.714   9.826   7.227  0.00  0.00    +0.214 C 
ATOM     31  H   UNL     1      11.294   7.798   7.413  0.00  0.00    +0.149 HD
BRANCH  21  22
ATOM     22  C   UNL     1      13.145   9.411   6.936  0.00  0.00    +0.107 C 
BRANCH  22  24
ATOM     24  C   UNL     1      13.233   8.336   5.858  0.00  0.00    +0.129 C 
BRANCH  24  26
ATOM      4  O   UNL     1      15.319   7.167   5.407  0.00  0.00    -0.251 OA
ATOM     26  C   UNL     1      14.348   7.353   6.128  0.00  0.00    +0.305 C 
BRANCH  26   3
ATOM      3  O   UNL     1      14.148   6.683   7.292  0.00  0.00    -0.481 OA
ATOM     33  H   UNL     1      13.495   5.959   7.189  0.00  0.00    +0.295 HD
ENDBRANCH  26   3
ENDBRANCH  24  26
ENDBRANCH  22  24
ENDBRANCH  21  22
ENDBRANCH  15   5
ENDBRANCH   9  15
BRANCH  11  16
ATOM     16  C   UNL     1      10.519   6.243   3.761  0.00  0.00    +0.103 C 
BRANCH  16  20
ATOM      1  O   UNL     1      10.144   5.375   1.534  0.00  0.00    -0.276 OA
ATOM      6  N   UNL     1      11.565   4.240   2.981  0.00  0.00    -0.310 N 
ATOM     20  C   UNL     1      10.700   5.264   2.625  0.00  0.00    +0.214 C 
ATOM     32  H   UNL     1      11.978   4.235   3.910  0.00  0.00    +0.149 HD
BRANCH   6  23
ATOM     23  C   UNL     1      11.921   3.161   2.090  0.00  0.00    +0.159 C 
BRANCH  23  25
ATOM      7  N   UNL     1      12.793   3.839  -0.074  0.00  0.00    -0.258 NA
ATOM     25  C   UNL     1      13.081   3.519   1.207  0.00  0.00    +0.058 A 
ATOM     27  C   UNL     1      14.362   3.508   1.735  0.00  0.00    +0.025 A 
ATOM     28  C   UNL     1      15.416   3.846   0.891  0.00  0.00    +0.003 A 
ATOM     29  C   UNL     1      13.841   4.162  -0.863  0.00  0.00    +0.111 A 
ATOM     30  C   UNL     1      15.159   4.181  -0.433  0.00  0.00    +0.020 A 
ENDBRANCH  23  25
ENDBRANCH   6  23
ENDBRANCH  16  20
ENDBRANCH  11  16
TORSDOF 11
ENDMDL
MODEL 9
REMARK VINA RESULT:      -6.0     33.047     37.483
REMARK  Name = 45783871
REMARK  14 active torsions:
REMARK  status: ('A' for Active; 'I' for Inactive)
REMARK    1  A    between atoms: O_3  and  C_26
REMARK    2  A    between atoms: N_5  and  C_15
REMARK    3  A    between atoms: N_6  and  C_23
REMARK    4  A    between atoms: C_8  and  C_12
REMARK    5  A    between atoms: C_9  and  C_15
REMARK    6  A    between atoms: C_11  and  C_16
REMARK    7  A    between atoms: C_12  and  C_17
REMARK    8  A    between atoms: C_12  and  C_18
REMARK    9  A    between atoms: C_13  and  C_19
REMARK   10  A    between atoms: C_16  and  C_20
REMARK   11  A    between atoms: C_21  and  C_22
REMARK   12  A    between atoms: C_22  and  C_24
REMARK   13  A    between atoms: C_23  and  C_25
REMARK   14  A    between atoms: C_24  and  C_26
REMARK                            x       y       z     vdW  Elec       q    Type
REMARK                         _______ _______ _______ _____ _____    ______ ____
ROOT
ATOM      8  C   UNL     1     -16.105   5.803  31.481  0.00  0.00    +0.000 C 
ATOM      9  C   UNL     1     -17.358   5.307  32.244  0.00  0.00    +0.032 C 
ATOM     10  C   UNL     1     -16.454   6.110  30.018  0.00  0.00    +0.012 C 
ATOM     11  C   UNL     1     -17.018   4.880  29.282  0.00  0.00    +0.023 C 
ATOM     13  C   UNL     1     -18.083   4.175  30.098  0.00  0.00    -0.073 C 
ATOM     14  C   UNL     1     -18.229   4.389  31.418  0.00  0.00    -0.022 C 
ATOM     19  C   UNL     1     -19.007   3.253  29.353  0.00  0.00    +0.039 C 
ENDROOT
BRANCH   8  12
ATOM     12  C   UNL     1     -15.492   7.042  32.140  0.00  0.00    -0.013 C 
ATOM     17  C   UNL     1     -15.633   8.255  31.227  0.00  0.00    +0.007 C 
ATOM     18  C   UNL     1     -14.026   6.791  32.483  0.00  0.00    +0.007 C 
ENDBRANCH   8  12
BRANCH   9  15
ATOM     15  C   UNL     1     -16.971   4.605  33.550  0.00  0.00    +0.112 C 
BRANCH  15   5
ATOM      2  O   UNL     1     -14.263   3.833  34.217  0.00  0.00    -0.276 OA
ATOM      5  N   UNL     1     -16.338   3.351  33.283  0.00  0.00    -0.315 N 
ATOM     21  C   UNL     1     -15.021   3.057  33.641  0.00  0.00    +0.214 C 
ATOM     31  H   UNL     1     -16.895   2.615  32.858  0.00  0.00    +0.149 HD
BRANCH  21  22
ATOM     22  C   UNL     1     -14.617   1.653  33.230  0.00  0.00    +0.107 C 
BRANCH  22  24
ATOM     24  C   UNL     1     -14.854   1.389  31.747  0.00  0.00    +0.129 C 
BRANCH  24  26
ATOM      4  O   UNL     1     -13.187   2.937  30.883  0.00  0.00    -0.251 OA
ATOM     26  C   UNL     1     -13.678   1.816  30.900  0.00  0.00    +0.305 C 
BRANCH  26   3
ATOM      3  O   UNL     1     -13.213   0.791  30.141  0.00  0.00    -0.481 OA
ATOM     33  H   UNL     1     -13.851   0.046  30.104  0.00  0.00    +0.295 HD
ENDBRANCH  26   3
ENDBRANCH  24  26
ENDBRANCH  22  24
ENDBRANCH  21  22
ENDBRANCH  15   5
ENDBRANCH   9  15
BRANCH  11  16
ATOM     16  C   UNL     1     -15.898   3.911  28.888  0.00  0.00    +0.103 C 
BRANCH  16  20
ATOM      1  O   UNL     1     -16.208   2.057  27.365  0.00  0.00    -0.276 OA
ATOM      6  N   UNL     1     -16.292   4.232  26.552  0.00  0.00    -0.310 N 
ATOM     20  C   UNL     1     -16.147   3.271  27.541  0.00  0.00    +0.214 C 
ATOM     32  H   UNL     1     -16.226   5.217  26.796  0.00  0.00    +0.149 HD
BRANCH   6  23
ATOM     23  C   UNL     1     -16.538   3.908  25.166  0.00  0.00    +0.159 C 
BRANCH  23  25
ATOM      7  N   UNL     1     -16.591   6.083  24.085  0.00  0.00    -0.258 NA
ATOM     25  C   UNL     1     -15.927   4.916  24.235  0.00  0.00    +0.058 A 
ATOM     27  C   UNL     1     -14.739   4.611  23.592  0.00  0.00    +0.025 A 
ATOM     28  C   UNL     1     -14.198   5.566  22.737  0.00  0.00    +0.003 A 
ATOM     29  C   UNL     1     -16.036   6.987  23.248  0.00  0.00    +0.111 A 
ATOM     30  C   UNL     1     -14.853   6.779  22.557  0.00  0.00    +0.020 A 
ENDBRANCH  23  25
ENDBRANCH   6  23
ENDBRANCH  16  20
ENDBRANCH  11  16
TORSDOF 11
ENDMDL
MODEL 10
REMARK VINA RESULT:      -5.9     12.882     15.548
REMARK  Name = 45783871
REMARK  14 active torsions:
REMARK  status: ('A' for Active; 'I' for Inactive)
REMARK    1  A    between atoms: O_3  and  C_26
REMARK    2  A    between atoms: N_5  and  C_15
REMARK    3  A    between atoms: N_6  and  C_23
REMARK    4  A    between atoms: C_8  and  C_12
REMARK    5  A    between atoms: C_9  and  C_15
REMARK    6  A    between atoms: C_11  and  C_16
REMARK    7  A    between atoms: C_12  and  C_17
REMARK    8  A    between atoms: C_12  and  C_18
REMARK    9  A    between atoms: C_13  and  C_19
REMARK   10  A    between atoms: C_16  and  C_20
REMARK   11  A    between atoms: C_21  and  C_22
REMARK   12  A    between atoms: C_22  and  C_24
REMARK   13  A    between atoms: C_23  and  C_25
REMARK   14  A    between atoms: C_24  and  C_26
REMARK                            x       y       z     vdW  Elec       q    Type
REMARK                         _______ _______ _______ _____ _____    ______ ____
ROOT
ATOM      8  C   UNL     1      12.965   9.604  20.282  0.00  0.00    +0.000 C 
ATOM      9  C   UNL     1      12.046   8.511  19.683  0.00  0.00    +0.032 C 
ATOM     10  C   UNL     1      12.864  10.898  19.461  0.00  0.00    +0.012 C 
ATOM     11  C   UNL     1      13.257  10.684  17.986  0.00  0.00    +0.023 C 
ATOM     13  C   UNL     1      12.591   9.456  17.399  0.00  0.00    -0.073 C 
ATOM     14  C   UNL     1      12.043   8.503  18.173  0.00  0.00    -0.022 C 
ATOM     19  C   UNL     1      12.529   9.373  15.899  0.00  0.00    +0.039 C 
ENDROOT
BRANCH   8  12
ATOM     12  C   UNL     1      12.625   9.892  21.748  0.00  0.00    -0.013 C 
ATOM     17  C   UNL     1      11.499  10.915  21.842  0.00  0.00    +0.007 C 
ATOM     18  C   UNL     1      13.863  10.381  22.494  0.00  0.00    +0.007 C 
ENDBRANCH   8  12
BRANCH   9  15
ATOM     15  C   UNL     1      12.429   7.120  20.201  0.00  0.00    +0.112 C 
BRANCH  15   5
ATOM      2  O   UNL     1      14.968   7.110  21.590  0.00  0.00    -0.276 OA
ATOM      5  N   UNL     1      13.698   6.718  19.680  0.00  0.00    -0.315 N 
ATOM     21  C   UNL     1      14.882   6.743  20.421  0.00  0.00    +0.214 C 
ATOM     31  H   UNL     1      13.731   6.342  18.737  0.00  0.00    +0.149 HD
BRANCH  21  22
ATOM     22  C   UNL     1      16.072   6.263  19.612  0.00  0.00    +0.107 C 
BRANCH  22  24
ATOM     24  C   UNL     1      17.398   6.775  20.165  0.00  0.00    +0.129 C 
BRANCH  24  26
ATOM      4  O   UNL     1      19.557   5.709  20.518  0.00  0.00    -0.251 OA
ATOM     26  C   UNL     1      18.543   5.842  19.846  0.00  0.00    +0.305 C 
BRANCH  26   3
ATOM      3  O   UNL     1      18.314   5.147  18.703  0.00  0.00    -0.481 OA
ATOM     33  H   UNL     1      18.427   5.709  17.905  0.00  0.00    +0.295 HD
ENDBRANCH  26   3
ENDBRANCH  24  26
ENDBRANCH  22  24
ENDBRANCH  21  22
ENDBRANCH  15   5
ENDBRANCH   9  15
BRANCH  11  16
ATOM     16  C   UNL     1      14.779  10.613  17.825  0.00  0.00    +0.103 C 
BRANCH  16  20
ATOM      1  O   UNL     1      15.727  12.838  17.888  0.00  0.00    -0.276 OA
ATOM      6  N   UNL     1      15.379  11.800  15.839  0.00  0.00    -0.310 N 
ATOM     20  C   UNL     1      15.348  11.878  17.223  0.00  0.00    +0.214 C 
ATOM     32  H   UNL     1      15.044  10.959  15.377  0.00  0.00    +0.149 HD
BRANCH   6  23
ATOM     23  C   UNL     1      15.874  12.866  14.999  0.00  0.00    +0.159 C 
BRANCH  23  25
ATOM      7  N   UNL     1      17.285  12.753  13.025  0.00  0.00    -0.258 NA
ATOM     25  C   UNL     1      17.180  12.513  14.351  0.00  0.00    +0.058 A 
ATOM     27  C   UNL     1      18.195  11.972  15.123  0.00  0.00    +0.025 A 
ATOM     28  C   UNL     1      19.395  11.656  14.493  0.00  0.00    +0.003 A 
ATOM     29  C   UNL     1      18.465  12.435  12.448  0.00  0.00    +0.111 A 
ATOM     30  C   UNL     1      19.540  11.890  13.131  0.00  0.00    +0.020 A 
ENDBRANCH  23  25
ENDBRANCH   6  23
ENDBRANCH  16  20
ENDBRANCH  11  16
TORSDOF 11
ENDMDL
