MODEL 1
REMARK VINA RESULT:      -6.8      0.000      0.000
REMARK  Name = 44716630
REMARK  7 active torsions:
REMARK  status: ('A' for Active; 'I' for Inactive)
REMARK    1  A    between atoms: O_3  and  C_10
REMARK    2  A    between atoms: N_7  and  C_28
REMARK    3  A    between atoms: C_8  and  C_16
REMARK    4  A    between atoms: C_11  and  C_17
REMARK    5  A    between atoms: C_13  and  C_20
REMARK    6  A    between atoms: C_17  and  C_21
REMARK    7  A    between atoms: C_17  and  C_22
REMARK                            x       y       z     vdW  Elec       q    Type
REMARK                         _______ _______ _______ _____ _____    ______ ____
ROOT
ATOM      1  S   UNL     1      -5.609  -9.973   6.782  0.00  0.00    -0.057 S 
ATOM      5  N   UNL     1      -7.003  -8.547   8.427  0.00  0.00    -0.229 NA
ATOM      7  N   UNL     1      -7.559  -8.280   6.144  0.00  0.00    -0.327 N 
ATOM      8  C   UNL     1      -3.814 -10.503  10.445  0.00  0.00    -0.022 C 
ATOM      9  C   UNL     1      -5.123 -10.285  11.301  0.00  0.00    +0.033 C 
ATOM     10  C   UNL     1      -4.788 -10.051  12.801  0.00  0.00    +0.123 C 
ATOM     11  C   UNL     1      -3.862 -11.142  13.383  0.00  0.00    +0.029 C 
ATOM     12  C   UNL     1      -2.957 -11.623  11.080  0.00  0.00    +0.008 C 
ATOM     13  C   UNL     1      -6.057  -9.165  10.682  0.00  0.00    +0.042 C 
ATOM     14  C   UNL     1      -2.608 -11.357  12.537  0.00  0.00    +0.007 C 
ATOM     15  C   UNL     1      -4.197 -10.967   9.005  0.00  0.00    +0.051 C 
ATOM     16  C   UNL     1      -2.962  -9.211  10.347  0.00  0.00    +0.012 C 
ATOM     18  C   UNL     1      -6.115  -9.295   9.178  0.00  0.00    +0.057 A 
ATOM     19  C   UNL     1      -5.268 -10.100   8.445  0.00  0.00    +0.015 A 
ATOM     20  C   UNL     1      -7.478  -9.171  11.263  0.00  0.00    +0.014 C 
ATOM     23  C   UNL     1      -6.835  -8.831   7.155  0.00  0.00    +0.158 A 
ATOM     28  C   UNL     1      -8.623  -7.299   6.328  0.00  0.00    +0.127 C 
ATOM     30  H   UNL     1      -7.367  -8.554   5.184  0.00  0.00    +0.148 HD
ENDROOT
BRANCH  10   3
ATOM      3  O   UNL     1      -5.993 -10.067  13.564  0.00  0.00    -0.391 OA
ATOM     29  H   UNL     1      -6.675 -10.520  13.042  0.00  0.00    +0.210 HD
ENDBRANCH  10   3
BRANCH  11  17
ATOM     17  C   UNL     1      -3.460 -10.835  14.831  0.00  0.00    +0.078 C 
ATOM     21  C   UNL     1      -1.956 -10.672  14.957  0.00  0.00    +0.017 C 
BRANCH  17  22
ATOM      2  S   UNL     1      -7.408 -11.173  18.248  0.00  0.00    -0.158 S 
ATOM      4  O   UNL     1      -3.705 -13.128  15.376  0.00  0.00    -0.275 OA
ATOM      6  N   UNL     1      -4.616 -11.603  16.876  0.00  0.00    -0.300 N 
ATOM     22  C   UNL     1      -3.935 -11.963  15.712  0.00  0.00    +0.219 C 
ATOM     24  C   UNL     1      -5.107 -12.645  17.781  0.00  0.00    +0.118 C 
ATOM     25  C   UNL     1      -5.005 -10.236  17.241  0.00  0.00    +0.118 C 
ATOM     26  C   UNL     1      -6.628 -12.740  17.741  0.00  0.00    +0.088 C 
ATOM     27  C   UNL     1      -6.513 -10.046  17.131  0.00  0.00    +0.088 C 
ENDBRANCH  17  22
ENDBRANCH  11  17
TORSDOF 3
ENDMDL
MODEL 2
REMARK VINA RESULT:      -6.5     28.358     31.026
REMARK  Name = 44716630
REMARK  7 active torsions:
REMARK  status: ('A' for Active; 'I' for Inactive)
REMARK    1  A    between atoms: O_3  and  C_10
REMARK    2  A    between atoms: N_7  and  C_28
REMARK    3  A    between atoms: C_8  and  C_16
REMARK    4  A    between atoms: C_11  and  C_17
REMARK    5  A    between atoms: C_13  and  C_20
REMARK    6  A    between atoms: C_17  and  C_21
REMARK    7  A    between atoms: C_17  and  C_22
REMARK                            x       y       z     vdW  Elec       q    Type
REMARK                         _______ _______ _______ _____ _____    ______ ____
ROOT
ATOM      1  S   UNL     1      20.696   6.056  22.238  0.00  0.00    -0.057 S 
ATOM      5  N   UNL     1      19.922   8.347  23.152  0.00  0.00    -0.229 NA
ATOM      7  N   UNL     1      21.859   7.458  24.176  0.00  0.00    -0.327 N 
ATOM      8  C   UNL     1      17.066   6.757  20.434  0.00  0.00    -0.022 C 
ATOM      9  C   UNL     1      17.175   8.332  20.455  0.00  0.00    +0.033 C 
ATOM     10  C   UNL     1      15.801   9.000  20.170  0.00  0.00    +0.123 C 
ATOM     11  C   UNL     1      15.129   8.460  18.888  0.00  0.00    +0.029 C 
ATOM     12  C   UNL     1      16.406   6.298  19.113  0.00  0.00    +0.008 C 
ATOM     13  C   UNL     1      17.871   8.861  21.776  0.00  0.00    +0.042 C 
ATOM     14  C   UNL     1      15.044   6.934  18.871  0.00  0.00    +0.007 C 
ATOM     15  C   UNL     1      18.494   6.128  20.486  0.00  0.00    +0.051 C 
ATOM     16  C   UNL     1      16.235   6.216  21.627  0.00  0.00    +0.012 C 
ATOM     18  C   UNL     1      19.048   7.988  22.142  0.00  0.00    +0.057 A 
ATOM     19  C   UNL     1      19.305   6.764  21.559  0.00  0.00    +0.015 A 
ATOM     20  C   UNL     1      18.317  10.327  21.682  0.00  0.00    +0.014 C 
ATOM     23  C   UNL     1      20.837   7.412  23.281  0.00  0.00    +0.158 A 
ATOM     28  C   UNL     1      22.086   8.549  25.117  0.00  0.00    +0.127 C 
ATOM     30  H   UNL     1      22.526   6.692  24.213  0.00  0.00    +0.148 HD
ENDROOT
BRANCH  10   3
ATOM      3  O   UNL     1      15.983  10.403  19.993  0.00  0.00    -0.391 OA
ATOM     29  H   UNL     1      15.202  10.753  19.532  0.00  0.00    +0.210 HD
ENDBRANCH  10   3
BRANCH  11  17
ATOM     17  C   UNL     1      13.729   9.054  18.685  0.00  0.00    +0.078 C 
ATOM     21  C   UNL     1      12.659   8.142  19.257  0.00  0.00    +0.017 C 
BRANCH  17  22
ATOM      2  S   UNL     1      15.601  12.591  15.313  0.00  0.00    -0.158 S 
ATOM      4  O   UNL     1      13.184   8.289  16.509  0.00  0.00    -0.275 OA
ATOM      6  N   UNL     1      13.670  10.552  16.720  0.00  0.00    -0.300 N 
ATOM     22  C   UNL     1      13.503   9.256  17.207  0.00  0.00    +0.219 C 
ATOM     24  C   UNL     1      13.466  10.825  15.295  0.00  0.00    +0.118 C 
ATOM     25  C   UNL     1      14.160  11.694  17.502  0.00  0.00    +0.118 C 
ATOM     26  C   UNL     1      14.786  11.127  14.596  0.00  0.00    +0.088 C 
ATOM     27  C   UNL     1      15.565  12.095  17.066  0.00  0.00    +0.088 C 
ENDBRANCH  17  22
ENDBRANCH  11  17
TORSDOF 3
ENDMDL
MODEL 3
REMARK VINA RESULT:      -6.3     28.982     31.190
REMARK  Name = 44716630
REMARK  7 active torsions:
REMARK  status: ('A' for Active; 'I' for Inactive)
REMARK    1  A    between atoms: O_3  and  C_10
REMARK    2  A    between atoms: N_7  and  C_28
REMARK    3  A    between atoms: C_8  and  C_16
REMARK    4  A    between atoms: C_11  and  C_17
REMARK    5  A    between atoms: C_13  and  C_20
REMARK    6  A    between atoms: C_17  and  C_21
REMARK    7  A    between atoms: C_17  and  C_22
REMARK                            x       y       z     vdW  Elec       q    Type
REMARK                         _______ _______ _______ _____ _____    ______ ____
ROOT
ATOM      1  S   UNL     1      11.346   9.560  21.559  0.00  0.00    -0.057 S 
ATOM      5  N   UNL     1      13.099  11.439  21.836  0.00  0.00    -0.229 NA
ATOM      7  N   UNL     1      10.844  12.142  21.957  0.00  0.00    -0.327 N 
ATOM      8  C   UNL     1      14.961   7.781  20.733  0.00  0.00    -0.022 C 
ATOM      9  C   UNL     1      15.823   8.726  21.659  0.00  0.00    +0.033 C 
ATOM     10  C   UNL     1      17.340   8.598  21.345  0.00  0.00    +0.123 C 
ATOM     11  C   UNL     1      17.831   7.133  21.355  0.00  0.00    +0.029 C 
ATOM     12  C   UNL     1      15.501   6.334  20.817  0.00  0.00    +0.008 C 
ATOM     13  C   UNL     1      15.298  10.220  21.635  0.00  0.00    +0.042 C 
ATOM     14  C   UNL     1      16.979   6.225  20.469  0.00  0.00    +0.007 C 
ATOM     15  C   UNL     1      13.483   7.757  21.233  0.00  0.00    +0.051 C 
ATOM     16  C   UNL     1      14.983   8.241  19.251  0.00  0.00    +0.012 C 
ATOM     18  C   UNL     1      13.788  10.252  21.669  0.00  0.00    +0.057 A 
ATOM     19  C   UNL     1      12.993   9.141  21.478  0.00  0.00    +0.015 A 
ATOM     20  C   UNL     1      15.865  11.081  22.773  0.00  0.00    +0.014 C 
ATOM     23  C   UNL     1      11.808  11.194  21.808  0.00  0.00    +0.158 A 
ATOM     28  C   UNL     1      11.106  13.561  22.170  0.00  0.00    +0.127 C 
ATOM     30  H   UNL     1       9.865  11.869  21.922  0.00  0.00    +0.148 HD
ENDROOT
BRANCH  10   3
ATOM      3  O   UNL     1      18.090   9.302  22.332  0.00  0.00    -0.391 OA
ATOM     29  H   UNL     1      17.811  10.233  22.316  0.00  0.00    +0.210 HD
ENDBRANCH  10   3
BRANCH  11  17
ATOM     17  C   UNL     1      19.303   7.023  20.938  0.00  0.00    +0.078 C 
ATOM     21  C   UNL     1      19.565   5.727  20.193  0.00  0.00    +0.017 C 
BRANCH  17  22
ATOM      2  S   UNL     1      22.412  10.779  22.838  0.00  0.00    -0.158 S 
ATOM      4  O   UNL     1      19.858   6.403  23.157  0.00  0.00    -0.275 OA
ATOM      6  N   UNL     1      21.263   7.943  22.131  0.00  0.00    -0.300 N 
ATOM     22  C   UNL     1      20.160   7.090  22.178  0.00  0.00    +0.219 C 
ATOM     24  C   UNL     1      22.142   8.060  23.297  0.00  0.00    +0.118 C 
ATOM     25  C   UNL     1      21.580   8.857  21.026  0.00  0.00    +0.118 C 
ATOM     26  C   UNL     1      21.986   9.418  23.972  0.00  0.00    +0.088 C 
ATOM     27  C   UNL     1      21.352  10.308  21.432  0.00  0.00    +0.088 C 
ENDBRANCH  17  22
ENDBRANCH  11  17
TORSDOF 3
ENDMDL
MODEL 4
REMARK VINA RESULT:      -6.1      2.488      7.906
REMARK  Name = 44716630
REMARK  7 active torsions:
REMARK  status: ('A' for Active; 'I' for Inactive)
REMARK    1  A    between atoms: O_3  and  C_10
REMARK    2  A    between atoms: N_7  and  C_28
REMARK    3  A    between atoms: C_8  and  C_16
REMARK    4  A    between atoms: C_11  and  C_17
REMARK    5  A    between atoms: C_13  and  C_20
REMARK    6  A    between atoms: C_17  and  C_21
REMARK    7  A    between atoms: C_17  and  C_22
REMARK                            x       y       z     vdW  Elec       q    Type
REMARK                         _______ _______ _______ _____ _____    ______ ____
ROOT
ATOM      1  S   UNL     1      -2.003 -10.968  15.840  0.00  0.00    -0.057 S 
ATOM      5  N   UNL     1      -4.564 -11.248  16.060  0.00  0.00    -0.229 NA
ATOM      7  N   UNL     1      -3.331 -11.686  18.030  0.00  0.00    -0.327 N 
ATOM      8  C   UNL     1      -3.455 -10.584  12.010  0.00  0.00    -0.022 C 
ATOM      9  C   UNL     1      -4.866 -10.010  12.428  0.00  0.00    +0.033 C 
ATOM     10  C   UNL     1      -5.873 -10.064  11.245  0.00  0.00    +0.123 C 
ATOM     11  C   UNL     1      -5.317  -9.417   9.957  0.00  0.00    +0.029 C 
ATOM     12  C   UNL     1      -2.960  -9.870  10.730  0.00  0.00    +0.008 C 
ATOM     13  C   UNL     1      -5.412 -10.686  13.752  0.00  0.00    +0.042 C 
ATOM     14  C   UNL     1      -3.944  -9.967   9.573  0.00  0.00    +0.007 C 
ATOM     15  C   UNL     1      -2.414 -10.296  13.137  0.00  0.00    +0.051 C 
ATOM     16  C   UNL     1      -3.503 -12.112  11.748  0.00  0.00    +0.012 C 
ATOM     18  C   UNL     1      -4.301 -10.849  14.762  0.00  0.00    +0.057 A 
ATOM     19  C   UNL     1      -2.965 -10.679  14.465  0.00  0.00    +0.015 A 
ATOM     20  C   UNL     1      -6.585  -9.922  14.383  0.00  0.00    +0.014 C 
ATOM     23  C   UNL     1      -3.431 -11.332  16.721  0.00  0.00    +0.158 A 
ATOM     28  C   UNL     1      -4.465 -12.022  18.884  0.00  0.00    +0.127 C 
ATOM     30  H   UNL     1      -2.415 -11.728  18.468  0.00  0.00    +0.148 HD
ENDROOT
BRANCH  10   3
ATOM      3  O   UNL     1      -7.058  -9.353  11.598  0.00  0.00    -0.391 OA
ATOM     29  H   UNL     1      -7.256  -9.541  12.530  0.00  0.00    +0.210 HD
ENDBRANCH  10   3
BRANCH  11  17
ATOM     17  C   UNL     1      -6.283  -9.576   8.776  0.00  0.00    +0.078 C 
ATOM     21  C   UNL     1      -5.536  -9.915   7.500  0.00  0.00    +0.017 C 
BRANCH  17  22
ATOM      2  S   UNL     1     -11.395  -8.486   9.020  0.00  0.00    -0.158 S 
ATOM      4  O   UNL     1      -6.483  -7.216   8.839  0.00  0.00    -0.275 OA
ATOM      6  N   UNL     1      -8.371  -8.397   8.177  0.00  0.00    -0.300 N 
ATOM     22  C   UNL     1      -7.048  -8.287   8.604  0.00  0.00    +0.219 C 
ATOM     24  C   UNL     1      -9.176  -7.189   7.986  0.00  0.00    +0.118 C 
ATOM     25  C   UNL     1      -9.102  -9.658   8.002  0.00  0.00    +0.118 C 
ATOM     26  C   UNL     1     -10.253  -7.067   9.058  0.00  0.00    +0.088 C 
ATOM     27  C   UNL     1     -10.166  -9.831   9.079  0.00  0.00    +0.088 C 
ENDBRANCH  17  22
ENDBRANCH  11  17
TORSDOF 3
ENDMDL
MODEL 5
REMARK VINA RESULT:      -6.1     28.588     31.044
REMARK  Name = 44716630
REMARK  7 active torsions:
REMARK  status: ('A' for Active; 'I' for Inactive)
REMARK    1  A    between atoms: O_3  and  C_10
REMARK    2  A    between atoms: N_7  and  C_28
REMARK    3  A    between atoms: C_8  and  C_16
REMARK    4  A    between atoms: C_11  and  C_17
REMARK    5  A    between atoms: C_13  and  C_20
REMARK    6  A    between atoms: C_17  and  C_21
REMARK    7  A    between atoms: C_17  and  C_22
REMARK                            x       y       z     vdW  Elec       q    Type
REMARK                         _______ _______ _______ _____ _____    ______ ____
ROOT
ATOM      1  S   UNL     1      20.190   5.358  20.472  0.00  0.00    -0.057 S 
ATOM      5  N   UNL     1      20.123   7.355  22.111  0.00  0.00    -0.229 NA
ATOM      7  N   UNL     1      22.059   6.005  22.250  0.00  0.00    -0.327 N 
ATOM      8  C   UNL     1      16.412   6.936  20.080  0.00  0.00    -0.022 C 
ATOM      9  C   UNL     1      16.815   8.417  20.454  0.00  0.00    +0.033 C 
ATOM     10  C   UNL     1      15.563   9.282  20.772  0.00  0.00    +0.123 C 
ATOM     11  C   UNL     1      14.491   9.212  19.661  0.00  0.00    +0.029 C 
ATOM     12  C   UNL     1      15.356   6.953  18.950  0.00  0.00    +0.008 C 
ATOM     13  C   UNL     1      17.917   8.462  21.591  0.00  0.00    +0.042 C 
ATOM     14  C   UNL     1      14.123   7.775  19.296  0.00  0.00    +0.007 C 
ATOM     15  C   UNL     1      17.661   6.170  19.542  0.00  0.00    +0.051 C 
ATOM     16  C   UNL     1      15.836   6.166  21.297  0.00  0.00    +0.012 C 
ATOM     18  C   UNL     1      18.964   7.400  21.357  0.00  0.00    +0.057 A 
ATOM     19  C   UNL     1      18.827   6.377  20.442  0.00  0.00    +0.015 A 
ATOM     20  C   UNL     1      18.588   9.837  21.730  0.00  0.00    +0.014 C 
ATOM     23  C   UNL     1      20.849   6.330  21.723  0.00  0.00    +0.158 A 
ATOM     28  C   UNL     1      22.723   6.745  23.317  0.00  0.00    +0.127 C 
ATOM     30  H   UNL     1      22.558   5.193  21.894  0.00  0.00    +0.148 HD
ENDROOT
BRANCH  10   3
ATOM      3  O   UNL     1      15.951  10.649  20.899  0.00  0.00    -0.391 OA
ATOM     29  H   UNL     1      16.730  10.689  21.478  0.00  0.00    +0.210 HD
ENDBRANCH  10   3
BRANCH  11  17
ATOM     17  C   UNL     1      13.224   9.986  20.043  0.00  0.00    +0.078 C 
ATOM     21  C   UNL     1      11.975   9.186  19.721  0.00  0.00    +0.017 C 
BRANCH  17  22
ATOM      2  S   UNL     1      13.777  14.943  21.627  0.00  0.00    -0.158 S 
ATOM      4  O   UNL     1      13.532  11.302  18.097  0.00  0.00    -0.275 OA
ATOM      6  N   UNL     1      12.829  12.426  20.005  0.00  0.00    -0.300 N 
ATOM     22  C   UNL     1      13.212  11.292  19.289  0.00  0.00    +0.219 C 
ATOM     24  C   UNL     1      12.793  13.730  19.339  0.00  0.00    +0.118 C 
ATOM     25  C   UNL     1      12.556  12.464  21.447  0.00  0.00    +0.118 C 
ATOM     26  C   UNL     1      13.913  14.636  19.836  0.00  0.00    +0.088 C 
ATOM     27  C   UNL     1      13.652  13.216  22.194  0.00  0.00    +0.088 C 
ENDBRANCH  17  22
ENDBRANCH  11  17
TORSDOF 3
ENDMDL
MODEL 6
REMARK VINA RESULT:      -6.0     20.419     21.428
REMARK  Name = 44716630
REMARK  7 active torsions:
REMARK  status: ('A' for Active; 'I' for Inactive)
REMARK    1  A    between atoms: O_3  and  C_10
REMARK    2  A    between atoms: N_7  and  C_28
REMARK    3  A    between atoms: C_8  and  C_16
REMARK    4  A    between atoms: C_11  and  C_17
REMARK    5  A    between atoms: C_13  and  C_20
REMARK    6  A    between atoms: C_17  and  C_21
REMARK    7  A    between atoms: C_17  and  C_22
REMARK                            x       y       z     vdW  Elec       q    Type
REMARK                         _______ _______ _______ _____ _____    ______ ____
ROOT
ATOM      1  S   UNL     1     -10.457   8.453  16.804  0.00  0.00    -0.057 S 
ATOM      5  N   UNL     1     -12.826   9.288  16.190  0.00  0.00    -0.229 NA
ATOM      7  N   UNL     1     -11.125   9.870  14.654  0.00  0.00    -0.327 N 
ATOM      8  C   UNL     1     -12.783   7.578  20.081  0.00  0.00    -0.022 C 
ATOM      9  C   UNL     1     -14.134   7.403  19.281  0.00  0.00    +0.033 C 
ATOM     10  C   UNL     1     -15.363   7.411  20.233  0.00  0.00    +0.123 C 
ATOM     11  C   UNL     1     -15.221   6.409  21.400  0.00  0.00    +0.029 C 
ATOM     12  C   UNL     1     -12.709   6.526  21.214  0.00  0.00    +0.008 C 
ATOM     13  C   UNL     1     -14.253   8.438  18.088  0.00  0.00    +0.042 C 
ATOM     14  C   UNL     1     -13.903   6.576  22.156  0.00  0.00    +0.007 C 
ATOM     15  C   UNL     1     -11.571   7.327  19.132  0.00  0.00    +0.051 C 
ATOM     16  C   UNL     1     -12.653   8.994  20.701  0.00  0.00    +0.012 C 
ATOM     18  C   UNL     1     -12.930   8.580  17.374  0.00  0.00    +0.057 A 
ATOM     19  C   UNL     1     -11.739   8.084  17.861  0.00  0.00    +0.015 A 
ATOM     20  C   UNL     1     -15.356   8.078  17.081  0.00  0.00    +0.014 C 
ATOM     23  C   UNL     1     -11.573   9.276  15.792  0.00  0.00    +0.158 A 
ATOM     28  C   UNL     1     -11.968  10.600  13.715  0.00  0.00    +0.127 C 
ATOM     30  H   UNL     1     -10.138   9.815  14.417  0.00  0.00    +0.148 HD
ENDROOT
BRANCH  10   3
ATOM      3  O   UNL     1     -16.532   7.046  19.502  0.00  0.00    -0.391 OA
ATOM     29  H   UNL     1     -16.627   6.080  19.547  0.00  0.00    +0.210 HD
ENDBRANCH  10   3
BRANCH  11  17
ATOM     17  C   UNL     1     -16.394   6.510  22.383  0.00  0.00    +0.078 C 
ATOM     21  C   UNL     1     -16.090   7.493  23.499  0.00  0.00    +0.017 C 
BRANCH  17  22
ATOM      2  S   UNL     1     -19.082   2.414  20.547  0.00  0.00    -0.158 S 
ATOM      4  O   UNL     1     -15.859   4.659  23.763  0.00  0.00    -0.275 OA
ATOM      6  N   UNL     1     -17.822   4.498  22.530  0.00  0.00    -0.300 N 
ATOM     22  C   UNL     1     -16.660   5.141  22.957  0.00  0.00    +0.219 C 
ATOM     24  C   UNL     1     -18.146   3.165  23.044  0.00  0.00    +0.118 C 
ATOM     25  C   UNL     1     -18.729   4.994  21.488  0.00  0.00    +0.118 C 
ATOM     26  C   UNL     1     -17.982   2.101  21.965  0.00  0.00    +0.088 C 
ATOM     27  C   UNL     1     -18.629   4.149  20.224  0.00  0.00    +0.088 C 
ENDBRANCH  17  22
ENDBRANCH  11  17
TORSDOF 3
ENDMDL
MODEL 7
REMARK VINA RESULT:      -5.9     27.696     29.216
REMARK  Name = 44716630
REMARK  7 active torsions:
REMARK  status: ('A' for Active; 'I' for Inactive)
REMARK    1  A    between atoms: O_3  and  C_10
REMARK    2  A    between atoms: N_7  and  C_28
REMARK    3  A    between atoms: C_8  and  C_16
REMARK    4  A    between atoms: C_11  and  C_17
REMARK    5  A    between atoms: C_13  and  C_20
REMARK    6  A    between atoms: C_17  and  C_21
REMARK    7  A    between atoms: C_17  and  C_22
REMARK                            x       y       z     vdW  Elec       q    Type
REMARK                         _______ _______ _______ _____ _____    ______ ____
ROOT
ATOM      1  S   UNL     1      15.011  13.042  12.927  0.00  0.00    -0.057 S 
ATOM      5  N   UNL     1      16.628  13.214  14.937  0.00  0.00    -0.229 NA
ATOM      7  N   UNL     1      17.240  14.488  13.041  0.00  0.00    -0.327 N 
ATOM      8  C   UNL     1      13.671  10.238  15.622  0.00  0.00    -0.022 C 
ATOM      9  C   UNL     1      14.180  10.995  16.912  0.00  0.00    +0.033 C 
ATOM     10  C   UNL     1      14.176  10.063  18.155  0.00  0.00    +0.123 C 
ATOM     11  C   UNL     1      12.819   9.356  18.368  0.00  0.00    +0.029 C 
ATOM     12  C   UNL     1      12.301   9.580  15.911  0.00  0.00    +0.008 C 
ATOM     13  C   UNL     1      15.570  11.714  16.667  0.00  0.00    +0.042 C 
ATOM     14  C   UNL     1      12.328   8.642  17.109  0.00  0.00    +0.007 C 
ATOM     15  C   UNL     1      13.463  11.258  14.459  0.00  0.00    +0.051 C 
ATOM     16  C   UNL     1      14.667   9.143  15.159  0.00  0.00    +0.012 C 
ATOM     18  C   UNL     1      15.594  12.374  15.308  0.00  0.00    +0.057 A 
ATOM     19  C   UNL     1      14.647  12.150  14.331  0.00  0.00    +0.015 A 
ATOM     20  C   UNL     1      15.921  12.741  17.754  0.00  0.00    +0.014 C 
ATOM     23  C   UNL     1      16.419  13.634  13.709  0.00  0.00    +0.158 A 
ATOM     28  C   UNL     1      18.466  15.057  13.590  0.00  0.00    +0.127 C 
ATOM     30  H   UNL     1      17.008  14.765  12.091  0.00  0.00    +0.148 HD
ENDROOT
BRANCH  10   3
ATOM      3  O   UNL     1      14.440  10.833  19.326  0.00  0.00    -0.391 OA
ATOM     29  H   UNL     1      13.625  10.870  19.854  0.00  0.00    +0.210 HD
ENDBRANCH  10   3
BRANCH  11  17
ATOM     17  C   UNL     1      12.870   8.363  19.536  0.00  0.00    +0.078 C 
ATOM     21  C   UNL     1      12.847   6.930  19.036  0.00  0.00    +0.017 C 
BRANCH  17  22
ATOM      2  S   UNL     1      12.270  11.427  23.734  0.00  0.00    -0.158 S 
ATOM      4  O   UNL     1      10.547   8.461  19.992  0.00  0.00    -0.275 OA
ATOM      6  N   UNL     1      11.970   9.018  21.742  0.00  0.00    -0.300 N 
ATOM     22  C   UNL     1      11.688   8.617  20.437  0.00  0.00    +0.219 C 
ATOM     24  C   UNL     1      10.873   9.282  22.675  0.00  0.00    +0.118 C 
ATOM     25  C   UNL     1      13.308   9.323  22.264  0.00  0.00    +0.118 C 
ATOM     26  C   UNL     1      10.749  10.772  22.975  0.00  0.00    +0.088 C 
ATOM     27  C   UNL     1      13.474  10.818  22.509  0.00  0.00    +0.088 C 
ENDBRANCH  17  22
ENDBRANCH  11  17
TORSDOF 3
ENDMDL
MODEL 8
REMARK VINA RESULT:      -5.7     21.575     23.878
REMARK  Name = 44716630
REMARK  7 active torsions:
REMARK  status: ('A' for Active; 'I' for Inactive)
REMARK    1  A    between atoms: O_3  and  C_10
REMARK    2  A    between atoms: N_7  and  C_28
REMARK    3  A    between atoms: C_8  and  C_16
REMARK    4  A    between atoms: C_11  and  C_17
REMARK    5  A    between atoms: C_13  and  C_20
REMARK    6  A    between atoms: C_17  and  C_21
REMARK    7  A    between atoms: C_17  and  C_22
REMARK                            x       y       z     vdW  Elec       q    Type
REMARK                         _______ _______ _______ _____ _____    ______ ____
ROOT
ATOM      1  S   UNL     1     -13.386   5.570  21.969  0.00  0.00    -0.057 S 
ATOM      5  N   UNL     1     -15.282   6.557  20.515  0.00  0.00    -0.229 NA
ATOM      7  N   UNL     1     -15.909   4.732  21.883  0.00  0.00    -0.327 N 
ATOM      8  C   UNL     1     -11.537   8.295  19.504  0.00  0.00    -0.022 C 
ATOM      9  C   UNL     1     -12.789   9.245  19.343  0.00  0.00    +0.033 C 
ATOM     10  C   UNL     1     -12.597  10.240  18.164  0.00  0.00    +0.123 C 
ATOM     11  C   UNL     1     -11.262  11.013  18.245  0.00  0.00    +0.029 C 
ATOM     12  C   UNL     1     -10.247   9.144  19.600  0.00  0.00    +0.008 C 
ATOM     13  C   UNL     1     -14.145   8.430  19.266  0.00  0.00    +0.042 C 
ATOM     14  C   UNL     1     -10.060  10.085  18.419  0.00  0.00    +0.007 C 
ATOM     15  C   UNL     1     -11.660   7.480  20.829  0.00  0.00    +0.051 C 
ATOM     16  C   UNL     1     -11.401   7.306  18.316  0.00  0.00    +0.012 C 
ATOM     18  C   UNL     1     -14.141   7.299  20.267  0.00  0.00    +0.057 A 
ATOM     19  C   UNL     1     -13.017   6.883  20.949  0.00  0.00    +0.015 A 
ATOM     20  C   UNL     1     -15.390   9.305  19.470  0.00  0.00    +0.014 C 
ATOM     23  C   UNL     1     -15.005   5.628  21.404  0.00  0.00    +0.158 A 
ATOM     28  C   UNL     1     -17.309   4.675  21.481  0.00  0.00    +0.127 C 
ATOM     30  H   UNL     1     -15.614   4.044  22.571  0.00  0.00    +0.148 HD
ENDROOT
BRANCH  10   3
ATOM      3  O   UNL     1     -13.647  11.206  18.185  0.00  0.00    -0.391 OA
ATOM     29  H   UNL     1     -14.281  10.977  17.486  0.00  0.00    +0.210 HD
ENDBRANCH  10   3
BRANCH  11  17
ATOM     17  C   UNL     1     -11.047  11.909  17.020  0.00  0.00    +0.078 C 
ATOM     21  C   UNL     1      -9.611  11.837  16.534  0.00  0.00    +0.017 C 
BRANCH  17  22
ATOM      2  S   UNL     1     -15.062  14.986  15.682  0.00  0.00    -0.158 S 
ATOM      4  O   UNL     1     -10.987  13.787  18.463  0.00  0.00    -0.275 OA
ATOM      6  N   UNL     1     -12.176  14.041  16.482  0.00  0.00    -0.300 N 
ATOM     22  C   UNL     1     -11.397  13.328  17.394  0.00  0.00    +0.219 C 
ATOM     24  C   UNL     1     -12.556  15.424  16.777  0.00  0.00    +0.118 C 
ATOM     25  C   UNL     1     -12.773  13.485  15.262  0.00  0.00    +0.118 C 
ATOM     26  C   UNL     1     -14.043  15.535  17.089  0.00  0.00    +0.088 C 
ATOM     27  C   UNL     1     -14.286  13.361  15.398  0.00  0.00    +0.088 C 
ENDBRANCH  17  22
ENDBRANCH  11  17
TORSDOF 3
ENDMDL
MODEL 9
REMARK VINA RESULT:      -5.7     22.797     26.293
REMARK  Name = 44716630
REMARK  7 active torsions:
REMARK  status: ('A' for Active; 'I' for Inactive)
REMARK    1  A    between atoms: O_3  and  C_10
REMARK    2  A    between atoms: N_7  and  C_28
REMARK    3  A    between atoms: C_8  and  C_16
REMARK    4  A    between atoms: C_11  and  C_17
REMARK    5  A    between atoms: C_13  and  C_20
REMARK    6  A    between atoms: C_17  and  C_21
REMARK    7  A    between atoms: C_17  and  C_22
REMARK                            x       y       z     vdW  Elec       q    Type
REMARK                         _______ _______ _______ _____ _____    ______ ____
ROOT
ATOM      1  S   UNL     1     -16.781   0.890  27.148  0.00  0.00    -0.057 S 
ATOM      5  N   UNL     1     -16.526   3.429  26.731  0.00  0.00    -0.229 NA
ATOM      7  N   UNL     1     -17.139   2.155  24.835  0.00  0.00    -0.327 N 
ATOM      8  C   UNL     1     -15.222   2.396  30.643  0.00  0.00    -0.022 C 
ATOM      9  C   UNL     1     -15.861   3.834  30.501  0.00  0.00    +0.033 C 
ATOM     10  C   UNL     1     -15.203   4.847  31.479  0.00  0.00    +0.123 C 
ATOM     11  C   UNL     1     -15.180   4.340  32.938  0.00  0.00    +0.029 C 
ATOM     12  C   UNL     1     -15.258   1.955  32.125  0.00  0.00    +0.008 C 
ATOM     13  C   UNL     1     -15.877   4.329  28.996  0.00  0.00    +0.042 C 
ATOM     14  C   UNL     1     -14.575   2.942  33.061  0.00  0.00    +0.007 C 
ATOM     15  C   UNL     1     -16.060   1.363  29.827  0.00  0.00    +0.051 C 
ATOM     16  C   UNL     1     -13.754   2.361  30.143  0.00  0.00    +0.012 C 
ATOM     18  C   UNL     1     -16.268   3.201  28.071  0.00  0.00    +0.057 A 
ATOM     19  C   UNL     1     -16.335   1.879  28.459  0.00  0.00    +0.015 A 
ATOM     20  C   UNL     1     -16.797   5.537  28.765  0.00  0.00    +0.014 C 
ATOM     23  C   UNL     1     -16.819   2.286  26.150  0.00  0.00    +0.158 A 
ATOM     28  C   UNL     1     -17.202   3.260  23.885  0.00  0.00    +0.127 C 
ATOM     30  H   UNL     1     -17.353   1.234  24.462  0.00  0.00    +0.148 HD
ENDROOT
BRANCH  10   3
ATOM      3  O   UNL     1     -15.942   6.067  31.467  0.00  0.00    -0.391 OA
ATOM     29  H   UNL     1     -16.557   6.039  30.715  0.00  0.00    +0.210 HD
ENDBRANCH  10   3
BRANCH  11  17
ATOM     17  C   UNL     1     -14.433   5.307  33.865  0.00  0.00    +0.078 C 
ATOM     21  C   UNL     1     -14.241   4.704  35.245  0.00  0.00    +0.017 C 
BRANCH  17  22
ATOM      2  S   UNL     1     -13.595  10.091  31.920  0.00  0.00    -0.158 S 
ATOM      4  O   UNL     1     -16.442   6.529  34.151  0.00  0.00    -0.275 OA
ATOM      6  N   UNL     1     -14.507   7.777  33.837  0.00  0.00    -0.300 N 
ATOM     22  C   UNL     1     -15.224   6.587  33.964  0.00  0.00    +0.219 C 
ATOM     24  C   UNL     1     -15.208   9.060  33.922  0.00  0.00    +0.118 C 
ATOM     25  C   UNL     1     -13.082   7.875  33.499  0.00  0.00    +0.118 C 
ATOM     26  C   UNL     1     -15.265   9.751  32.565  0.00  0.00    +0.088 C 
ATOM     27  C   UNL     1     -12.888   8.420  32.089  0.00  0.00    +0.088 C 
ENDBRANCH  17  22
ENDBRANCH  11  17
TORSDOF 3
ENDMDL
MODEL 10
REMARK VINA RESULT:      -5.6     24.100     26.505
REMARK  Name = 44716630
REMARK  7 active torsions:
REMARK  status: ('A' for Active; 'I' for Inactive)
REMARK    1  A    between atoms: O_3  and  C_10
REMARK    2  A    between atoms: N_7  and  C_28
REMARK    3  A    between atoms: C_8  and  C_16
REMARK    4  A    between atoms: C_11  and  C_17
REMARK    5  A    between atoms: C_13  and  C_20
REMARK    6  A    between atoms: C_17  and  C_21
REMARK    7  A    between atoms: C_17  and  C_22
REMARK                            x       y       z     vdW  Elec       q    Type
REMARK                         _______ _______ _______ _____ _____    ______ ____
ROOT
ATOM      1  S   UNL     1      14.801   4.684  -2.159  0.00  0.00    -0.057 S 
ATOM      5  N   UNL     1      16.082   5.889  -0.264  0.00  0.00    -0.229 NA
ATOM      7  N   UNL     1      17.310   5.561  -2.259  0.00  0.00    -0.327 N 
ATOM      8  C   UNL     1      12.326   4.459   1.119  0.00  0.00    -0.022 C 
ATOM      9  C   UNL     1      12.834   5.791   1.799  0.00  0.00    +0.033 C 
ATOM     10  C   UNL     1      12.377   5.881   3.282  0.00  0.00    +0.123 C 
ATOM     11  C   UNL     1      10.858   5.659   3.454  0.00  0.00    +0.029 C 
ATOM     12  C   UNL     1      10.797   4.324   1.316  0.00  0.00    +0.008 C 
ATOM     13  C   UNL     1      14.393   5.997   1.605  0.00  0.00    +0.042 C 
ATOM     14  C   UNL     1      10.375   4.377   2.777  0.00  0.00    +0.007 C 
ATOM     15  C   UNL     1      12.595   4.515  -0.417  0.00  0.00    +0.051 C 
ATOM     16  C   UNL     1      13.022   3.204   1.706  0.00  0.00    +0.012 C 
ATOM     18  C   UNL     1      14.807   5.625   0.201  0.00  0.00    +0.057 A 
ATOM     19  C   UNL     1      13.992   4.954  -0.686  0.00  0.00    +0.015 A 
ATOM     20  C   UNL     1      14.860   7.424   1.928  0.00  0.00    +0.014 C 
ATOM     23  C   UNL     1      16.188   5.449  -1.499  0.00  0.00    +0.158 A 
ATOM     28  C   UNL     1      18.552   6.184  -1.814  0.00  0.00    +0.127 C 
ATOM     30  H   UNL     1      17.311   5.194  -3.207  0.00  0.00    +0.148 HD
ENDROOT
BRANCH  10   3
ATOM      3  O   UNL     1      12.676   7.179   3.792  0.00  0.00    -0.391 OA
ATOM     29  H   UNL     1      11.848   7.576   4.109  0.00  0.00    +0.210 HD
ENDBRANCH  10   3
BRANCH  11  17
ATOM     17  C   UNL     1      10.448   5.646   4.931  0.00  0.00    +0.078 C 
ATOM     21  C   UNL     1       9.796   4.328   5.307  0.00  0.00    +0.017 C 
BRANCH  17  22
ATOM      2  S   UNL     1      11.032  10.241   7.367  0.00  0.00    -0.158 S 
ATOM      4  O   UNL     1       8.547   6.956   4.398  0.00  0.00    -0.275 OA
ATOM      6  N   UNL     1       9.742   7.588   6.288  0.00  0.00    -0.300 N 
ATOM     22  C   UNL     1       9.491   6.786   5.175  0.00  0.00    +0.219 C 
ATOM     24  C   UNL     1       8.855   8.714   6.589  0.00  0.00    +0.118 C 
ATOM     25  C   UNL     1      10.919   7.482   7.160  0.00  0.00    +0.118 C 
ATOM     26  C   UNL     1       9.546  10.047   6.329  0.00  0.00    +0.088 C 
ATOM     27  C   UNL     1      11.857   8.667   6.963  0.00  0.00    +0.088 C 
ENDBRANCH  17  22
ENDBRANCH  11  17
TORSDOF 3
ENDMDL
