MODEL 1
REMARK VINA RESULT:      -6.1      0.000      0.000
REMARK  Name = 26743157
REMARK  8 active torsions:
REMARK  status: ('A' for Active; 'I' for Inactive)
REMARK    1  A    between atoms: O_3  and  C_24
REMARK    2  A    between atoms: O_3  and  C_25
REMARK    3  A    between atoms: N_5  and  C_14
REMARK    4  A    between atoms: C_7  and  C_11
REMARK    5  A    between atoms: C_8  and  C_13
REMARK    6  A    between atoms: C_11  and  C_17
REMARK    7  A    between atoms: C_13  and  C_21
REMARK    8  A    between atoms: C_23  and  C_24
REMARK                            x       y       z     vdW  Elec       q    Type
REMARK                         _______ _______ _______ _____ _____    ______ ____
ROOT
ATOM      4  N   UNL     1      10.011   7.142  22.048  0.00  0.00    -0.316 NA
ATOM      7  C   UNL     1      12.151   8.855  20.956  0.00  0.00    +0.004 C 
ATOM      8  C   UNL     1      11.703   7.539  20.275  0.00  0.00    +0.012 C 
ATOM      9  C   UNL     1      10.994   9.396  21.813  0.00  0.00    +0.019 C 
ATOM     10  C   UNL     1      11.112   6.547  21.290  0.00  0.00    +0.085 C 
ATOM     12  C   UNL     1      10.433   8.342  22.767  0.00  0.00    +0.081 C 
ATOM     31  H   UNL     1       9.652   6.459  22.715  0.00  0.00    +0.122 HD
ENDROOT
BRANCH   7  11
ATOM     11  C   UNL     1      13.431   8.720  21.790  0.00  0.00    +0.099 C 
BRANCH  11  17
ATOM      1  O   UNL     1      14.637  10.365  23.091  0.00  0.00    -0.276 OA
ATOM      5  N   UNL     1      14.026  10.864  20.905  0.00  0.00    -0.312 N 
ATOM     17  C   UNL     1      14.102  10.056  22.030  0.00  0.00    +0.214 C 
ATOM     32  H   UNL     1      13.643  10.482  20.048  0.00  0.00    +0.149 HD
BRANCH   5  14
ATOM     14  C   UNL     1      14.582  12.198  20.852  0.00  0.00    +0.073 C 
ATOM     15  C   UNL     1      14.925  12.595  19.412  0.00  0.00    +0.022 C 
ATOM     16  C   UNL     1      13.637  13.215  21.499  0.00  0.00    +0.022 C 
ATOM     18  C   UNL     1      13.679  12.861  18.567  0.00  0.00    +0.002 C 
ATOM     19  C   UNL     1      12.394  13.481  20.650  0.00  0.00    +0.002 C 
ATOM     20  C   UNL     1      12.760  13.885  19.226  0.00  0.00    +0.000 C 
ENDBRANCH   5  14
ENDBRANCH  11  17
ENDBRANCH   7  11
BRANCH   8  13
ATOM     13  C   UNL     1      12.816   6.877  19.461  0.00  0.00    +0.064 C 
BRANCH  13  21
ATOM      2  O   UNL     1      12.458   8.348  16.195  0.00  0.00    -0.356 OA
ATOM      6  N   UNL     1      11.950   7.697  17.313  0.00  0.00    -0.083 NA
ATOM     21  C   UNL     1      12.996   7.550  18.131  0.00  0.00    +0.084 A 
ATOM     22  C   UNL     1      14.178   8.084  17.589  0.00  0.00    +0.074 A 
ATOM     23  C   UNL     1      13.786   8.573  16.371  0.00  0.00    +0.175 A 
BRANCH  23  24
ATOM     24  C   UNL     1      14.485   9.258  15.278  0.00  0.00    +0.306 C 
BRANCH  24   3
ATOM      3  O   UNL     1      13.814  10.477  14.945  0.00  0.00    -0.484 OA
BRANCH   3  25
ATOM     25  C   UNL     1      14.504  11.633  15.174  0.00  0.00    +0.121 A 
ATOM     26  C   UNL     1      15.786  11.584  15.719  0.00  0.00    +0.045 A 
ATOM     27  C   UNL     1      13.925  12.863  14.862  0.00  0.00    +0.045 A 
ATOM     28  C   UNL     1      16.491  12.765  15.953  0.00  0.00    +0.004 A 
ATOM     29  C   UNL     1      14.629  14.045  15.096  0.00  0.00    +0.004 A 
ATOM     30  C   UNL     1      15.912  13.996  15.641  0.00  0.00    +0.000 A 
ENDBRANCH   3  25
ENDBRANCH  24   3
ENDBRANCH  23  24
ENDBRANCH  13  21
ENDBRANCH   8  13
TORSDOF 8
ENDMDL
MODEL 2
REMARK VINA RESULT:      -6.0     26.976     28.935
REMARK  Name = 26743157
REMARK  8 active torsions:
REMARK  status: ('A' for Active; 'I' for Inactive)
REMARK    1  A    between atoms: O_3  and  C_24
REMARK    2  A    between atoms: O_3  and  C_25
REMARK    3  A    between atoms: N_5  and  C_14
REMARK    4  A    between atoms: C_7  and  C_11
REMARK    5  A    between atoms: C_8  and  C_13
REMARK    6  A    between atoms: C_11  and  C_17
REMARK    7  A    between atoms: C_13  and  C_21
REMARK    8  A    between atoms: C_23  and  C_24
REMARK                            x       y       z     vdW  Elec       q    Type
REMARK                         _______ _______ _______ _____ _____    ______ ____
ROOT
ATOM      4  N   UNL     1      -6.167 -12.430  19.676  0.00  0.00    -0.316 NA
ATOM      7  C   UNL     1      -6.776 -11.184  17.071  0.00  0.00    +0.004 C 
ATOM      8  C   UNL     1      -5.335 -11.309  17.623  0.00  0.00    +0.012 C 
ATOM      9  C   UNL     1      -7.653 -12.275  17.709  0.00  0.00    +0.019 C 
ATOM     10  C   UNL     1      -5.317 -11.357  19.159  0.00  0.00    +0.085 C 
ATOM     12  C   UNL     1      -7.552 -12.287  19.234  0.00  0.00    +0.081 C 
ATOM     31  H   UNL     1      -6.136 -12.424  20.695  0.00  0.00    +0.122 HD
ENDROOT
BRANCH   7  11
ATOM     11  C   UNL     1      -7.401  -9.797  17.267  0.00  0.00    +0.099 C 
BRANCH  11  17
ATOM      1  O   UNL     1      -9.242  -8.703  16.143  0.00  0.00    -0.276 OA
ATOM      5  N   UNL     1      -7.619  -9.790  14.883  0.00  0.00    -0.312 N 
ATOM     17  C   UNL     1      -8.205  -9.357  16.063  0.00  0.00    +0.214 C 
ATOM     32  H   UNL     1      -6.715 -10.246  14.920  0.00  0.00    +0.149 HD
BRANCH   5  14
ATOM     14  C   UNL     1      -8.176  -9.513  13.577  0.00  0.00    +0.073 C 
ATOM     15  C   UNL     1      -7.069  -9.345  12.530  0.00  0.00    +0.022 C 
ATOM     16  C   UNL     1      -9.173 -10.600  13.161  0.00  0.00    +0.022 C 
ATOM     18  C   UNL     1      -6.387 -10.669  12.184  0.00  0.00    +0.002 C 
ATOM     19  C   UNL     1      -8.487 -11.921  12.813  0.00  0.00    +0.002 C 
ATOM     20  C   UNL     1      -7.398 -11.730  11.763  0.00  0.00    +0.000 C 
ENDBRANCH   5  14
ENDBRANCH  11  17
ENDBRANCH   7  11
BRANCH   8  13
ATOM     13  C   UNL     1      -4.400 -10.213  17.109  0.00  0.00    +0.064 C 
BRANCH  13  21
ATOM      2  O   UNL     1      -1.643 -11.328  15.080  0.00  0.00    -0.356 OA
ATOM      6  N   UNL     1      -2.176 -10.819  16.258  0.00  0.00    -0.083 NA
ATOM     21  C   UNL     1      -3.490 -10.731  16.032  0.00  0.00    +0.084 A 
ATOM     22  C   UNL     1      -3.840 -11.165  14.743  0.00  0.00    +0.074 A 
ATOM     23  C   UNL     1      -2.644 -11.530  14.185  0.00  0.00    +0.175 A 
BRANCH  23  24
ATOM     24  C   UNL     1      -2.254 -12.069  12.876  0.00  0.00    +0.306 C 
BRANCH  24   3
ATOM      3  O   UNL     1      -1.883 -11.006  11.992  0.00  0.00    -0.484 OA
BRANCH   3  25
ATOM     25  C   UNL     1      -2.759 -10.720  10.985  0.00  0.00    +0.121 A 
ATOM     26  C   UNL     1      -2.942  -9.400  10.573  0.00  0.00    +0.045 A 
ATOM     27  C   UNL     1      -3.472 -11.747  10.367  0.00  0.00    +0.045 A 
ATOM     28  C   UNL     1      -3.836  -9.107   9.543  0.00  0.00    +0.004 A 
ATOM     29  C   UNL     1      -4.367 -11.455   9.338  0.00  0.00    +0.004 A 
ATOM     30  C   UNL     1      -4.549 -10.135   8.926  0.00  0.00    +0.000 A 
ENDBRANCH   3  25
ENDBRANCH  24   3
ENDBRANCH  23  24
ENDBRANCH  13  21
ENDBRANCH   8  13
TORSDOF 8
ENDMDL
MODEL 3
REMARK VINA RESULT:      -5.7     12.579     16.129
REMARK  Name = 26743157
REMARK  8 active torsions:
REMARK  status: ('A' for Active; 'I' for Inactive)
REMARK    1  A    between atoms: O_3  and  C_24
REMARK    2  A    between atoms: O_3  and  C_25
REMARK    3  A    between atoms: N_5  and  C_14
REMARK    4  A    between atoms: C_7  and  C_11
REMARK    5  A    between atoms: C_8  and  C_13
REMARK    6  A    between atoms: C_11  and  C_17
REMARK    7  A    between atoms: C_13  and  C_21
REMARK    8  A    between atoms: C_23  and  C_24
REMARK                            x       y       z     vdW  Elec       q    Type
REMARK                         _______ _______ _______ _____ _____    ______ ____
ROOT
ATOM      4  N   UNL     1      15.855   8.658   4.684  0.00  0.00    -0.316 NA
ATOM      7  C   UNL     1      13.394   7.803   6.069  0.00  0.00    +0.004 C 
ATOM      8  C   UNL     1      13.458   8.024   4.538  0.00  0.00    +0.012 C 
ATOM      9  C   UNL     1      14.806   7.489   6.590  0.00  0.00    +0.019 C 
ATOM     10  C   UNL     1      14.545   9.043   4.158  0.00  0.00    +0.085 C 
ATOM     12  C   UNL     1      15.837   8.522   6.139  0.00  0.00    +0.081 C 
ATOM     31  H   UNL     1      16.545   9.360   4.419  0.00  0.00    +0.122 HD
ENDROOT
BRANCH   7  11
ATOM     11  C   UNL     1      12.773   8.973   6.842  0.00  0.00    +0.099 C 
BRANCH  11  17
ATOM      1  O   UNL     1      10.655   9.464   7.903  0.00  0.00    -0.276 OA
ATOM      5  N   UNL     1      11.111   7.291   7.216  0.00  0.00    -0.312 N 
ATOM     17  C   UNL     1      11.400   8.637   7.384  0.00  0.00    +0.214 C 
ATOM     32  H   UNL     1      11.755   6.709   6.693  0.00  0.00    +0.149 HD
BRANCH   5  14
ATOM     14  C   UNL     1       9.866   6.692   7.643  0.00  0.00    +0.073 C 
ATOM     15  C   UNL     1       8.670   7.344   6.942  0.00  0.00    +0.022 C 
ATOM     16  C   UNL     1       9.880   5.175   7.422  0.00  0.00    +0.022 C 
ATOM     18  C   UNL     1       8.581   6.963   5.463  0.00  0.00    +0.002 C 
ATOM     19  C   UNL     1       9.789   4.799   5.944  0.00  0.00    +0.002 C 
ATOM     20  C   UNL     1       8.586   5.451   5.270  0.00  0.00    +0.000 C 
ENDBRANCH   5  14
ENDBRANCH  11  17
ENDBRANCH   7  11
BRANCH   8  13
ATOM     13  C   UNL     1      12.112   8.424   3.933  0.00  0.00    +0.064 C 
BRANCH  13  21
ATOM      2  O   UNL     1      10.110   6.255   1.873  0.00  0.00    -0.356 OA
ATOM      6  N   UNL     1      10.423   7.498   2.408  0.00  0.00    -0.083 NA
ATOM     21  C   UNL     1      11.489   7.282   3.184  0.00  0.00    +0.084 A 
ATOM     22  C   UNL     1      11.889   5.934   3.178  0.00  0.00    +0.074 A 
ATOM     23  C   UNL     1      10.990   5.331   2.339  0.00  0.00    +0.175 A 
BRANCH  23  24
ATOM     24  C   UNL     1      10.804   3.953   1.870  0.00  0.00    +0.306 C 
BRANCH  24   3
ATOM      3  O   UNL     1      11.999   3.193   2.075  0.00  0.00    -0.484 OA
BRANCH   3  25
ATOM     25  C   UNL     1      13.033   3.443   1.219  0.00  0.00    +0.121 A 
ATOM     26  C   UNL     1      12.793   3.562  -0.150  0.00  0.00    +0.045 A 
ATOM     27  C   UNL     1      14.330   3.579   1.714  0.00  0.00    +0.045 A 
ATOM     28  C   UNL     1      13.850   3.817  -1.024  0.00  0.00    +0.004 A 
ATOM     29  C   UNL     1      15.387   3.834   0.841  0.00  0.00    +0.004 A 
ATOM     30  C   UNL     1      15.147   3.954  -0.528  0.00  0.00    +0.000 A 
ENDBRANCH   3  25
ENDBRANCH  24   3
ENDBRANCH  23  24
ENDBRANCH  13  21
ENDBRANCH   8  13
TORSDOF 8
ENDMDL
MODEL 4
REMARK VINA RESULT:      -5.5     12.632     16.256
REMARK  Name = 26743157
REMARK  8 active torsions:
REMARK  status: ('A' for Active; 'I' for Inactive)
REMARK    1  A    between atoms: O_3  and  C_24
REMARK    2  A    between atoms: O_3  and  C_25
REMARK    3  A    between atoms: N_5  and  C_14
REMARK    4  A    between atoms: C_7  and  C_11
REMARK    5  A    between atoms: C_8  and  C_13
REMARK    6  A    between atoms: C_11  and  C_17
REMARK    7  A    between atoms: C_13  and  C_21
REMARK    8  A    between atoms: C_23  and  C_24
REMARK                            x       y       z     vdW  Elec       q    Type
REMARK                         _______ _______ _______ _____ _____    ______ ____
ROOT
ATOM      4  N   UNL     1      16.067   9.553   4.186  0.00  0.00    -0.316 NA
ATOM      7  C   UNL     1      13.914   7.761   5.114  0.00  0.00    +0.004 C 
ATOM      8  C   UNL     1      13.654   8.965   4.176  0.00  0.00    +0.012 C 
ATOM      9  C   UNL     1      15.376   7.311   4.960  0.00  0.00    +0.019 C 
ATOM     10  C   UNL     1      14.709  10.068   4.363  0.00  0.00    +0.085 C 
ATOM     12  C   UNL     1      16.362   8.467   5.119  0.00  0.00    +0.081 C 
ATOM     31  H   UNL     1      16.736  10.309   4.326  0.00  0.00    +0.122 HD
ENDROOT
BRANCH   7  11
ATOM     11  C   UNL     1      13.578   8.034   6.585  0.00  0.00    +0.099 C 
BRANCH  11  17
ATOM      1  O   UNL     1      13.172   5.997   7.825  0.00  0.00    -0.276 OA
ATOM      5  N   UNL     1      11.374   7.161   6.922  0.00  0.00    -0.312 N 
ATOM     17  C   UNL     1      12.718   6.944   7.188  0.00  0.00    +0.214 C 
ATOM     32  H   UNL     1      11.095   8.022   6.465  0.00  0.00    +0.149 HD
BRANCH   5  14
ATOM     14  C   UNL     1      10.326   6.275   7.377  0.00  0.00    +0.073 C 
ATOM     15  C   UNL     1       9.055   7.057   7.726  0.00  0.00    +0.022 C 
ATOM     16  C   UNL     1      10.039   5.183   6.341  0.00  0.00    +0.022 C 
ATOM     18  C   UNL     1       8.342   7.596   6.485  0.00  0.00    +0.002 C 
ATOM     19  C   UNL     1       9.324   5.725   5.103  0.00  0.00    +0.002 C 
ATOM     20  C   UNL     1       8.057   6.489   5.474  0.00  0.00    +0.000 C 
ENDBRANCH   5  14
ENDBRANCH  11  17
ENDBRANCH   7  11
BRANCH   8  13
ATOM     13  C   UNL     1      12.245   9.540   4.315  0.00  0.00    +0.064 C 
BRANCH  13  21
ATOM      2  O   UNL     1       9.354   8.226   2.618  0.00  0.00    -0.356 OA
ATOM      6  N   UNL     1       9.958   9.049   3.561  0.00  0.00    -0.083 NA
ATOM     21  C   UNL     1      11.267   8.811   3.438  0.00  0.00    +0.084 A 
ATOM     22  C   UNL     1      11.546   7.858   2.444  0.00  0.00    +0.074 A 
ATOM     23  C   UNL     1      10.310   7.521   1.959  0.00  0.00    +0.175 A 
BRANCH  23  24
ATOM     24  C   UNL     1       9.844   6.596   0.919  0.00  0.00    +0.306 C 
BRANCH  24   3
ATOM      3  O   UNL     1       9.963   5.243   1.369  0.00  0.00    -0.484 OA
BRANCH   3  25
ATOM     25  C   UNL     1      11.097   4.577   1.000  0.00  0.00    +0.121 A 
ATOM     26  C   UNL     1      11.858   3.911   1.960  0.00  0.00    +0.045 A 
ATOM     27  C   UNL     1      11.494   4.564  -0.336  0.00  0.00    +0.045 A 
ATOM     28  C   UNL     1      13.016   3.231   1.584  0.00  0.00    +0.004 A 
ATOM     29  C   UNL     1      12.652   3.884  -0.714  0.00  0.00    +0.004 A 
ATOM     30  C   UNL     1      13.413   3.217   0.246  0.00  0.00    +0.000 A 
ENDBRANCH   3  25
ENDBRANCH  24   3
ENDBRANCH  23  24
ENDBRANCH  13  21
ENDBRANCH   8  13
TORSDOF 8
ENDMDL
MODEL 5
REMARK VINA RESULT:      -5.5     13.573     17.048
REMARK  Name = 26743157
REMARK  8 active torsions:
REMARK  status: ('A' for Active; 'I' for Inactive)
REMARK    1  A    between atoms: O_3  and  C_24
REMARK    2  A    between atoms: O_3  and  C_25
REMARK    3  A    between atoms: N_5  and  C_14
REMARK    4  A    between atoms: C_7  and  C_11
REMARK    5  A    between atoms: C_8  and  C_13
REMARK    6  A    between atoms: C_11  and  C_17
REMARK    7  A    between atoms: C_13  and  C_21
REMARK    8  A    between atoms: C_23  and  C_24
REMARK                            x       y       z     vdW  Elec       q    Type
REMARK                         _______ _______ _______ _____ _____    ______ ____
ROOT
ATOM      4  N   UNL     1      16.143  10.199   4.505  0.00  0.00    -0.316 NA
ATOM      7  C   UNL     1      14.750   7.834   5.588  0.00  0.00    +0.004 C 
ATOM      8  C   UNL     1      14.641   8.263   4.104  0.00  0.00    +0.012 C 
ATOM      9  C   UNL     1      16.065   8.379   6.172  0.00  0.00    +0.019 C 
ATOM     10  C   UNL     1      14.866   9.774   3.932  0.00  0.00    +0.085 C 
ATOM     12  C   UNL     1      16.236   9.877   5.927  0.00  0.00    +0.081 C 
ATOM     31  H   UNL     1      16.252  11.205   4.379  0.00  0.00    +0.122 HD
ENDROOT
BRANCH   7  11
ATOM     11  C   UNL     1      13.553   8.257   6.448  0.00  0.00    +0.099 C 
BRANCH  11  17
ATOM      1  O   UNL     1      13.338   6.155   7.626  0.00  0.00    -0.276 OA
ATOM      5  N   UNL     1      11.445   7.155   6.722  0.00  0.00    -0.312 N 
ATOM     17  C   UNL     1      12.800   7.069   7.006  0.00  0.00    +0.214 C 
ATOM     32  H   UNL     1      11.086   7.995   6.283  0.00  0.00    +0.149 HD
BRANCH   5  14
ATOM     14  C   UNL     1      10.486   6.154   7.134  0.00  0.00    +0.073 C 
ATOM     15  C   UNL     1       9.220   6.804   7.702  0.00  0.00    +0.022 C 
ATOM     16  C   UNL     1      10.152   5.204   5.979  0.00  0.00    +0.022 C 
ATOM     18  C   UNL     1       8.368   7.469   6.621  0.00  0.00    +0.002 C 
ATOM     19  C   UNL     1       9.298   5.871   4.901  0.00  0.00    +0.002 C 
ATOM     20  C   UNL     1       8.039   6.501   5.489  0.00  0.00    +0.000 C 
ENDBRANCH   5  14
ENDBRANCH  11  17
ENDBRANCH   7  11
BRANCH   8  13
ATOM     13  C   UNL     1      13.325   7.837   3.453  0.00  0.00    +0.064 C 
BRANCH  13  21
ATOM      2  O   UNL     1      14.452   4.906   1.693  0.00  0.00    -0.356 OA
ATOM      6  N   UNL     1      14.672   6.134   2.304  0.00  0.00    -0.083 NA
ATOM     21  C   UNL     1      13.470   6.529   2.731  0.00  0.00    +0.084 A 
ATOM     22  C   UNL     1      12.462   5.599   2.421  0.00  0.00    +0.074 A 
ATOM     23  C   UNL     1      13.130   4.598   1.769  0.00  0.00    +0.175 A 
BRANCH  23  24
ATOM     24  C   UNL     1      12.719   3.323   1.169  0.00  0.00    +0.306 C 
BRANCH  24   3
ATOM      3  O   UNL     1      13.172   3.243  -0.186  0.00  0.00    -0.484 OA
BRANCH   3  25
ATOM     25  C   UNL     1      12.214   3.337  -1.155  0.00  0.00    +0.121 A 
ATOM     26  C   UNL     1      12.124   2.358  -2.144  0.00  0.00    +0.045 A 
ATOM     27  C   UNL     1      11.325   4.411  -1.155  0.00  0.00    +0.045 A 
ATOM     28  C   UNL     1      11.145   2.453  -3.133  0.00  0.00    +0.004 A 
ATOM     29  C   UNL     1      10.346   4.508  -2.144  0.00  0.00    +0.004 A 
ATOM     30  C   UNL     1      10.256   3.528  -3.133  0.00  0.00    +0.000 A 
ENDBRANCH   3  25
ENDBRANCH  24   3
ENDBRANCH  23  24
ENDBRANCH  13  21
ENDBRANCH   8  13
TORSDOF 8
ENDMDL
MODEL 6
REMARK VINA RESULT:      -5.5     28.334     30.796
REMARK  Name = 26743157
REMARK  8 active torsions:
REMARK  status: ('A' for Active; 'I' for Inactive)
REMARK    1  A    between atoms: O_3  and  C_24
REMARK    2  A    between atoms: O_3  and  C_25
REMARK    3  A    between atoms: N_5  and  C_14
REMARK    4  A    between atoms: C_7  and  C_11
REMARK    5  A    between atoms: C_8  and  C_13
REMARK    6  A    between atoms: C_11  and  C_17
REMARK    7  A    between atoms: C_13  and  C_21
REMARK    8  A    between atoms: C_23  and  C_24
REMARK                            x       y       z     vdW  Elec       q    Type
REMARK                         _______ _______ _______ _____ _____    ______ ____
ROOT
ATOM      4  N   UNL     1     -14.771  -7.048  15.176  0.00  0.00    -0.316 NA
ATOM      7  C   UNL     1     -12.568  -6.023  13.502  0.00  0.00    +0.004 C 
ATOM      8  C   UNL     1     -12.329  -6.733  14.857  0.00  0.00    +0.012 C 
ATOM      9  C   UNL     1     -13.920  -6.479  12.928  0.00  0.00    +0.019 C 
ATOM     10  C   UNL     1     -13.534  -6.578  15.799  0.00  0.00    +0.085 C 
ATOM     12  C   UNL     1     -15.060  -6.333  13.935  0.00  0.00    +0.081 C 
ATOM     31  H   UNL     1     -15.546  -6.921  15.826  0.00  0.00    +0.122 HD
ENDROOT
BRANCH   7  11
ATOM     11  C   UNL     1     -12.495  -4.493  13.580  0.00  0.00    +0.099 C 
BRANCH  11  17
ATOM      1  O   UNL     1     -13.862  -3.072  12.178  0.00  0.00    -0.276 OA
ATOM      5  N   UNL     1     -12.064  -4.207  11.242  0.00  0.00    -0.312 N 
ATOM     17  C   UNL     1     -12.905  -3.834  12.280  0.00  0.00    +0.214 C 
ATOM     32  H   UNL     1     -11.246  -4.770  11.447  0.00  0.00    +0.149 HD
BRANCH   5  14
ATOM     14  C   UNL     1     -12.222  -3.728   9.886  0.00  0.00    +0.073 C 
ATOM     15  C   UNL     1     -10.862  -3.528   9.210  0.00  0.00    +0.022 C 
ATOM     16  C   UNL     1     -13.115  -4.670   9.071  0.00  0.00    +0.022 C 
ATOM     18  C   UNL     1     -10.173  -4.853   8.878  0.00  0.00    +0.002 C 
ATOM     19  C   UNL     1     -12.423  -5.992   8.739  0.00  0.00    +0.002 C 
ATOM     20  C   UNL     1     -11.077  -5.767   8.057  0.00  0.00    +0.000 C 
ENDBRANCH   5  14
ENDBRANCH  11  17
ENDBRANCH   7  11
BRANCH   8  13
ATOM     13  C   UNL     1     -11.043  -6.283  15.550  0.00  0.00    +0.064 C 
BRANCH  13  21
ATOM      2  O   UNL     1      -9.150  -8.748  17.368  0.00  0.00    -0.356 OA
ATOM      6  N   UNL     1      -9.882  -7.569  17.293  0.00  0.00    -0.083 NA
ATOM     21  C   UNL     1     -10.227  -7.459  16.007  0.00  0.00    +0.084 A 
ATOM     22  C   UNL     1      -9.746  -8.528  15.231  0.00  0.00    +0.074 A 
ATOM     23  C   UNL     1      -9.076  -9.310  16.133  0.00  0.00    +0.175 A 
BRANCH  23  24
ATOM     24  C   UNL     1      -8.333 -10.571  16.031  0.00  0.00    +0.306 C 
BRANCH  24   3
ATOM      3  O   UNL     1      -8.023 -11.072  17.335  0.00  0.00    -0.484 OA
BRANCH   3  25
ATOM     25  C   UNL     1      -6.697 -11.196  17.639  0.00  0.00    +0.121 A 
ATOM     26  C   UNL     1      -6.309 -11.828  18.821  0.00  0.00    +0.045 A 
ATOM     27  C   UNL     1      -5.732 -10.692  16.769  0.00  0.00    +0.045 A 
ATOM     28  C   UNL     1      -4.955 -11.954  19.132  0.00  0.00    +0.004 A 
ATOM     29  C   UNL     1      -4.378 -10.818  17.079  0.00  0.00    +0.004 A 
ATOM     30  C   UNL     1      -3.989 -11.450  18.261  0.00  0.00    +0.000 A 
ENDBRANCH   3  25
ENDBRANCH  24   3
ENDBRANCH  23  24
ENDBRANCH  13  21
ENDBRANCH   8  13
TORSDOF 8
ENDMDL
MODEL 7
REMARK VINA RESULT:      -5.4     27.937     30.679
REMARK  Name = 26743157
REMARK  8 active torsions:
REMARK  status: ('A' for Active; 'I' for Inactive)
REMARK    1  A    between atoms: O_3  and  C_24
REMARK    2  A    between atoms: O_3  and  C_25
REMARK    3  A    between atoms: N_5  and  C_14
REMARK    4  A    between atoms: C_7  and  C_11
REMARK    5  A    between atoms: C_8  and  C_13
REMARK    6  A    between atoms: C_11  and  C_17
REMARK    7  A    between atoms: C_13  and  C_21
REMARK    8  A    between atoms: C_23  and  C_24
REMARK                            x       y       z     vdW  Elec       q    Type
REMARK                         _______ _______ _______ _____ _____    ______ ____
ROOT
ATOM      4  N   UNL     1     -12.887   9.779  30.652  0.00  0.00    -0.316 NA
ATOM      7  C   UNL     1     -12.003   8.489  33.154  0.00  0.00    +0.004 C 
ATOM      8  C   UNL     1     -13.369   8.183  32.492  0.00  0.00    +0.012 C 
ATOM      9  C   UNL     1     -11.028   9.000  32.080  0.00  0.00    +0.019 C 
ATOM     10  C   UNL     1     -13.872   9.369  31.654  0.00  0.00    +0.085 C 
ATOM     12  C   UNL     1     -11.613  10.151  31.262  0.00  0.00    +0.081 C 
ATOM     31  H   UNL     1     -13.252  10.571  30.123  0.00  0.00    +0.122 HD
ENDROOT
BRANCH   7  11
ATOM     11  C   UNL     1     -12.086   9.471  34.329  0.00  0.00    +0.099 C 
BRANCH  11  17
ATOM      1  O   UNL     1     -12.308   8.145  36.340  0.00  0.00    -0.276 OA
ATOM      5  N   UNL     1     -10.289   9.203  35.887  0.00  0.00    -0.312 N 
ATOM     17  C   UNL     1     -11.606   8.856  35.625  0.00  0.00    +0.214 C 
ATOM     32  H   UNL     1      -9.767   9.720  35.189  0.00  0.00    +0.149 HD
BRANCH   5  14
ATOM     14  C   UNL     1      -9.573   8.756  37.061  0.00  0.00    +0.073 C 
ATOM     15  C   UNL     1      -8.144   8.330  36.707  0.00  0.00    +0.022 C 
ATOM     16  C   UNL     1      -9.578   9.832  38.153  0.00  0.00    +0.022 C 
ATOM     18  C   UNL     1      -7.248   9.521  36.364  0.00  0.00    +0.002 C 
ATOM     19  C   UNL     1      -8.679  11.019  37.807  0.00  0.00    +0.002 C 
ATOM     20  C   UNL     1      -7.260  10.572  37.469  0.00  0.00    +0.000 C 
ENDBRANCH   5  14
ENDBRANCH  11  17
ENDBRANCH   7  11
BRANCH   8  13
ATOM     13  C   UNL     1     -14.435   7.743  33.495  0.00  0.00    +0.064 C 
BRANCH  13  21
ATOM      2  O   UNL     1     -14.195   4.470  34.975  0.00  0.00    -0.356 OA
ATOM      6  N   UNL     1     -14.279   5.854  35.059  0.00  0.00    -0.083 NA
ATOM     21  C   UNL     1     -14.335   6.275  33.792  0.00  0.00    +0.084 A 
ATOM     22  C   UNL     1     -14.291   5.211  32.875  0.00  0.00    +0.074 A 
ATOM     23  C   UNL     1     -14.203   4.098  33.668  0.00  0.00    +0.175 A 
BRANCH  23  24
ATOM     24  C   UNL     1     -14.120   2.659  33.396  0.00  0.00    +0.306 C 
BRANCH  24   3
ATOM      3  O   UNL     1     -13.468   2.427  32.144  0.00  0.00    -0.484 OA
BRANCH   3  25
ATOM     25  C   UNL     1     -14.243   1.925  31.137  0.00  0.00    +0.121 A 
ATOM     26  C   UNL     1     -14.725   0.618  31.214  0.00  0.00    +0.045 A 
ATOM     27  C   UNL     1     -14.554   2.719  30.034  0.00  0.00    +0.045 A 
ATOM     28  C   UNL     1     -15.517   0.105  30.186  0.00  0.00    +0.004 A 
ATOM     29  C   UNL     1     -15.345   2.207  29.006  0.00  0.00    +0.004 A 
ATOM     30  C   UNL     1     -15.827   0.900  29.082  0.00  0.00    +0.000 A 
ENDBRANCH   3  25
ENDBRANCH  24   3
ENDBRANCH  23  24
ENDBRANCH  13  21
ENDBRANCH   8  13
TORSDOF 8
ENDMDL
MODEL 8
REMARK VINA RESULT:      -5.4     12.623     16.494
REMARK  Name = 26743157
REMARK  8 active torsions:
REMARK  status: ('A' for Active; 'I' for Inactive)
REMARK    1  A    between atoms: O_3  and  C_24
REMARK    2  A    between atoms: O_3  and  C_25
REMARK    3  A    between atoms: N_5  and  C_14
REMARK    4  A    between atoms: C_7  and  C_11
REMARK    5  A    between atoms: C_8  and  C_13
REMARK    6  A    between atoms: C_11  and  C_17
REMARK    7  A    between atoms: C_13  and  C_21
REMARK    8  A    between atoms: C_23  and  C_24
REMARK                            x       y       z     vdW  Elec       q    Type
REMARK                         _______ _______ _______ _____ _____    ______ ____
ROOT
ATOM      4  N   UNL     1      15.879  10.621   4.388  0.00  0.00    -0.316 NA
ATOM      7  C   UNL     1      14.336   8.138   3.988  0.00  0.00    +0.004 C 
ATOM      8  C   UNL     1      14.571   8.761   5.385  0.00  0.00    +0.012 C 
ATOM      9  C   UNL     1      14.450   9.241   2.922  0.00  0.00    +0.019 C 
ATOM     10  C   UNL     1      15.865   9.591   5.427  0.00  0.00    +0.085 C 
ATOM     12  C   UNL     1      15.741  10.047   3.052  0.00  0.00    +0.081 C 
ATOM     31  H   UNL     1      16.754  11.142   4.442  0.00  0.00    +0.122 HD
ENDROOT
BRANCH   7  11
ATOM     11  C   UNL     1      15.270   6.966   3.663  0.00  0.00    +0.099 C 
BRANCH  11  17
ATOM      1  O   UNL     1      15.619   6.557   1.304  0.00  0.00    -0.276 OA
ATOM      5  N   UNL     1      13.850   5.516   2.393  0.00  0.00    -0.312 N 
ATOM     17  C   UNL     1      14.961   6.343   2.318  0.00  0.00    +0.214 C 
ATOM     32  H   UNL     1      13.430   5.334   3.297  0.00  0.00    +0.149 HD
BRANCH   5  14
ATOM     14  C   UNL     1      13.328   4.791   1.256  0.00  0.00    +0.073 C 
ATOM     15  C   UNL     1      12.750   3.437   1.682  0.00  0.00    +0.022 C 
ATOM     16  C   UNL     1      12.288   5.626   0.501  0.00  0.00    +0.022 C 
ATOM     18  C   UNL     1      11.437   3.579   2.453  0.00  0.00    +0.002 C 
ATOM     19  C   UNL     1      10.976   5.764   1.274  0.00  0.00    +0.002 C 
ATOM     20  C   UNL     1      10.415   4.404   1.678  0.00  0.00    +0.000 C 
ENDBRANCH   5  14
ENDBRANCH  11  17
ENDBRANCH   7  11
BRANCH   8  13
ATOM     13  C   UNL     1      14.559   7.727   6.511  0.00  0.00    +0.064 C 
BRANCH  13  21
ATOM      2  O   UNL     1      11.533   6.201   7.728  0.00  0.00    -0.356 OA
ATOM      6  N   UNL     1      12.899   6.191   7.473  0.00  0.00    -0.083 NA
ATOM     21  C   UNL     1      13.156   7.380   6.921  0.00  0.00    +0.084 A 
ATOM     22  C   UNL     1      12.003   8.175   6.804  0.00  0.00    +0.074 A 
ATOM     23  C   UNL     1      11.010   7.389   7.325  0.00  0.00    +0.175 A 
BRANCH  23  24
ATOM     24  C   UNL     1       9.567   7.570   7.522  0.00  0.00    +0.306 C 
BRANCH  24   3
ATOM      3  O   UNL     1       8.836   6.881   6.503  0.00  0.00    -0.484 OA
BRANCH   3  25
ATOM     25  C   UNL     1       8.539   7.596   5.378  0.00  0.00    +0.121 A 
ATOM     26  C   UNL     1       7.900   8.831   5.484  0.00  0.00    +0.045 A 
ATOM     27  C   UNL     1       8.876   7.091   4.122  0.00  0.00    +0.045 A 
ATOM     28  C   UNL     1       7.596   9.561   4.335  0.00  0.00    +0.004 A 
ATOM     29  C   UNL     1       8.573   7.821   2.973  0.00  0.00    +0.004 A 
ATOM     30  C   UNL     1       7.933   9.056   3.079  0.00  0.00    +0.000 A 
ENDBRANCH   3  25
ENDBRANCH  24   3
ENDBRANCH  23  24
ENDBRANCH  13  21
ENDBRANCH   8  13
TORSDOF 8
ENDMDL
MODEL 9
REMARK VINA RESULT:      -5.2     13.972     16.891
REMARK  Name = 26743157
REMARK  8 active torsions:
REMARK  status: ('A' for Active; 'I' for Inactive)
REMARK    1  A    between atoms: O_3  and  C_24
REMARK    2  A    between atoms: O_3  and  C_25
REMARK    3  A    between atoms: N_5  and  C_14
REMARK    4  A    between atoms: C_7  and  C_11
REMARK    5  A    between atoms: C_8  and  C_13
REMARK    6  A    between atoms: C_11  and  C_17
REMARK    7  A    between atoms: C_13  and  C_21
REMARK    8  A    between atoms: C_23  and  C_24
REMARK                            x       y       z     vdW  Elec       q    Type
REMARK                         _______ _______ _______ _____ _____    ______ ____
ROOT
ATOM      4  N   UNL     1       9.672   7.104   6.090  0.00  0.00    -0.316 NA
ATOM      7  C   UNL     1      10.819   5.549   3.860  0.00  0.00    +0.004 C 
ATOM      8  C   UNL     1      11.464   6.853   4.390  0.00  0.00    +0.012 C 
ATOM      9  C   UNL     1       9.970   4.919   4.978  0.00  0.00    +0.019 C 
ATOM     10  C   UNL     1      10.421   7.782   5.032  0.00  0.00    +0.085 C 
ATOM     12  C   UNL     1       8.987   5.913   5.594  0.00  0.00    +0.081 C 
ATOM     31  H   UNL     1       8.987   7.748   6.485  0.00  0.00    +0.122 HD
ENDROOT
BRANCH   7  11
ATOM     11  C   UNL     1       9.988   5.738   2.585  0.00  0.00    +0.099 C 
BRANCH  11  17
ATOM      1  O   UNL     1       9.697   4.372   0.610  0.00  0.00    -0.276 OA
ATOM      5  N   UNL     1      11.818   4.610   1.530  0.00  0.00    -0.312 N 
ATOM     17  C   UNL     1      10.451   4.836   1.461  0.00  0.00    +0.214 C 
ATOM     32  H   UNL     1      12.366   5.112   2.219  0.00  0.00    +0.149 HD
BRANCH   5  14
ATOM     14  C   UNL     1      12.530   3.782   0.583  0.00  0.00    +0.073 C 
ATOM     15  C   UNL     1      13.018   4.606  -0.613  0.00  0.00    +0.022 C 
ATOM     16  C   UNL     1      13.691   3.044   1.259  0.00  0.00    +0.022 C 
ATOM     18  C   UNL     1      14.174   5.538  -0.249  0.00  0.00    +0.002 C 
ATOM     19  C   UNL     1      14.846   3.979   1.620  0.00  0.00    +0.002 C 
ATOM     20  C   UNL     1      15.321   4.780   0.412  0.00  0.00    +0.000 C 
ENDBRANCH   5  14
ENDBRANCH  11  17
ENDBRANCH   7  11
BRANCH   8  13
ATOM     13  C   UNL     1      12.266   7.600   3.324  0.00  0.00    +0.064 C 
BRANCH  13  21
ATOM      2  O   UNL     1      15.381   7.896   5.104  0.00  0.00    -0.356 OA
ATOM      6  N   UNL     1      14.077   7.432   4.975  0.00  0.00    -0.083 NA
ATOM     21  C   UNL     1      13.655   7.909   3.801  0.00  0.00    +0.084 A 
ATOM     22  C   UNL     1      14.640   8.673   3.150  0.00  0.00    +0.074 A 
ATOM     23  C   UNL     1      15.705   8.634   4.011  0.00  0.00    +0.175 A 
BRANCH  23  24
ATOM     24  C   UNL     1      17.057   9.204   3.982  0.00  0.00    +0.306 C 
BRANCH  24   3
ATOM      3  O   UNL     1      18.028   8.170   3.803  0.00  0.00    -0.484 OA
BRANCH   3  25
ATOM     25  C   UNL     1      19.012   8.089   4.747  0.00  0.00    +0.121 A 
ATOM     26  C   UNL     1      20.186   7.388   4.473  0.00  0.00    +0.045 A 
ATOM     27  C   UNL     1      18.843   8.708   5.985  0.00  0.00    +0.045 A 
ATOM     28  C   UNL     1      21.191   7.306   5.437  0.00  0.00    +0.004 A 
ATOM     29  C   UNL     1      19.847   8.626   6.950  0.00  0.00    +0.004 A 
ATOM     30  C   UNL     1      21.021   7.925   6.676  0.00  0.00    +0.000 A 
ENDBRANCH   3  25
ENDBRANCH  24   3
ENDBRANCH  23  24
ENDBRANCH  13  21
ENDBRANCH   8  13
TORSDOF 8
ENDMDL
MODEL 10
REMARK VINA RESULT:      -5.2     20.899     24.452
REMARK  Name = 26743157
REMARK  8 active torsions:
REMARK  status: ('A' for Active; 'I' for Inactive)
REMARK    1  A    between atoms: O_3  and  C_24
REMARK    2  A    between atoms: O_3  and  C_25
REMARK    3  A    between atoms: N_5  and  C_14
REMARK    4  A    between atoms: C_7  and  C_11
REMARK    5  A    between atoms: C_8  and  C_13
REMARK    6  A    between atoms: C_11  and  C_17
REMARK    7  A    between atoms: C_13  and  C_21
REMARK    8  A    between atoms: C_23  and  C_24
REMARK                            x       y       z     vdW  Elec       q    Type
REMARK                         _______ _______ _______ _____ _____    ______ ____
ROOT
ATOM      4  N   UNL     1       6.308   8.410  -2.165  0.00  0.00    -0.316 NA
ATOM      7  C   UNL     1       5.552   6.202  -3.969  0.00  0.00    +0.004 C 
ATOM      8  C   UNL     1       6.957   6.316  -3.330  0.00  0.00    +0.012 C 
ATOM      9  C   UNL     1       4.539   6.958  -3.093  0.00  0.00    +0.019 C 
ATOM     10  C   UNL     1       7.318   7.776  -3.011  0.00  0.00    +0.085 C 
ATOM     12  C   UNL     1       4.986   8.387  -2.786  0.00  0.00    +0.081 C 
ATOM     31  H   UNL     1       6.578   9.377  -1.983  0.00  0.00    +0.122 HD
ENDROOT
BRANCH   7  11
ATOM     11  C   UNL     1       5.487   6.688  -5.423  0.00  0.00    +0.099 C 
BRANCH  11  17
ATOM      1  O   UNL     1       3.462   7.655  -6.325  0.00  0.00    -0.276 OA
ATOM      5  N   UNL     1       3.594   5.354  -6.030  0.00  0.00    -0.312 N 
ATOM     17  C   UNL     1       4.079   6.652  -5.976  0.00  0.00    +0.214 C 
ATOM     32  H   UNL     1       4.215   4.586  -5.804  0.00  0.00    +0.149 HD
BRANCH   5  14
ATOM     14  C   UNL     1       2.273   5.024  -6.516  0.00  0.00    +0.073 C 
ATOM     15  C   UNL     1       2.197   3.558  -6.958  0.00  0.00    +0.022 C 
ATOM     16  C   UNL     1       1.203   5.343  -5.466  0.00  0.00    +0.022 C 
ATOM     18  C   UNL     1       2.226   2.589  -5.775  0.00  0.00    +0.002 C 
ATOM     19  C   UNL     1       1.234   4.371  -4.286  0.00  0.00    +0.002 C 
ATOM     20  C   UNL     1       1.147   2.920  -4.750  0.00  0.00    +0.000 C 
ENDBRANCH   5  14
ENDBRANCH  11  17
ENDBRANCH   7  11
BRANCH   8  13
ATOM     13  C   UNL     1       8.053   5.662  -4.172  0.00  0.00    +0.064 C 
BRANCH  13  21
ATOM      2  O   UNL     1      10.038   4.285  -1.503  0.00  0.00    -0.356 OA
ATOM      6  N   UNL     1       9.003   5.079  -1.983  0.00  0.00    -0.083 NA
ATOM     21  C   UNL     1       9.046   4.937  -3.310  0.00  0.00    +0.084 A 
ATOM     22  C   UNL     1      10.077   4.075  -3.722  0.00  0.00    +0.074 A 
ATOM     23  C   UNL     1      10.671   3.693  -2.549  0.00  0.00    +0.175 A 
BRANCH  23  24
ATOM     24  C   UNL     1      11.798   2.813  -2.219  0.00  0.00    +0.306 C 
BRANCH  24   3
ATOM      3  O   UNL     1      12.997   3.578  -2.067  0.00  0.00    -0.484 OA
BRANCH   3  25
ATOM     25  C   UNL     1      13.565   3.578  -0.825  0.00  0.00    +0.121 A 
ATOM     26  C   UNL     1      14.899   3.953  -0.667  0.00  0.00    +0.045 A 
ATOM     27  C   UNL     1      12.811   3.203   0.287  0.00  0.00    +0.045 A 
ATOM     28  C   UNL     1      15.480   3.954   0.601  0.00  0.00    +0.004 A 
ATOM     29  C   UNL     1      13.390   3.203   1.556  0.00  0.00    +0.004 A 
ATOM     30  C   UNL     1      14.725   3.578   1.713  0.00  0.00    +0.000 A 
ENDBRANCH   3  25
ENDBRANCH  24   3
ENDBRANCH  23  24
ENDBRANCH  13  21
ENDBRANCH   8  13
TORSDOF 8
ENDMDL
