MODEL 1
REMARK VINA RESULT:      -6.3      0.000      0.000
REMARK  Name = 7134532
REMARK  15 active torsions:
REMARK  status: ('A' for Active; 'I' for Inactive)
REMARK    1  A    between atoms: O_1  and  C_21
REMARK    2  A    between atoms: O_2  and  C_23
REMARK    3  A    between atoms: O_3  and  C_24
REMARK    4  A    between atoms: O_5  and  C_28
REMARK    5  A    between atoms: O_9  and  C_37
REMARK    6  A    between atoms: N_10  and  C_19
REMARK    7  A    between atoms: N_11  and  C_29
REMARK    8  A    between atoms: C_13  and  C_18
REMARK    9  A    between atoms: C_13  and  C_20
REMARK   10  A    between atoms: C_18  and  C_26
REMARK   11  A    between atoms: C_20  and  C_28
REMARK   12  A    between atoms: C_21  and  C_27
REMARK   13  A    between atoms: C_29  and  C_30
REMARK   14  A    between atoms: C_29  and  C_31
REMARK   15  A    between atoms: C_30  and  C_32
REMARK                            x       y       z     vdW  Elec       q    Type
REMARK                         _______ _______ _______ _____ _____    ______ ____
ROOT
ATOM     19  C   UNL     1      14.113   7.076   3.653  0.00  0.00    +0.107 C 
ATOM     21  C   UNL     1      12.879   8.191   5.575  0.00  0.00    +0.146 C 
ATOM     22  C   UNL     1      12.893   7.029   4.579  0.00  0.00    +0.069 C 
ATOM     23  C   UNL     1      15.426   7.166   4.443  0.00  0.00    +0.163 C 
ATOM     24  C   UNL     1      15.409   8.313   5.456  0.00  0.00    +0.148 C 
ATOM     25  C   UNL     1      14.183   8.257   6.368  0.00  0.00    +0.078 C 
ENDROOT
BRANCH  19  10
ATOM      4  O   UNL     1      14.848   6.976   0.856  0.00  0.00    -0.276 OA
ATOM     10  N   UNL     1      14.116   5.915   2.790  0.00  0.00    -0.310 N 
ATOM     26  C   UNL     1      14.486   5.967   1.456  0.00  0.00    +0.214 C 
ATOM     38  H   UNL     1      13.765   5.043   3.176  0.00  0.00    +0.149 HD
BRANCH  26  18
ATOM     18  C   UNL     1      14.396   4.600   0.801  0.00  0.00    +0.103 C 
BRANCH  18  13
ATOM     13  C   UNL     1      13.241   4.502  -0.198  0.00  0.00    -0.011 C 
ATOM     14  C   UNL     1      12.920   3.042  -0.549  0.00  0.00    +0.008 C 
ATOM     15  C   UNL     1      13.629   5.073  -1.569  0.00  0.00    +0.008 C 
ATOM     16  C   UNL     1      12.219   3.105  -1.904  0.00  0.00    +0.001 C 
ATOM     17  C   UNL     1      12.675   4.409  -2.559  0.00  0.00    +0.001 C 
BRANCH  13  20
ATOM     20  C   UNL     1      12.010   5.220   0.379  0.00  0.00    +0.127 C 
BRANCH  20  28
ATOM      7  O   UNL     1      11.651   3.942   2.423  0.00  0.00    -0.251 OA
ATOM     28  C   UNL     1      11.261   4.339   1.335  0.00  0.00    +0.305 C 
BRANCH  28   5
ATOM      5  O   UNL     1      10.048   4.031   0.809  0.00  0.00    -0.481 OA
ATOM     43  H   UNL     1      10.108   3.307   0.151  0.00  0.00    +0.295 HD
ENDBRANCH  28   5
ENDBRANCH  20  28
ENDBRANCH  13  20
ENDBRANCH  18  13
ENDBRANCH  26  18
ENDBRANCH  19  10
BRANCH  21  27
ATOM      6  O   UNL     1      11.441   8.952   7.323  0.00  0.00    -0.273 OA
ATOM     11  N   UNL     1      11.030   6.878   6.348  0.00  0.00    -0.301 N 
ATOM     27  C   UNL     1      11.712   8.072   6.510  0.00  0.00    +0.246 C 
ATOM     42  H   UNL     1      11.356   6.192   5.676  0.00  0.00    +0.150 HD
BRANCH  11  29
ATOM     29  C   UNL     1       9.880   6.511   7.143  0.00  0.00    +0.163 C 
BRANCH  29  31
ATOM      8  O   UNL     1      10.606   5.420   9.190  0.00  0.00    -0.274 OA
ATOM     12  N   UNL     1      10.226   4.126   7.331  0.00  0.00    -0.328 N 
ATOM     31  C   UNL     1      10.292   5.327   8.006  0.00  0.00    +0.231 C 
ATOM     44  H   UNL     1       9.964   4.062   6.353  0.00  0.00    +0.145 HD
ATOM     45  H   UNL     1      10.460   3.255   7.796  0.00  0.00    +0.145 HD
ENDBRANCH  29  31
BRANCH  29  30
ATOM     30  C   UNL     1       8.669   6.145   6.277  0.00  0.00    +0.067 C 
BRANCH  30  32
ATOM     32  C   UNL     1       8.630   6.910   4.976  0.00  0.00    -0.045 A 
ATOM     33  C   UNL     1       7.910   8.101   4.889  0.00  0.00    +0.007 A 
ATOM     34  C   UNL     1       9.315   6.425   3.862  0.00  0.00    +0.007 A 
ATOM     35  C   UNL     1       7.874   8.808   3.687  0.00  0.00    +0.045 A 
ATOM     36  C   UNL     1       9.279   7.131   2.660  0.00  0.00    +0.045 A 
ATOM     37  C   UNL     1       8.558   8.323   2.572  0.00  0.00    +0.117 A 
BRANCH  37   9
ATOM      9  O   UNL     1       8.523   9.012   1.399  0.00  0.00    -0.507 OA
ATOM     46  H   UNL     1       7.645   8.900   0.994  0.00  0.00    +0.292 HD
ENDBRANCH  37   9
ENDBRANCH  30  32
ENDBRANCH  29  30
ENDBRANCH  11  29
ENDBRANCH  21  27
BRANCH  21   1
ATOM      1  O   UNL     1      12.685   9.425   4.896  0.00  0.00    -0.379 OA
ATOM     39  H   UNL     1      11.754   9.480   4.619  0.00  0.00    +0.211 HD
ENDBRANCH  21   1
BRANCH  23   2
ATOM      2  O   UNL     1      16.502   7.408   3.532  0.00  0.00    -0.387 OA
ATOM     40  H   UNL     1      17.141   7.996   3.969  0.00  0.00    +0.210 HD
ENDBRANCH  23   2
BRANCH  24   3
ATOM      3  O   UNL     1      16.587   8.224   6.259  0.00  0.00    -0.389 OA
ATOM     41  H   UNL     1      17.150   8.986   6.037  0.00  0.00    +0.210 HD
ENDBRANCH  24   3
TORSDOF 15
ENDMDL
MODEL 2
REMARK VINA RESULT:      -6.2      1.386      2.089
REMARK  Name = 7134532
REMARK  15 active torsions:
REMARK  status: ('A' for Active; 'I' for Inactive)
REMARK    1  A    between atoms: O_1  and  C_21
REMARK    2  A    between atoms: O_2  and  C_23
REMARK    3  A    between atoms: O_3  and  C_24
REMARK    4  A    between atoms: O_5  and  C_28
REMARK    5  A    between atoms: O_9  and  C_37
REMARK    6  A    between atoms: N_10  and  C_19
REMARK    7  A    between atoms: N_11  and  C_29
REMARK    8  A    between atoms: C_13  and  C_18
REMARK    9  A    between atoms: C_13  and  C_20
REMARK   10  A    between atoms: C_18  and  C_26
REMARK   11  A    between atoms: C_20  and  C_28
REMARK   12  A    between atoms: C_21  and  C_27
REMARK   13  A    between atoms: C_29  and  C_30
REMARK   14  A    between atoms: C_29  and  C_31
REMARK   15  A    between atoms: C_30  and  C_32
REMARK                            x       y       z     vdW  Elec       q    Type
REMARK                         _______ _______ _______ _____ _____    ______ ____
ROOT
ATOM     19  C   UNL     1      14.330   7.639   3.829  0.00  0.00    +0.107 C 
ATOM     21  C   UNL     1      12.920   8.338   5.824  0.00  0.00    +0.146 C 
ATOM     22  C   UNL     1      12.984   7.497   4.548  0.00  0.00    +0.069 C 
ATOM     23  C   UNL     1      15.512   7.348   4.766  0.00  0.00    +0.163 C 
ATOM     24  C   UNL     1      15.440   8.172   6.054  0.00  0.00    +0.148 C 
ATOM     25  C   UNL     1      14.089   8.024   6.756  0.00  0.00    +0.078 C 
ENDROOT
BRANCH  19  10
ATOM      4  O   UNL     1      13.114   8.097   1.244  0.00  0.00    -0.276 OA
ATOM     10  N   UNL     1      14.365   6.764   2.678  0.00  0.00    -0.310 N 
ATOM     26  C   UNL     1      13.748   7.071   1.476  0.00  0.00    +0.214 C 
ATOM     38  H   UNL     1      14.808   5.857   2.793  0.00  0.00    +0.149 HD
BRANCH  26  18
ATOM     18  C   UNL     1      13.954   5.972   0.449  0.00  0.00    +0.103 C 
BRANCH  18  13
ATOM     13  C   UNL     1      12.977   4.809   0.631  0.00  0.00    -0.011 C 
ATOM     14  C   UNL     1      11.838   4.860  -0.396  0.00  0.00    +0.008 C 
ATOM     15  C   UNL     1      12.207   4.918   1.954  0.00  0.00    +0.008 C 
ATOM     16  C   UNL     1      10.700   4.062   0.232  0.00  0.00    +0.001 C 
ATOM     17  C   UNL     1      10.935   4.100   1.742  0.00  0.00    +0.001 C 
BRANCH  13  20
ATOM     20  C   UNL     1      13.748   3.481   0.543  0.00  0.00    +0.127 C 
BRANCH  20  28
ATOM      7  O   UNL     1      16.165   3.714   0.332  0.00  0.00    -0.251 OA
ATOM     28  C   UNL     1      15.161   3.636   1.023  0.00  0.00    +0.305 C 
BRANCH  28   5
ATOM      5  O   UNL     1      15.173   3.680   2.380  0.00  0.00    -0.481 OA
ATOM     43  H   UNL     1      15.256   2.786   2.774  0.00  0.00    +0.295 HD
ENDBRANCH  28   5
ENDBRANCH  20  28
ENDBRANCH  13  20
ENDBRANCH  18  13
ENDBRANCH  26  18
ENDBRANCH  19  10
BRANCH  21  27
ATOM      6  O   UNL     1      11.080   9.007   7.193  0.00  0.00    -0.273 OA
ATOM     11  N   UNL     1      11.144   6.828   6.376  0.00  0.00    -0.301 N 
ATOM     27  C   UNL     1      11.618   8.118   6.537  0.00  0.00    +0.246 C 
ATOM     42  H   UNL     1      11.682   6.149   5.848  0.00  0.00    +0.150 HD
BRANCH  11  29
ATOM     29  C   UNL     1       9.919   6.355   6.981  0.00  0.00    +0.163 C 
BRANCH  29  31
ATOM      8  O   UNL     1      10.604   5.415   9.114  0.00  0.00    -0.274 OA
ATOM     12  N   UNL     1      10.207   3.985   7.361  0.00  0.00    -0.328 N 
ATOM     31  C   UNL     1      10.296   5.234   7.938  0.00  0.00    +0.231 C 
ATOM     44  H   UNL     1       9.950   3.850   6.389  0.00  0.00    +0.145 HD
ATOM     45  H   UNL     1      10.417   3.149   7.895  0.00  0.00    +0.145 HD
ENDBRANCH  29  31
BRANCH  29  30
ATOM     30  C   UNL     1       8.915   5.851   5.938  0.00  0.00    +0.067 C 
BRANCH  30  32
ATOM     32  C   UNL     1       8.721   6.821   4.798  0.00  0.00    -0.045 A 
ATOM     33  C   UNL     1       9.381   6.616   3.587  0.00  0.00    +0.007 A 
ATOM     34  C   UNL     1       7.879   7.923   4.957  0.00  0.00    +0.007 A 
ATOM     35  C   UNL     1       9.201   7.513   2.534  0.00  0.00    +0.045 A 
ATOM     36  C   UNL     1       7.699   8.819   3.904  0.00  0.00    +0.045 A 
ATOM     37  C   UNL     1       8.360   8.615   2.692  0.00  0.00    +0.117 A 
BRANCH  37   9
ATOM      9  O   UNL     1       8.185   9.491   1.665  0.00  0.00    -0.507 OA
ATOM     46  H   UNL     1       7.439   9.189   1.117  0.00  0.00    +0.292 HD
ENDBRANCH  37   9
ENDBRANCH  30  32
ENDBRANCH  29  30
ENDBRANCH  11  29
ENDBRANCH  21  27
BRANCH  21   1
ATOM      1  O   UNL     1      12.937   9.725   5.507  0.00  0.00    -0.379 OA
ATOM     39  H   UNL     1      12.173  10.148   5.935  0.00  0.00    +0.211 HD
ENDBRANCH  21   1
BRANCH  23   2
ATOM      2  O   UNL     1      16.730   7.690   4.100  0.00  0.00    -0.387 OA
ATOM     40  H   UNL     1      17.137   6.870   3.773  0.00  0.00    +0.210 HD
ENDBRANCH  23   2
BRANCH  24   3
ATOM      3  O   UNL     1      16.469   7.722   6.935  0.00  0.00    -0.389 OA
ATOM     41  H   UNL     1      16.493   6.751   6.885  0.00  0.00    +0.210 HD
ENDBRANCH  24   3
TORSDOF 15
ENDMDL
MODEL 3
REMARK VINA RESULT:      -6.2     24.592     27.887
REMARK  Name = 7134532
REMARK  15 active torsions:
REMARK  status: ('A' for Active; 'I' for Inactive)
REMARK    1  A    between atoms: O_1  and  C_21
REMARK    2  A    between atoms: O_2  and  C_23
REMARK    3  A    between atoms: O_3  and  C_24
REMARK    4  A    between atoms: O_5  and  C_28
REMARK    5  A    between atoms: O_9  and  C_37
REMARK    6  A    between atoms: N_10  and  C_19
REMARK    7  A    between atoms: N_11  and  C_29
REMARK    8  A    between atoms: C_13  and  C_18
REMARK    9  A    between atoms: C_13  and  C_20
REMARK   10  A    between atoms: C_18  and  C_26
REMARK   11  A    between atoms: C_20  and  C_28
REMARK   12  A    between atoms: C_21  and  C_27
REMARK   13  A    between atoms: C_29  and  C_30
REMARK   14  A    between atoms: C_29  and  C_31
REMARK   15  A    between atoms: C_30  and  C_32
REMARK                            x       y       z     vdW  Elec       q    Type
REMARK                         _______ _______ _______ _____ _____    ______ ____
ROOT
ATOM     19  C   UNL     1      -4.128 -12.117  15.196  0.00  0.00    +0.107 C 
ATOM     21  C   UNL     1      -5.759 -11.252  16.942  0.00  0.00    +0.146 C 
ATOM     22  C   UNL     1      -5.282 -11.153  15.492  0.00  0.00    +0.069 C 
ATOM     23  C   UNL     1      -4.476 -13.561  15.585  0.00  0.00    +0.163 C 
ATOM     24  C   UNL     1      -4.974 -13.662  17.028  0.00  0.00    +0.148 C 
ATOM     25  C   UNL     1      -6.121 -12.690  17.310  0.00  0.00    +0.078 C 
ENDROOT
BRANCH  19  10
ATOM      4  O   UNL     1      -2.284 -10.261  13.959  0.00  0.00    -0.276 OA
ATOM     10  N   UNL     1      -3.772 -12.038  13.796  0.00  0.00    -0.310 N 
ATOM     26  C   UNL     1      -2.875 -11.109  13.295  0.00  0.00    +0.214 C 
ATOM     38  H   UNL     1      -4.262 -12.654  13.153  0.00  0.00    +0.149 HD
BRANCH  26  18
ATOM     18  C   UNL     1      -2.693 -11.263  11.796  0.00  0.00    +0.103 C 
BRANCH  18  13
ATOM     13  C   UNL     1      -3.783 -10.547  10.996  0.00  0.00    -0.011 C 
ATOM     14  C   UNL     1      -3.264  -9.241  10.377  0.00  0.00    +0.008 C 
ATOM     15  C   UNL     1      -4.908 -10.034  11.906  0.00  0.00    +0.008 C 
ATOM     16  C   UNL     1      -4.510  -8.391  10.140  0.00  0.00    +0.001 C 
ATOM     17  C   UNL     1      -5.566  -8.900  11.122  0.00  0.00    +0.001 C 
BRANCH  13  20
ATOM     20  C   UNL     1      -4.328 -11.497   9.916  0.00  0.00    +0.127 C 
BRANCH  20  28
ATOM      7  O   UNL     1      -5.172 -13.287  11.339  0.00  0.00    -0.251 OA
ATOM     28  C   UNL     1      -4.448 -12.900  10.434  0.00  0.00    +0.305 C 
BRANCH  28   5
ATOM      5  O   UNL     1      -3.613 -13.712   9.736  0.00  0.00    -0.481 OA
ATOM     43  H   UNL     1      -3.164 -14.362  10.317  0.00  0.00    +0.295 HD
ENDBRANCH  28   5
ENDBRANCH  20  28
ENDBRANCH  13  20
ENDBRANCH  18  13
ENDBRANCH  26  18
ENDBRANCH  19  10
BRANCH  21  27
ATOM      6  O   UNL     1      -6.983  -9.216  16.703  0.00  0.00    -0.273 OA
ATOM     11  N   UNL     1      -7.896 -10.936  17.979  0.00  0.00    -0.301 N 
ATOM     27  C   UNL     1      -6.934 -10.348  17.176  0.00  0.00    +0.246 C 
ATOM     42  H   UNL     1      -7.745 -11.864  18.359  0.00  0.00    +0.150 HD
BRANCH  11  29
ATOM     29  C   UNL     1      -9.114 -10.265  18.372  0.00  0.00    +0.163 C 
BRANCH  29  31
ATOM      8  O   UNL     1      -9.136 -11.944  20.128  0.00  0.00    -0.274 OA
ATOM     12  N   UNL     1     -10.432 -10.066  20.389  0.00  0.00    -0.328 N 
ATOM     31  C   UNL     1      -9.553 -10.872  19.696  0.00  0.00    +0.231 C 
ATOM     44  H   UNL     1     -10.766  -9.181  20.022  0.00  0.00    +0.145 HD
ATOM     45  H   UNL     1     -10.791 -10.346  21.295  0.00  0.00    +0.145 HD
ENDBRANCH  29  31
BRANCH  29  30
ATOM     30  C   UNL     1     -10.222 -10.415  17.323  0.00  0.00    +0.067 C 
BRANCH  30  32
ATOM     32  C   UNL     1     -10.546  -9.115  16.626  0.00  0.00    -0.045 A 
ATOM     33  C   UNL     1     -10.911  -9.117  15.280  0.00  0.00    +0.007 A 
ATOM     34  C   UNL     1     -10.478  -7.912  17.330  0.00  0.00    +0.007 A 
ATOM     35  C   UNL     1     -11.210  -7.916  14.637  0.00  0.00    +0.045 A 
ATOM     36  C   UNL     1     -10.777  -6.711  16.687  0.00  0.00    +0.045 A 
ATOM     37  C   UNL     1     -11.142  -6.712  15.341  0.00  0.00    +0.117 A 
BRANCH  37   9
ATOM      9  O   UNL     1     -11.433  -5.540  14.713  0.00  0.00    -0.507 OA
ATOM     46  H   UNL     1     -11.235  -4.802  15.316  0.00  0.00    +0.292 HD
ENDBRANCH  37   9
ENDBRANCH  30  32
ENDBRANCH  29  30
ENDBRANCH  11  29
ENDBRANCH  21  27
BRANCH  21   1
ATOM      1  O   UNL     1      -4.751 -10.785  17.830  0.00  0.00    -0.379 OA
ATOM     39  H   UNL     1      -3.904 -11.187  17.573  0.00  0.00    +0.211 HD
ENDBRANCH  21   1
BRANCH  23   2
ATOM      2  O   UNL     1      -3.301 -14.369  15.474  0.00  0.00    -0.387 OA
ATOM     40  H   UNL     1      -2.748 -14.002  14.763  0.00  0.00    +0.210 HD
ENDBRANCH  23   2
BRANCH  24   3
ATOM      3  O   UNL     1      -5.432 -14.995  17.255  0.00  0.00    -0.389 OA
ATOM     41  H   UNL     1      -6.399 -14.994  17.144  0.00  0.00    +0.210 HD
ENDBRANCH  24   3
TORSDOF 15
ENDMDL
MODEL 4
REMARK VINA RESULT:      -6.1      2.029      7.249
REMARK  Name = 7134532
REMARK  15 active torsions:
REMARK  status: ('A' for Active; 'I' for Inactive)
REMARK    1  A    between atoms: O_1  and  C_21
REMARK    2  A    between atoms: O_2  and  C_23
REMARK    3  A    between atoms: O_3  and  C_24
REMARK    4  A    between atoms: O_5  and  C_28
REMARK    5  A    between atoms: O_9  and  C_37
REMARK    6  A    between atoms: N_10  and  C_19
REMARK    7  A    between atoms: N_11  and  C_29
REMARK    8  A    between atoms: C_13  and  C_18
REMARK    9  A    between atoms: C_13  and  C_20
REMARK   10  A    between atoms: C_18  and  C_26
REMARK   11  A    between atoms: C_20  and  C_28
REMARK   12  A    between atoms: C_21  and  C_27
REMARK   13  A    between atoms: C_29  and  C_30
REMARK   14  A    between atoms: C_29  and  C_31
REMARK   15  A    between atoms: C_30  and  C_32
REMARK                            x       y       z     vdW  Elec       q    Type
REMARK                         _______ _______ _______ _____ _____    ______ ____
ROOT
ATOM     19  C   UNL     1      13.560   7.472   5.015  0.00  0.00    +0.107 C 
ATOM     21  C   UNL     1      14.272   6.849   2.656  0.00  0.00    +0.146 C 
ATOM     22  C   UNL     1      13.109   6.953   3.645  0.00  0.00    +0.069 C 
ATOM     23  C   UNL     1      14.331   8.794   4.899  0.00  0.00    +0.163 C 
ATOM     24  C   UNL     1      15.482   8.702   3.894  0.00  0.00    +0.148 C 
ATOM     25  C   UNL     1      15.018   8.176   2.535  0.00  0.00    +0.078 C 
ENDROOT
BRANCH  19  10
ATOM      4  O   UNL     1      13.133   6.230   7.593  0.00  0.00    -0.276 OA
ATOM     10  N   UNL     1      12.412   7.626   5.881  0.00  0.00    -0.310 N 
ATOM     26  C   UNL     1      12.297   6.986   7.105  0.00  0.00    +0.214 C 
ATOM     38  H   UNL     1      11.633   8.178   5.533  0.00  0.00    +0.149 HD
BRANCH  26  18
ATOM     18  C   UNL     1      10.991   7.336   7.795  0.00  0.00    +0.103 C 
BRANCH  18  13
ATOM     13  C   UNL     1       9.806   6.535   7.251  0.00  0.00    -0.011 C 
ATOM     14  C   UNL     1      10.245   5.547   6.161  0.00  0.00    +0.008 C 
ATOM     15  C   UNL     1       8.824   7.430   6.482  0.00  0.00    +0.008 C 
ATOM     16  C   UNL     1       8.986   5.274   5.343  0.00  0.00    +0.001 C 
ATOM     17  C   UNL     1       8.073   6.483   5.548  0.00  0.00    +0.001 C 
BRANCH  13  20
ATOM     20  C   UNL     1       9.108   5.809   8.413  0.00  0.00    +0.127 C 
BRANCH  20  28
ATOM      7  O   UNL     1      10.565   5.113  10.239  0.00  0.00    -0.251 OA
ATOM     28  C   UNL     1      10.059   4.909   9.145  0.00  0.00    +0.305 C 
BRANCH  28   5
ATOM      5  O   UNL     1      10.292   3.798   8.401  0.00  0.00    -0.481 OA
ATOM     43  H   UNL     1       9.737   3.777   7.593  0.00  0.00    +0.295 HD
ENDBRANCH  28   5
ENDBRANCH  20  28
ENDBRANCH  13  20
ENDBRANCH  18  13
ENDBRANCH  26  18
ENDBRANCH  19  10
BRANCH  21  27
ATOM      6  O   UNL     1      14.206   6.905   0.269  0.00  0.00    -0.273 OA
ATOM     11  N   UNL     1      12.814   5.422   1.400  0.00  0.00    -0.301 N 
ATOM     27  C   UNL     1      13.782   6.407   1.309  0.00  0.00    +0.246 C 
ATOM     42  H   UNL     1      12.496   5.102   2.309  0.00  0.00    +0.150 HD
BRANCH  11  29
ATOM     29  C   UNL     1      12.165   4.842   0.247  0.00  0.00    +0.163 C 
BRANCH  29  31
ATOM      8  O   UNL     1       9.806   4.371  -0.097  0.00  0.00    -0.274 OA
ATOM     12  N   UNL     1      10.676   4.134   2.015  0.00  0.00    -0.328 N 
ATOM     31  C   UNL     1      10.759   4.448   0.675  0.00  0.00    +0.231 C 
ATOM     44  H   UNL     1      11.471   4.200   2.642  0.00  0.00    +0.145 HD
ATOM     45  H   UNL     1       9.797   3.840   2.427  0.00  0.00    +0.145 HD
ENDBRANCH  29  31
BRANCH  29  30
ATOM     30  C   UNL     1      12.921   3.621  -0.292  0.00  0.00    +0.067 C 
BRANCH  30  32
ATOM     32  C   UNL     1      13.047   3.630  -1.796  0.00  0.00    -0.045 A 
ATOM     33  C   UNL     1      12.319   2.721  -2.563  0.00  0.00    +0.007 A 
ATOM     34  C   UNL     1      13.894   4.548  -2.418  0.00  0.00    +0.007 A 
ATOM     35  C   UNL     1      12.436   2.730  -3.952  0.00  0.00    +0.045 A 
ATOM     36  C   UNL     1      14.011   4.557  -3.808  0.00  0.00    +0.045 A 
ATOM     37  C   UNL     1      13.283   3.648  -4.575  0.00  0.00    +0.117 A 
BRANCH  37   9
ATOM      9  O   UNL     1      13.398   3.656  -5.931  0.00  0.00    -0.507 OA
ATOM     46  H   UNL     1      12.539   3.415  -6.322  0.00  0.00    +0.292 HD
ENDBRANCH  37   9
ENDBRANCH  30  32
ENDBRANCH  29  30
ENDBRANCH  11  29
ENDBRANCH  21  27
BRANCH  21   1
ATOM      1  O   UNL     1      15.185   5.838   3.067  0.00  0.00    -0.379 OA
ATOM     39  H   UNL     1      16.027   6.263   3.305  0.00  0.00    +0.211 HD
ENDBRANCH  21   1
BRANCH  23   2
ATOM      2  O   UNL     1      14.893   9.120   6.173  0.00  0.00    -0.387 OA
ATOM     40  H   UNL     1      14.661  10.041   6.379  0.00  0.00    +0.210 HD
ENDBRANCH  23   2
BRANCH  24   3
ATOM      3  O   UNL     1      16.035  10.006   3.721  0.00  0.00    -0.389 OA
ATOM     41  H   UNL     1      16.048  10.436   4.593  0.00  0.00    +0.210 HD
ENDBRANCH  24   3
TORSDOF 15
ENDMDL
MODEL 5
REMARK VINA RESULT:      -6.0     23.598     27.054
REMARK  Name = 7134532
REMARK  15 active torsions:
REMARK  status: ('A' for Active; 'I' for Inactive)
REMARK    1  A    between atoms: O_1  and  C_21
REMARK    2  A    between atoms: O_2  and  C_23
REMARK    3  A    between atoms: O_3  and  C_24
REMARK    4  A    between atoms: O_5  and  C_28
REMARK    5  A    between atoms: O_9  and  C_37
REMARK    6  A    between atoms: N_10  and  C_19
REMARK    7  A    between atoms: N_11  and  C_29
REMARK    8  A    between atoms: C_13  and  C_18
REMARK    9  A    between atoms: C_13  and  C_20
REMARK   10  A    between atoms: C_18  and  C_26
REMARK   11  A    between atoms: C_20  and  C_28
REMARK   12  A    between atoms: C_21  and  C_27
REMARK   13  A    between atoms: C_29  and  C_30
REMARK   14  A    between atoms: C_29  and  C_31
REMARK   15  A    between atoms: C_30  and  C_32
REMARK                            x       y       z     vdW  Elec       q    Type
REMARK                         _______ _______ _______ _____ _____    ______ ____
ROOT
ATOM     19  C   UNL     1      -3.880 -11.836  14.495  0.00  0.00    +0.107 C 
ATOM     21  C   UNL     1      -2.732 -11.087  12.355  0.00  0.00    +0.146 C 
ATOM     22  C   UNL     1      -4.067 -11.379  13.045  0.00  0.00    +0.069 C 
ATOM     23  C   UNL     1      -3.025 -10.846  15.301  0.00  0.00    +0.163 C 
ATOM     24  C   UNL     1      -1.698 -10.535  14.604  0.00  0.00    +0.148 C 
ATOM     25  C   UNL     1      -1.901 -10.086  13.156  0.00  0.00    +0.078 C 
ENDROOT
BRANCH  19  10
ATOM      4  O   UNL     1      -4.597 -13.810  16.486  0.00  0.00    -0.276 OA
ATOM     10  N   UNL     1      -5.171 -12.019  15.121  0.00  0.00    -0.310 N 
ATOM     26  C   UNL     1      -5.420 -12.999  16.068  0.00  0.00    +0.214 C 
ATOM     38  H   UNL     1      -5.938 -11.440  14.790  0.00  0.00    +0.149 HD
BRANCH  26  18
ATOM     18  C   UNL     1      -6.859 -12.953  16.551  0.00  0.00    +0.103 C 
BRANCH  18  13
ATOM     13  C   UNL     1      -7.074 -11.922  17.660  0.00  0.00    -0.011 C 
ATOM     14  C   UNL     1      -5.805 -11.097  17.919  0.00  0.00    +0.008 C 
ATOM     15  C   UNL     1      -7.291 -12.594  19.023  0.00  0.00    +0.008 C 
ATOM     16  C   UNL     1      -5.957 -10.572  19.344  0.00  0.00    +0.001 C 
ATOM     17  C   UNL     1      -6.911 -11.533  20.053  0.00  0.00    +0.001 C 
BRANCH  13  20
ATOM     20  C   UNL     1      -8.261 -11.018  17.288  0.00  0.00    +0.127 C 
BRANCH  20  28
ATOM      7  O   UNL     1      -7.673 -10.319  15.028  0.00  0.00    -0.251 OA
ATOM     28  C   UNL     1      -7.892 -10.052  16.200  0.00  0.00    +0.305 C 
BRANCH  28   5
ATOM      5  O   UNL     1      -7.832  -8.797  16.713  0.00  0.00    -0.481 OA
ATOM     43  H   UNL     1      -7.874  -8.113  16.012  0.00  0.00    +0.295 HD
ENDBRANCH  28   5
ENDBRANCH  20  28
ENDBRANCH  13  20
ENDBRANCH  18  13
ENDBRANCH  26  18
ENDBRANCH  19  10
BRANCH  21  27
ATOM      6  O   UNL     1      -2.441  -9.533  10.565  0.00  0.00    -0.273 OA
ATOM     11  N   UNL     1      -3.806 -11.390  10.236  0.00  0.00    -0.301 N 
ATOM     27  C   UNL     1      -2.957 -10.574  10.963  0.00  0.00    +0.246 C 
ATOM     42  H   UNL     1      -4.219 -12.210  10.666  0.00  0.00    +0.150 HD
BRANCH  11  29
ATOM     29  C   UNL     1      -4.201 -11.106   8.875  0.00  0.00    +0.163 C 
BRANCH  29  31
ATOM      8  O   UNL     1      -6.381 -10.166   9.392  0.00  0.00    -0.274 OA
ATOM     12  N   UNL     1      -4.788  -8.797   8.464  0.00  0.00    -0.328 N 
ATOM     31  C   UNL     1      -5.252 -10.007   8.934  0.00  0.00    +0.231 C 
ATOM     44  H   UNL     1      -3.852  -8.679   8.089  0.00  0.00    +0.145 HD
ATOM     45  H   UNL     1      -5.384  -7.976   8.461  0.00  0.00    +0.145 HD
ENDBRANCH  29  31
BRANCH  29  30
ATOM     30  C   UNL     1      -4.761 -12.343   8.163  0.00  0.00    +0.067 C 
BRANCH  30  32
ATOM     32  C   UNL     1      -4.457 -12.352   6.684  0.00  0.00    -0.045 A 
ATOM     33  C   UNL     1      -5.359 -11.788   5.783  0.00  0.00    +0.007 A 
ATOM     34  C   UNL     1      -3.273 -12.926   6.220  0.00  0.00    +0.007 A 
ATOM     35  C   UNL     1      -5.078 -11.797   4.417  0.00  0.00    +0.045 A 
ATOM     36  C   UNL     1      -2.992 -12.935   4.854  0.00  0.00    +0.045 A 
ATOM     37  C   UNL     1      -3.894 -12.371   3.952  0.00  0.00    +0.117 A 
BRANCH  37   9
ATOM      9  O   UNL     1      -3.620 -12.380   2.619  0.00  0.00    -0.507 OA
ATOM     46  H   UNL     1      -2.984 -11.670   2.423  0.00  0.00    +0.292 HD
ENDBRANCH  37   9
ENDBRANCH  30  32
ENDBRANCH  29  30
ENDBRANCH  11  29
ENDBRANCH  21  27
BRANCH  21   1
ATOM      1  O   UNL     1      -1.985 -12.286  12.191  0.00  0.00    -0.379 OA
ATOM     39  H   UNL     1      -2.564 -12.956  11.790  0.00  0.00    +0.211 HD
ENDBRANCH  21   1
BRANCH  23   2
ATOM      2  O   UNL     1      -2.721 -11.422  16.574  0.00  0.00    -0.387 OA
ATOM     40  H   UNL     1      -2.915 -10.759  17.259  0.00  0.00    +0.210 HD
ENDBRANCH  23   2
BRANCH  24   3
ATOM      3  O   UNL     1      -1.045  -9.489  15.325  0.00  0.00    -0.389 OA
ATOM     41  H   UNL     1      -1.048  -9.736  16.265  0.00  0.00    +0.210 HD
ENDBRANCH  24   3
TORSDOF 15
ENDMDL
MODEL 6
REMARK VINA RESULT:      -5.9     25.364     28.773
REMARK  Name = 7134532
REMARK  15 active torsions:
REMARK  status: ('A' for Active; 'I' for Inactive)
REMARK    1  A    between atoms: O_1  and  C_21
REMARK    2  A    between atoms: O_2  and  C_23
REMARK    3  A    between atoms: O_3  and  C_24
REMARK    4  A    between atoms: O_5  and  C_28
REMARK    5  A    between atoms: O_9  and  C_37
REMARK    6  A    between atoms: N_10  and  C_19
REMARK    7  A    between atoms: N_11  and  C_29
REMARK    8  A    between atoms: C_13  and  C_18
REMARK    9  A    between atoms: C_13  and  C_20
REMARK   10  A    between atoms: C_18  and  C_26
REMARK   11  A    between atoms: C_20  and  C_28
REMARK   12  A    between atoms: C_21  and  C_27
REMARK   13  A    between atoms: C_29  and  C_30
REMARK   14  A    between atoms: C_29  and  C_31
REMARK   15  A    between atoms: C_30  and  C_32
REMARK                            x       y       z     vdW  Elec       q    Type
REMARK                         _______ _______ _______ _____ _____    ______ ____
ROOT
ATOM     19  C   UNL     1      -5.493 -10.288  16.962  0.00  0.00    +0.107 C 
ATOM     21  C   UNL     1      -7.124 -10.951  18.795  0.00  0.00    +0.146 C 
ATOM     22  C   UNL     1      -6.963 -10.370  17.388  0.00  0.00    +0.069 C 
ATOM     23  C   UNL     1      -4.779 -11.639  17.107  0.00  0.00    +0.163 C 
ATOM     24  C   UNL     1      -4.956 -12.234  18.507  0.00  0.00    +0.148 C 
ATOM     25  C   UNL     1      -6.427 -12.304  18.920  0.00  0.00    +0.078 C 
ENDROOT
BRANCH  19  10
ATOM      4  O   UNL     1      -6.535 -11.569  14.586  0.00  0.00    -0.276 OA
ATOM     10  N   UNL     1      -5.406  -9.809  15.600  0.00  0.00    -0.310 N 
ATOM     26  C   UNL     1      -5.938 -10.498  14.521  0.00  0.00    +0.214 C 
ATOM     38  H   UNL     1      -4.868  -8.963  15.434  0.00  0.00    +0.149 HD
BRANCH  26  18
ATOM     18  C   UNL     1      -5.698  -9.758  13.217  0.00  0.00    +0.103 C 
BRANCH  18  13
ATOM     13  C   UNL     1      -4.614 -10.414  12.360  0.00  0.00    -0.011 C 
ATOM     14  C   UNL     1      -3.341 -10.688  13.173  0.00  0.00    +0.008 C 
ATOM     15  C   UNL     1      -4.093  -9.459  11.278  0.00  0.00    +0.008 C 
ATOM     16  C   UNL     1      -2.221 -10.774  12.139  0.00  0.00    +0.001 C 
ATOM     17  C   UNL     1      -2.703  -9.983  10.922  0.00  0.00    +0.001 C 
BRANCH  13  20
ATOM     20  C   UNL     1      -5.170 -11.708  11.742  0.00  0.00    +0.127 C 
BRANCH  20  28
ATOM      7  O   UNL     1      -6.657 -10.813  10.030  0.00  0.00    -0.251 OA
ATOM     28  C   UNL     1      -6.478 -11.464  11.049  0.00  0.00    +0.305 C 
BRANCH  28   5
ATOM      5  O   UNL     1      -7.473 -12.086  11.731  0.00  0.00    -0.481 OA
ATOM     43  H   UNL     1      -8.346 -11.960  11.303  0.00  0.00    +0.295 HD
ENDBRANCH  28   5
ENDBRANCH  20  28
ENDBRANCH  13  20
ENDBRANCH  18  13
ENDBRANCH  26  18
ENDBRANCH  19  10
BRANCH  21  27
ATOM      6  O   UNL     1      -8.994 -10.830  20.276  0.00  0.00    -0.273 OA
ATOM     11  N   UNL     1      -9.337 -11.531  18.083  0.00  0.00    -0.301 N 
ATOM     27  C   UNL     1      -8.576 -11.083  19.149  0.00  0.00    +0.246 C 
ATOM     42  H   UNL     1      -8.893 -11.756  17.199  0.00  0.00    +0.150 HD
BRANCH  11  29
ATOM     29  C   UNL     1     -10.760 -11.763  18.171  0.00  0.00    +0.163 C 
BRANCH  29  31
ATOM      8  O   UNL     1     -10.594 -13.937  19.245  0.00  0.00    -0.274 OA
ATOM     12  N   UNL     1     -11.654 -13.795  17.213  0.00  0.00    -0.328 N 
ATOM     31  C   UNL     1     -10.963 -13.267  18.284  0.00  0.00    +0.231 C 
ATOM     44  H   UNL     1     -11.955 -13.231  16.425  0.00  0.00    +0.145 HD
ATOM     45  H   UNL     1     -11.870 -14.786  17.170  0.00  0.00    +0.145 HD
ENDBRANCH  29  31
BRANCH  29  30
ATOM     30  C   UNL     1     -11.514 -11.213  16.954  0.00  0.00    +0.067 C 
BRANCH  30  32
ATOM     32  C   UNL     1     -11.063  -9.824  16.568  0.00  0.00    -0.045 A 
ATOM     33  C   UNL     1     -10.384  -9.619  15.368  0.00  0.00    +0.007 A 
ATOM     34  C   UNL     1     -11.328  -8.747  17.414  0.00  0.00    +0.007 A 
ATOM     35  C   UNL     1      -9.969  -8.336  15.012  0.00  0.00    +0.045 A 
ATOM     36  C   UNL     1     -10.913  -7.464  17.058  0.00  0.00    +0.045 A 
ATOM     37  C   UNL     1     -10.233  -7.258  15.858  0.00  0.00    +0.117 A 
BRANCH  37   9
ATOM      9  O   UNL     1      -9.827  -6.006  15.511  0.00  0.00    -0.507 OA
ATOM     46  H   UNL     1     -10.588  -5.515  15.155  0.00  0.00    +0.292 HD
ENDBRANCH  37   9
ENDBRANCH  30  32
ENDBRANCH  29  30
ENDBRANCH  11  29
ENDBRANCH  21  27
BRANCH  21   1
ATOM      1  O   UNL     1      -6.587 -10.059  19.765  0.00  0.00    -0.379 OA
ATOM     39  H   UNL     1      -5.766 -10.445  20.116  0.00  0.00    +0.211 HD
ENDBRANCH  21   1
BRANCH  23   2
ATOM      2  O   UNL     1      -3.378 -11.452  16.890  0.00  0.00    -0.387 OA
ATOM     40  H   UNL     1      -3.218 -11.459  15.931  0.00  0.00    +0.210 HD
ENDBRANCH  23   2
BRANCH  24   3
ATOM      3  O   UNL     1      -4.412 -13.554  18.508  0.00  0.00    -0.389 OA
ATOM     41  H   UNL     1      -5.159 -14.177  18.469  0.00  0.00    +0.210 HD
ENDBRANCH  24   3
TORSDOF 15
ENDMDL
MODEL 7
REMARK VINA RESULT:      -5.9     24.101     27.482
REMARK  Name = 7134532
REMARK  15 active torsions:
REMARK  status: ('A' for Active; 'I' for Inactive)
REMARK    1  A    between atoms: O_1  and  C_21
REMARK    2  A    between atoms: O_2  and  C_23
REMARK    3  A    between atoms: O_3  and  C_24
REMARK    4  A    between atoms: O_5  and  C_28
REMARK    5  A    between atoms: O_9  and  C_37
REMARK    6  A    between atoms: N_10  and  C_19
REMARK    7  A    between atoms: N_11  and  C_29
REMARK    8  A    between atoms: C_13  and  C_18
REMARK    9  A    between atoms: C_13  and  C_20
REMARK   10  A    between atoms: C_18  and  C_26
REMARK   11  A    between atoms: C_20  and  C_28
REMARK   12  A    between atoms: C_21  and  C_27
REMARK   13  A    between atoms: C_29  and  C_30
REMARK   14  A    between atoms: C_29  and  C_31
REMARK   15  A    between atoms: C_30  and  C_32
REMARK                            x       y       z     vdW  Elec       q    Type
REMARK                         _______ _______ _______ _____ _____    ______ ____
ROOT
ATOM     19  C   UNL     1      -4.390 -10.924  15.611  0.00  0.00    +0.107 C 
ATOM     21  C   UNL     1      -3.392 -11.020  13.276  0.00  0.00    +0.146 C 
ATOM     22  C   UNL     1      -4.487 -10.427  14.165  0.00  0.00    +0.069 C 
ATOM     23  C   UNL     1      -2.991 -10.697  16.201  0.00  0.00    +0.163 C 
ATOM     24  C   UNL     1      -1.890 -11.271  15.304  0.00  0.00    +0.148 C 
ATOM     25  C   UNL     1      -2.004 -10.771  13.863  0.00  0.00    +0.078 C 
ENDROOT
BRANCH  19  10
ATOM      4  O   UNL     1      -6.355 -12.188  17.318  0.00  0.00    -0.276 OA
ATOM     10  N   UNL     1      -5.395 -10.271  16.421  0.00  0.00    -0.310 N 
ATOM     26  C   UNL     1      -6.298 -10.966  17.210  0.00  0.00    +0.214 C 
ATOM     38  H   UNL     1      -5.475  -9.261  16.345  0.00  0.00    +0.149 HD
BRANCH  26  18
ATOM     18  C   UNL     1      -7.231 -10.023  17.949  0.00  0.00    +0.103 C 
BRANCH  18  13
ATOM     13  C   UNL     1      -8.660 -10.065  17.406  0.00  0.00    -0.011 C 
ATOM     14  C   UNL     1      -8.685 -10.378  15.903  0.00  0.00    +0.008 C 
ATOM     15  C   UNL     1      -9.322  -8.680  17.445  0.00  0.00    +0.008 C 
ATOM     16  C   UNL     1     -10.019  -9.831  15.405  0.00  0.00    +0.001 C 
ATOM     17  C   UNL     1     -10.428  -8.740  16.394  0.00  0.00    +0.001 C 
BRANCH  13  20
ATOM     20  C   UNL     1      -9.476 -11.096  18.203  0.00  0.00    +0.127 C 
BRANCH  20  28
ATOM      7  O   UNL     1      -8.159 -11.872  20.102  0.00  0.00    -0.251 OA
ATOM     28  C   UNL     1      -9.031 -11.155  19.635  0.00  0.00    +0.305 C 
BRANCH  28   5
ATOM      5  O   UNL     1      -9.756 -10.271  20.369  0.00  0.00    -0.481 OA
ATOM     43  H   UNL     1      -9.295  -9.411  20.463  0.00  0.00    +0.295 HD
ENDBRANCH  28   5
ENDBRANCH  20  28
ENDBRANCH  13  20
ENDBRANCH  18  13
ENDBRANCH  26  18
ENDBRANCH  19  10
BRANCH  21  27
ATOM      6  O   UNL     1      -2.521  -9.890  11.361  0.00  0.00    -0.273 OA
ATOM     11  N   UNL     1      -4.725 -10.638  11.323  0.00  0.00    -0.301 N 
ATOM     27  C   UNL     1      -3.475 -10.457  11.888  0.00  0.00    +0.246 C 
ATOM     42  H   UNL     1      -5.465 -11.082  11.854  0.00  0.00    +0.150 HD
BRANCH  11  29
ATOM     29  C   UNL     1      -5.070 -10.166  10.001  0.00  0.00    +0.163 C 
BRANCH  29  31
ATOM      8  O   UNL     1      -6.387  -8.519  11.208  0.00  0.00    -0.274 OA
ATOM     12  N   UNL     1      -5.718  -8.033   9.066  0.00  0.00    -0.328 N 
ATOM     31  C   UNL     1      -5.809  -8.847  10.175  0.00  0.00    +0.231 C 
ATOM     44  H   UNL     1      -5.235  -8.315   8.219  0.00  0.00    +0.145 HD
ATOM     45  H   UNL     1      -6.154  -7.117   9.055  0.00  0.00    +0.145 HD
ENDBRANCH  29  31
BRANCH  29  30
ATOM     30  C   UNL     1      -5.942 -11.169   9.236  0.00  0.00    +0.067 C 
BRANCH  30  32
ATOM     32  C   UNL     1      -5.447 -11.421   7.833  0.00  0.00    -0.045 A 
ATOM     33  C   UNL     1      -4.369 -12.279   7.615  0.00  0.00    +0.007 A 
ATOM     34  C   UNL     1      -6.070 -10.794   6.752  0.00  0.00    +0.007 A 
ATOM     35  C   UNL     1      -3.913 -12.510   6.318  0.00  0.00    +0.045 A 
ATOM     36  C   UNL     1      -5.613 -11.026   5.455  0.00  0.00    +0.045 A 
ATOM     37  C   UNL     1      -4.535 -11.884   5.237  0.00  0.00    +0.117 A 
BRANCH  37   9
ATOM      9  O   UNL     1      -4.089 -12.109   3.971  0.00  0.00    -0.507 OA
ATOM     46  H   UNL     1      -3.118 -12.176   3.986  0.00  0.00    +0.292 HD
ENDBRANCH  37   9
ENDBRANCH  30  32
ENDBRANCH  29  30
ENDBRANCH  11  29
ENDBRANCH  21  27
BRANCH  21   1
ATOM      1  O   UNL     1      -3.585 -12.421  13.118  0.00  0.00    -0.379 OA
ATOM     39  H   UNL     1      -4.153 -12.567  12.342  0.00  0.00    +0.211 HD
ENDBRANCH  21   1
BRANCH  23   2
ATOM      2  O   UNL     1      -2.906 -11.357  17.467  0.00  0.00    -0.387 OA
ATOM     40  H   UNL     1      -3.603 -10.999  18.042  0.00  0.00    +0.210 HD
ENDBRANCH  23   2
BRANCH  24   3
ATOM      3  O   UNL     1      -0.625 -10.873  15.833  0.00  0.00    -0.389 OA
ATOM     41  H   UNL     1      -0.071 -11.671  15.895  0.00  0.00    +0.210 HD
ENDBRANCH  24   3
TORSDOF 15
ENDMDL
MODEL 8
REMARK VINA RESULT:      -5.9      1.919      3.214
REMARK  Name = 7134532
REMARK  15 active torsions:
REMARK  status: ('A' for Active; 'I' for Inactive)
REMARK    1  A    between atoms: O_1  and  C_21
REMARK    2  A    between atoms: O_2  and  C_23
REMARK    3  A    between atoms: O_3  and  C_24
REMARK    4  A    between atoms: O_5  and  C_28
REMARK    5  A    between atoms: O_9  and  C_37
REMARK    6  A    between atoms: N_10  and  C_19
REMARK    7  A    between atoms: N_11  and  C_29
REMARK    8  A    between atoms: C_13  and  C_18
REMARK    9  A    between atoms: C_13  and  C_20
REMARK   10  A    between atoms: C_18  and  C_26
REMARK   11  A    between atoms: C_20  and  C_28
REMARK   12  A    between atoms: C_21  and  C_27
REMARK   13  A    between atoms: C_29  and  C_30
REMARK   14  A    between atoms: C_29  and  C_31
REMARK   15  A    between atoms: C_30  and  C_32
REMARK                            x       y       z     vdW  Elec       q    Type
REMARK                         _______ _______ _______ _____ _____    ______ ____
ROOT
ATOM     19  C   UNL     1      13.680   7.071   3.186  0.00  0.00    +0.107 C 
ATOM     21  C   UNL     1      12.515   9.029   4.314  0.00  0.00    +0.146 C 
ATOM     22  C   UNL     1      12.339   7.742   3.504  0.00  0.00    +0.069 C 
ATOM     23  C   UNL     1      14.518   6.840   4.452  0.00  0.00    +0.163 C 
ATOM     24  C   UNL     1      14.679   8.120   5.276  0.00  0.00    +0.148 C 
ATOM     25  C   UNL     1      13.333   8.781   5.580  0.00  0.00    +0.078 C 
ENDROOT
BRANCH  19  10
ATOM      4  O   UNL     1      15.296   5.912   1.086  0.00  0.00    -0.276 OA
ATOM     10  N   UNL     1      13.450   5.823   2.493  0.00  0.00    -0.310 N 
ATOM     26  C   UNL     1      14.284   5.348   1.494  0.00  0.00    +0.214 C 
ATOM     38  H   UNL     1      12.597   5.316   2.712  0.00  0.00    +0.149 HD
BRANCH  26  18
ATOM     18  C   UNL     1      13.799   4.016   0.951  0.00  0.00    +0.103 C 
BRANCH  18  13
ATOM     13  C   UNL     1      13.167   4.144  -0.437  0.00  0.00    -0.011 C 
ATOM     14  C   UNL     1      12.515   2.828  -0.884  0.00  0.00    +0.008 C 
ATOM     15  C   UNL     1      14.230   4.349  -1.525  0.00  0.00    +0.008 C 
ATOM     16  C   UNL     1      12.465   2.907  -2.407  0.00  0.00    +0.001 C 
ATOM     17  C   UNL     1      13.567   3.884  -2.820  0.00  0.00    +0.001 C 
BRANCH  13  20
ATOM     20  C   UNL     1      12.148   5.295  -0.426  0.00  0.00    +0.127 C 
BRANCH  20  28
ATOM      7  O   UNL     1       9.862   4.466  -0.584  0.00  0.00    -0.251 OA
ATOM     28  C   UNL     1      10.813   4.839   0.085  0.00  0.00    +0.305 C 
BRANCH  28   5
ATOM      5  O   UNL     1      10.806   4.900   1.441  0.00  0.00    -0.481 OA
ATOM     43  H   UNL     1      11.495   4.326   1.837  0.00  0.00    +0.295 HD
ENDBRANCH  28   5
ENDBRANCH  20  28
ENDBRANCH  13  20
ENDBRANCH  18  13
ENDBRANCH  26  18
ENDBRANCH  19  10
BRANCH  21  27
ATOM      6  O   UNL     1      10.512  10.243   3.848  0.00  0.00    -0.273 OA
ATOM     11  N   UNL     1      10.841   9.388   5.989  0.00  0.00    -0.301 N 
ATOM     27  C   UNL     1      11.181   9.618   4.667  0.00  0.00    +0.246 C 
ATOM     42  H   UNL     1      11.481   8.896   6.602  0.00  0.00    +0.150 HD
BRANCH  11  29
ATOM     29  C   UNL     1       9.616   9.871   6.584  0.00  0.00    +0.163 C 
BRANCH  29  31
ATOM      8  O   UNL     1       9.087  10.546   8.858  0.00  0.00    -0.274 OA
ATOM     12  N   UNL     1      11.289  10.213   8.295  0.00  0.00    -0.328 N 
ATOM     31  C   UNL     1       9.938  10.262   8.019  0.00  0.00    +0.231 C 
ATOM     44  H   UNL     1      11.982   9.975   7.593  0.00  0.00    +0.145 HD
ATOM     45  H   UNL     1      11.639  10.436   9.221  0.00  0.00    +0.145 HD
ENDBRANCH  29  31
BRANCH  29  30
ATOM     30  C   UNL     1       8.502   8.818   6.555  0.00  0.00    +0.067 C 
BRANCH  30  32
ATOM     32  C   UNL     1       8.988   7.444   6.949  0.00  0.00    -0.045 A 
ATOM     33  C   UNL     1       9.374   6.532   5.968  0.00  0.00    +0.007 A 
ATOM     34  C   UNL     1       9.051   7.089   8.297  0.00  0.00    +0.007 A 
ATOM     35  C   UNL     1       9.823   5.263   6.333  0.00  0.00    +0.045 A 
ATOM     36  C   UNL     1       9.500   5.820   8.662  0.00  0.00    +0.045 A 
ATOM     37  C   UNL     1       9.886   4.906   7.681  0.00  0.00    +0.117 A 
BRANCH  37   9
ATOM      9  O   UNL     1      10.324   3.668   8.037  0.00  0.00    -0.507 OA
ATOM     46  H   UNL     1      10.126   3.523   8.979  0.00  0.00    +0.292 HD
ENDBRANCH  37   9
ENDBRANCH  30  32
ENDBRANCH  29  30
ENDBRANCH  11  29
ENDBRANCH  21  27
BRANCH  21   1
ATOM      1  O   UNL     1      13.162  10.024   3.530  0.00  0.00    -0.379 OA
ATOM     39  H   UNL     1      13.947  10.334   4.013  0.00  0.00    +0.211 HD
ENDBRANCH  21   1
BRANCH  23   2
ATOM      2  O   UNL     1      15.825   6.402   4.073  0.00  0.00    -0.387 OA
ATOM     40  H   UNL     1      16.037   5.604   4.586  0.00  0.00    +0.210 HD
ENDBRANCH  23   2
BRANCH  24   3
ATOM      3  O   UNL     1      15.318   7.786   6.508  0.00  0.00    -0.389 OA
ATOM     41  H   UNL     1      14.946   8.366   7.196  0.00  0.00    +0.210 HD
ENDBRANCH  24   3
TORSDOF 15
ENDMDL
MODEL 9
REMARK VINA RESULT:      -5.9     31.409     36.309
REMARK  Name = 7134532
REMARK  15 active torsions:
REMARK  status: ('A' for Active; 'I' for Inactive)
REMARK    1  A    between atoms: O_1  and  C_21
REMARK    2  A    between atoms: O_2  and  C_23
REMARK    3  A    between atoms: O_3  and  C_24
REMARK    4  A    between atoms: O_5  and  C_28
REMARK    5  A    between atoms: O_9  and  C_37
REMARK    6  A    between atoms: N_10  and  C_19
REMARK    7  A    between atoms: N_11  and  C_29
REMARK    8  A    between atoms: C_13  and  C_18
REMARK    9  A    between atoms: C_13  and  C_20
REMARK   10  A    between atoms: C_18  and  C_26
REMARK   11  A    between atoms: C_20  and  C_28
REMARK   12  A    between atoms: C_21  and  C_27
REMARK   13  A    between atoms: C_29  and  C_30
REMARK   14  A    between atoms: C_29  and  C_31
REMARK   15  A    between atoms: C_30  and  C_32
REMARK                            x       y       z     vdW  Elec       q    Type
REMARK                         _______ _______ _______ _____ _____    ______ ____
ROOT
ATOM     19  C   UNL     1      -5.582  12.518  33.850  0.00  0.00    +0.107 C 
ATOM     21  C   UNL     1      -3.661  14.135  33.458  0.00  0.00    +0.146 C 
ATOM     22  C   UNL     1      -4.129  12.871  34.183  0.00  0.00    +0.069 C 
ATOM     23  C   UNL     1      -5.815  12.427  32.335  0.00  0.00    +0.163 C 
ATOM     24  C   UNL     1      -5.328  13.680  31.602  0.00  0.00    +0.148 C 
ATOM     25  C   UNL     1      -3.879  14.023  31.951  0.00  0.00    +0.078 C 
ENDROOT
BRANCH  19  10
ATOM      4  O   UNL     1      -6.112  12.099  36.663  0.00  0.00    -0.276 OA
ATOM     10  N   UNL     1      -5.944  11.276  34.497  0.00  0.00    -0.310 N 
ATOM     26  C   UNL     1      -6.179  11.174  35.858  0.00  0.00    +0.214 C 
ATOM     38  H   UNL     1      -5.957  10.437  33.924  0.00  0.00    +0.149 HD
BRANCH  26  18
ATOM     18  C   UNL     1      -6.543   9.754  36.254  0.00  0.00    +0.103 C 
BRANCH  18  13
ATOM     13  C   UNL     1      -7.967   9.644  36.803  0.00  0.00    -0.011 C 
ATOM     14  C   UNL     1      -8.016   9.929  38.310  0.00  0.00    +0.008 C 
ATOM     15  C   UNL     1      -8.486   8.201  36.743  0.00  0.00    +0.008 C 
ATOM     16  C   UNL     1      -9.286   9.243  38.803  0.00  0.00    +0.001 C 
ATOM     17  C   UNL     1      -9.589   8.132  37.797  0.00  0.00    +0.001 C 
BRANCH  13  20
ATOM     20  C   UNL     1      -8.885  10.601  36.024  0.00  0.00    +0.127 C 
BRANCH  20  28
ATOM      7  O   UNL     1     -10.550   9.405  34.704  0.00  0.00    -0.251 OA
ATOM     28  C   UNL     1      -9.455   9.939  34.804  0.00  0.00    +0.305 C 
BRANCH  28   5
ATOM      5  O   UNL     1      -8.557  10.015  33.789  0.00  0.00    -0.481 OA
ATOM     43  H   UNL     1      -7.692   9.624  34.035  0.00  0.00    +0.295 HD
ENDBRANCH  28   5
ENDBRANCH  20  28
ENDBRANCH  13  20
ENDBRANCH  18  13
ENDBRANCH  26  18
ENDBRANCH  19  10
BRANCH  21  27
ATOM      6  O   UNL     1      -1.870  15.239  34.589  0.00  0.00    -0.273 OA
ATOM     11  N   UNL     1      -1.368  13.646  32.967  0.00  0.00    -0.301 N 
ATOM     27  C   UNL     1      -2.215  14.409  33.752  0.00  0.00    +0.246 C 
ATOM     42  H   UNL     1      -1.748  13.015  32.270  0.00  0.00    +0.150 HD
BRANCH  11  29
ATOM     29  C   UNL     1       0.073  13.738  33.041  0.00  0.00    +0.163 C 
BRANCH  29  31
ATOM      8  O   UNL     1       0.999  15.146  31.290  0.00  0.00    -0.274 OA
ATOM     12  N   UNL     1       0.550  12.946  30.807  0.00  0.00    -0.328 N 
ATOM     31  C   UNL     1       0.574  14.047  31.637  0.00  0.00    +0.231 C 
ATOM     44  H   UNL     1       0.198  12.043  31.107  0.00  0.00    +0.145 HD
ATOM     45  H   UNL     1       0.872  13.011  29.847  0.00  0.00    +0.145 HD
ENDBRANCH  29  31
BRANCH  29  30
ATOM     30  C   UNL     1       0.710  12.445  33.563  0.00  0.00    +0.067 C 
BRANCH  30  32
ATOM     32  C   UNL     1       0.412  12.195  35.021  0.00  0.00    -0.045 A 
ATOM     33  C   UNL     1      -0.176  10.994  35.418  0.00  0.00    +0.007 A 
ATOM     34  C   UNL     1       0.725  13.167  35.972  0.00  0.00    +0.007 A 
ATOM     35  C   UNL     1      -0.451  10.764  36.766  0.00  0.00    +0.045 A 
ATOM     36  C   UNL     1       0.449  12.937  37.320  0.00  0.00    +0.045 A 
ATOM     37  C   UNL     1      -0.139  11.736  37.717  0.00  0.00    +0.117 A 
BRANCH  37   9
ATOM      9  O   UNL     1      -0.408  11.512  39.032  0.00  0.00    -0.507 OA
ATOM     46  H   UNL     1      -0.168  10.594  39.251  0.00  0.00    +0.292 HD
ENDBRANCH  37   9
ENDBRANCH  30  32
ENDBRANCH  29  30
ENDBRANCH  11  29
ENDBRANCH  21  27
BRANCH  21   1
ATOM      1  O   UNL     1      -4.359  15.275  33.945  0.00  0.00    -0.379 OA
ATOM     39  H   UNL     1      -4.617  15.825  33.186  0.00  0.00    +0.211 HD
ENDBRANCH  21   1
BRANCH  23   2
ATOM      2  O   UNL     1      -7.217  12.296  32.085  0.00  0.00    -0.387 OA
ATOM     40  H   UNL     1      -7.371  12.450  31.138  0.00  0.00    +0.210 HD
ENDBRANCH  23   2
BRANCH  24   3
ATOM      3  O   UNL     1      -5.423  13.446  30.197  0.00  0.00    -0.389 OA
ATOM     41  H   UNL     1      -5.319  12.490  30.052  0.00  0.00    +0.210 HD
ENDBRANCH  24   3
TORSDOF 15
ENDMDL
MODEL 10
REMARK VINA RESULT:      -5.8     25.158     28.623
REMARK  Name = 7134532
REMARK  15 active torsions:
REMARK  status: ('A' for Active; 'I' for Inactive)
REMARK    1  A    between atoms: O_1  and  C_21
REMARK    2  A    between atoms: O_2  and  C_23
REMARK    3  A    between atoms: O_3  and  C_24
REMARK    4  A    between atoms: O_5  and  C_28
REMARK    5  A    between atoms: O_9  and  C_37
REMARK    6  A    between atoms: N_10  and  C_19
REMARK    7  A    between atoms: N_11  and  C_29
REMARK    8  A    between atoms: C_13  and  C_18
REMARK    9  A    between atoms: C_13  and  C_20
REMARK   10  A    between atoms: C_18  and  C_26
REMARK   11  A    between atoms: C_20  and  C_28
REMARK   12  A    between atoms: C_21  and  C_27
REMARK   13  A    between atoms: C_29  and  C_30
REMARK   14  A    between atoms: C_29  and  C_31
REMARK   15  A    between atoms: C_30  and  C_32
REMARK                            x       y       z     vdW  Elec       q    Type
REMARK                         _______ _______ _______ _____ _____    ______ ____
ROOT
ATOM     19  C   UNL     1      -5.125 -10.360  17.087  0.00  0.00    +0.107 C 
ATOM     21  C   UNL     1      -6.896 -10.951  18.811  0.00  0.00    +0.146 C 
ATOM     22  C   UNL     1      -6.624 -10.467  17.385  0.00  0.00    +0.069 C 
ATOM     23  C   UNL     1      -4.386 -11.670  17.396  0.00  0.00    +0.163 C 
ATOM     24  C   UNL     1      -4.672 -12.169  18.815  0.00  0.00    +0.148 C 
ATOM     25  C   UNL     1      -6.172 -12.265  19.099  0.00  0.00    +0.078 C 
ENDROOT
BRANCH  19  10
ATOM      4  O   UNL     1      -6.086 -11.741  14.733  0.00  0.00    -0.276 OA
ATOM     10  N   UNL     1      -4.927  -9.978  15.706  0.00  0.00    -0.310 N 
ATOM     26  C   UNL     1      -5.428 -10.708  14.641  0.00  0.00    +0.214 C 
ATOM     38  H   UNL     1      -4.334  -9.173  15.524  0.00  0.00    +0.149 HD
BRANCH  26  18
ATOM     18  C   UNL     1      -5.069 -10.069  13.311  0.00  0.00    +0.103 C 
BRANCH  18  13
ATOM     13  C   UNL     1      -4.059 -10.898  12.515  0.00  0.00    -0.011 C 
ATOM     14  C   UNL     1      -4.420 -10.948  11.024  0.00  0.00    +0.008 C 
ATOM     15  C   UNL     1      -4.119 -12.383  12.899  0.00  0.00    +0.008 C 
ATOM     16  C   UNL     1      -3.737 -12.205  10.492  0.00  0.00    +0.001 C 
ATOM     17  C   UNL     1      -3.544 -13.128  11.696  0.00  0.00    +0.001 C 
BRANCH  13  20
ATOM     20  C   UNL     1      -2.649 -10.323  12.728  0.00  0.00    +0.127 C 
BRANCH  20  28
ATOM      7  O   UNL     1      -1.540 -11.952  14.162  0.00  0.00    -0.251 OA
ATOM     28  C   UNL     1      -2.031 -10.847  13.991  0.00  0.00    +0.305 C 
BRANCH  28   5
ATOM      5  O   UNL     1      -2.094  -9.891  14.954  0.00  0.00    -0.481 OA
ATOM     43  H   UNL     1      -1.423 -10.033  15.654  0.00  0.00    +0.295 HD
ENDBRANCH  28   5
ENDBRANCH  20  28
ENDBRANCH  13  20
ENDBRANCH  18  13
ENDBRANCH  26  18
ENDBRANCH  19  10
BRANCH  21  27
ATOM      6  O   UNL     1      -8.900 -10.775  20.098  0.00  0.00    -0.273 OA
ATOM     11  N   UNL     1      -9.011 -11.688  17.960  0.00  0.00    -0.301 N 
ATOM     27  C   UNL     1      -8.370 -11.112  19.043  0.00  0.00    +0.246 C 
ATOM     42  H   UNL     1      -8.478 -11.973  17.145  0.00  0.00    +0.150 HD
BRANCH  11  29
ATOM     29  C   UNL     1     -10.427 -11.971  17.939  0.00  0.00    +0.163 C 
BRANCH  29  31
ATOM      8  O   UNL     1     -11.335 -14.035  18.846  0.00  0.00    -0.274 OA
ATOM     12  N   UNL     1      -9.831 -14.165  17.116  0.00  0.00    -0.328 N 
ATOM     31  C   UNL     1     -10.584 -13.481  18.047  0.00  0.00    +0.231 C 
ATOM     44  H   UNL     1      -9.216 -13.695  16.459  0.00  0.00    +0.145 HD
ATOM     45  H   UNL     1      -9.855 -15.178  17.069  0.00  0.00    +0.145 HD
ENDBRANCH  29  31
BRANCH  29  30
ATOM     30  C   UNL     1     -11.104 -11.454  16.664  0.00  0.00    +0.067 C 
BRANCH  30  32
ATOM     32  C   UNL     1     -10.785 -10.006  16.381  0.00  0.00    -0.045 A 
ATOM     33  C   UNL     1     -11.179  -9.015  17.279  0.00  0.00    +0.007 A 
ATOM     34  C   UNL     1     -10.095  -9.660  15.218  0.00  0.00    +0.007 A 
ATOM     35  C   UNL     1     -10.883  -7.678  17.016  0.00  0.00    +0.045 A 
ATOM     36  C   UNL     1      -9.799  -8.323  14.955  0.00  0.00    +0.045 A 
ATOM     37  C   UNL     1     -10.194  -7.331  15.854  0.00  0.00    +0.117 A 
BRANCH  37   9
ATOM      9  O   UNL     1      -9.906  -6.026  15.598  0.00  0.00    -0.507 OA
ATOM     46  H   UNL     1     -10.733  -5.554  15.397  0.00  0.00    +0.292 HD
ENDBRANCH  37   9
ENDBRANCH  30  32
ENDBRANCH  29  30
ENDBRANCH  11  29
ENDBRANCH  21  27
BRANCH  21   1
ATOM      1  O   UNL     1      -6.479  -9.973  19.756  0.00  0.00    -0.379 OA
ATOM     39  H   UNL     1      -5.527 -10.092  19.922  0.00  0.00    +0.211 HD
ENDBRANCH  21   1
BRANCH  23   2
ATOM      2  O   UNL     1      -2.977 -11.447  17.292  0.00  0.00    -0.387 OA
ATOM     40  H   UNL     1      -2.521 -12.192  17.717  0.00  0.00    +0.210 HD
ENDBRANCH  23   2
BRANCH  24   3
ATOM      3  O   UNL     1      -4.090 -13.465  18.963  0.00  0.00    -0.389 OA
ATOM     41  H   UNL     1      -3.403 -13.400  19.649  0.00  0.00    +0.210 HD
ENDBRANCH  24   3
TORSDOF 15
ENDMDL
