MODEL 1
REMARK VINA RESULT:      -8.1      0.000      0.000
REMARK  Name = 25389733
REMARK  9 active torsions:
REMARK  status: ('A' for Active; 'I' for Inactive)
REMARK    1  A    between atoms: O_2  and  C_21
REMARK    2  A    between atoms: O_2  and  C_33
REMARK    3  A    between atoms: N_6  and  C_12
REMARK    4  A    between atoms: N_6  and  C_22
REMARK    5  A    between atoms: N_8  and  C_27
REMARK    6  A    between atoms: C_10  and  C_18
REMARK    7  A    between atoms: C_14  and  C_21
REMARK    8  A    between atoms: C_22  and  C_27
REMARK    9  A    between atoms: C_34  and  C_35
REMARK                            x       y       z     vdW  Elec       q    Type
REMARK                         _______ _______ _______ _____ _____    ______ ____
ROOT
ATOM      5  N   UNL     1      13.599  10.255  20.759  0.00  0.00    -0.274 NA
ATOM      7  N   UNL     1      11.230  13.074  21.500  0.00  0.00    -0.356 N 
ATOM      9  C   UNL     1      12.527  11.203  20.328  0.00  0.00    +0.106 C 
ATOM     10  C   UNL     1      14.132   9.465  19.620  0.00  0.00    +0.093 C 
ATOM     11  C   UNL     1      13.052  12.164  19.249  0.00  0.00    +0.044 C 
ATOM     12  C   UNL     1      13.565  11.381  18.040  0.00  0.00    +0.057 C 
ATOM     13  C   UNL     1      14.638  10.391  18.488  0.00  0.00    +0.042 C 
ATOM     14  C   UNL     1      13.216   9.451  21.951  0.00  0.00    +0.172 C 
ATOM     15  C   UNL     1      12.000  11.945  21.519  0.00  0.00    +0.038 A 
ATOM     16  C   UNL     1      12.924  10.332  23.193  0.00  0.00    +0.068 C 
ATOM     17  C   UNL     1      12.155  11.554  22.832  0.00  0.00    -0.016 A 
ATOM     19  C   UNL     1      11.483  12.503  23.649  0.00  0.00    +0.003 A 
ATOM     20  C   UNL     1      10.913  13.447  22.789  0.00  0.00    +0.047 A 
ATOM     25  C   UNL     1      11.297  12.653  25.039  0.00  0.00    +0.010 A 
ATOM     26  C   UNL     1      10.166  14.535  23.252  0.00  0.00    +0.026 A 
ATOM     28  C   UNL     1      10.553  13.739  25.515  0.00  0.00    +0.001 A 
ATOM     31  C   UNL     1       9.998  14.664  24.634  0.00  0.00    +0.002 A 
ATOM     37  H   UNL     1      10.937  13.571  20.669  0.00  0.00    +0.166 HD
ENDROOT
BRANCH  10  18
ATOM      1  F   UNL     1      14.067   6.657  19.169  0.00  0.00    -0.205 F 
ATOM     18  C   UNL     1      15.276   8.526  19.995  0.00  0.00    +0.005 A 
ATOM     23  C   UNL     1      15.171   7.158  19.742  0.00  0.00    +0.128 A 
ATOM     24  C   UNL     1      16.428   9.038  20.590  0.00  0.00    +0.008 A 
ATOM     29  C   UNL     1      16.217   6.302  20.085  0.00  0.00    +0.038 A 
ATOM     30  C   UNL     1      17.476   8.182  20.934  0.00  0.00    +0.000 A 
ATOM     32  C   UNL     1      17.370   6.814  20.681  0.00  0.00    +0.003 A 
ENDBRANCH  10  18
BRANCH  14  21
ATOM      3  O   UNL     1      10.938   8.980  21.316  0.00  0.00    -0.249 OA
ATOM     21  C   UNL     1      12.044   8.565  21.635  0.00  0.00    +0.325 C 
BRANCH  21   2
ATOM      2  O   UNL     1      12.414   7.259  21.760  0.00  0.00    -0.467 OA
ATOM     33  C   UNL     1      11.372   6.302  21.542  0.00  0.00    +0.280 C 
ENDBRANCH  21   2
ENDBRANCH  14  21
BRANCH  12   6
ATOM      6  N   UNL     1      14.093  12.301  17.034  0.00  0.00    -0.312 NA
ATOM     36  H   UNL     1      13.324  12.765  16.549  0.00  0.00    +0.122 HD
BRANCH   6  22
ATOM     22  C   UNL     1      14.899  11.587  16.055  0.00  0.00    +0.100 C 
BRANCH  22  27
ATOM     27  C   UNL     1      14.079  11.292  14.809  0.00  0.00    +0.119 C 
BRANCH  27   8
ATOM      4  O   UNL     1      13.311   8.538  15.312  0.00  0.00    -0.276 OA
ATOM      8  N   UNL     1      12.772  10.798  15.151  0.00  0.00    -0.314 N 
ATOM     34  C   UNL     1      12.497   9.455  15.374  0.00  0.00    +0.210 C 
ATOM     35  C   UNL     1      11.057   9.215  15.740  0.00  0.00    +0.109 C 
ATOM     38  H   UNL     1      12.023  11.476  15.246  0.00  0.00    +0.149 HD
ENDBRANCH  27   8
ENDBRANCH  22  27
ENDBRANCH   6  22
ENDBRANCH  12   6
TORSDOF 7
ENDMDL
MODEL 2
REMARK VINA RESULT:      -7.4     13.242     16.876
REMARK  Name = 25389733
REMARK  9 active torsions:
REMARK  status: ('A' for Active; 'I' for Inactive)
REMARK    1  A    between atoms: O_2  and  C_21
REMARK    2  A    between atoms: O_2  and  C_33
REMARK    3  A    between atoms: N_6  and  C_12
REMARK    4  A    between atoms: N_6  and  C_22
REMARK    5  A    between atoms: N_8  and  C_27
REMARK    6  A    between atoms: C_10  and  C_18
REMARK    7  A    between atoms: C_14  and  C_21
REMARK    8  A    between atoms: C_22  and  C_27
REMARK    9  A    between atoms: C_34  and  C_35
REMARK                            x       y       z     vdW  Elec       q    Type
REMARK                         _______ _______ _______ _____ _____    ______ ____
ROOT
ATOM      5  N   UNL     1      11.937   6.671   5.626  0.00  0.00    -0.274 NA
ATOM      7  N   UNL     1      14.685   7.641   3.256  0.00  0.00    -0.356 N 
ATOM      9  C   UNL     1      12.396   7.105   4.271  0.00  0.00    +0.106 C 
ATOM     10  C   UNL     1      10.491   6.331   5.640  0.00  0.00    +0.093 C 
ATOM     11  C   UNL     1      12.126   6.009   3.229  0.00  0.00    +0.044 C 
ATOM     12  C   UNL     1      10.636   5.670   3.184  0.00  0.00    +0.057 C 
ATOM     13  C   UNL     1      10.162   5.256   4.576  0.00  0.00    +0.042 C 
ATOM     14  C   UNL     1      12.371   7.596   6.709  0.00  0.00    +0.172 C 
ATOM     15  C   UNL     1      13.849   7.472   4.324  0.00  0.00    +0.038 A 
ATOM     16  C   UNL     1      13.914   7.705   6.814  0.00  0.00    +0.068 C 
ATOM     17  C   UNL     1      14.554   7.766   5.472  0.00  0.00    -0.016 A 
ATOM     19  C   UNL     1      15.883   8.094   5.091  0.00  0.00    +0.003 A 
ATOM     20  C   UNL     1      15.939   8.007   3.697  0.00  0.00    +0.047 A 
ATOM     25  C   UNL     1      17.049   8.463   5.794  0.00  0.00    +0.010 A 
ATOM     26  C   UNL     1      17.106   8.270   2.971  0.00  0.00    +0.026 A 
ATOM     28  C   UNL     1      18.222   8.727   5.080  0.00  0.00    +0.001 A 
ATOM     31  C   UNL     1      18.249   8.631   3.690  0.00  0.00    +0.002 A 
ATOM     37  H   UNL     1      14.430   7.515   2.286  0.00  0.00    +0.166 HD
ENDROOT
BRANCH  10  18
ATOM      1  F   UNL     1       8.962   7.912   7.443  0.00  0.00    -0.205 F 
ATOM     18  C   UNL     1       9.985   5.819   6.986  0.00  0.00    +0.005 A 
ATOM     23  C   UNL     1       9.239   6.655   7.818  0.00  0.00    +0.128 A 
ATOM     24  C   UNL     1      10.268   4.513   7.383  0.00  0.00    +0.008 A 
ATOM     29  C   UNL     1       8.777   6.184   9.047  0.00  0.00    +0.038 A 
ATOM     30  C   UNL     1       9.806   4.041   8.613  0.00  0.00    +0.000 A 
ATOM     32  C   UNL     1       9.060   4.877   9.445  0.00  0.00    +0.003 A 
ENDBRANCH  10  18
BRANCH  14  21
ATOM      3  O   UNL     1      11.029   9.252   5.581  0.00  0.00    -0.249 OA
ATOM     21  C   UNL     1      11.749   8.951   6.524  0.00  0.00    +0.325 C 
BRANCH  21   2
ATOM      2  O   UNL     1      12.113   9.763   7.557  0.00  0.00    -0.467 OA
ATOM     33  C   UNL     1      11.038  10.456   8.201  0.00  0.00    +0.280 C 
ENDBRANCH  21   2
ENDBRANCH  14  21
BRANCH  12   6
ATOM      6  N   UNL     1      10.393   4.603   2.213  0.00  0.00    -0.312 NA
ATOM     36  H   UNL     1      11.091   3.867   2.324  0.00  0.00    +0.122 HD
BRANCH   6  22
ATOM     22  C   UNL     1      10.468   5.116   0.853  0.00  0.00    +0.100 C 
BRANCH  22  27
ATOM     27  C   UNL     1      11.147   4.105  -0.057  0.00  0.00    +0.119 C 
BRANCH  27   8
ATOM      4  O   UNL     1      12.993   2.722   1.706  0.00  0.00    -0.276 OA
ATOM      8  N   UNL     1      12.578   4.241  -0.010  0.00  0.00    -0.314 N 
ATOM     34  C   UNL     1      13.384   3.534   0.872  0.00  0.00    +0.210 C 
ATOM     35  C   UNL     1      14.846   3.845   0.692  0.00  0.00    +0.109 C 
ATOM     38  H   UNL     1      13.012   4.877  -0.673  0.00  0.00    +0.149 HD
ENDBRANCH  27   8
ENDBRANCH  22  27
ENDBRANCH   6  22
ENDBRANCH  12   6
TORSDOF 7
ENDMDL
MODEL 3
REMARK VINA RESULT:      -7.0      2.908      5.960
REMARK  Name = 25389733
REMARK  9 active torsions:
REMARK  status: ('A' for Active; 'I' for Inactive)
REMARK    1  A    between atoms: O_2  and  C_21
REMARK    2  A    between atoms: O_2  and  C_33
REMARK    3  A    between atoms: N_6  and  C_12
REMARK    4  A    between atoms: N_6  and  C_22
REMARK    5  A    between atoms: N_8  and  C_27
REMARK    6  A    between atoms: C_10  and  C_18
REMARK    7  A    between atoms: C_14  and  C_21
REMARK    8  A    between atoms: C_22  and  C_27
REMARK    9  A    between atoms: C_34  and  C_35
REMARK                            x       y       z     vdW  Elec       q    Type
REMARK                         _______ _______ _______ _____ _____    ______ ____
ROOT
ATOM      5  N   UNL     1      13.807   9.894  19.894  0.00  0.00    -0.274 NA
ATOM      7  N   UNL     1      15.220  10.570  23.308  0.00  0.00    -0.356 N 
ATOM      9  C   UNL     1      14.956   9.902  20.851  0.00  0.00    +0.106 C 
ATOM     10  C   UNL     1      14.160   9.242  18.607  0.00  0.00    +0.093 C 
ATOM     11  C   UNL     1      15.442   8.470  21.127  0.00  0.00    +0.044 C 
ATOM     12  C   UNL     1      15.860   7.787  19.826  0.00  0.00    +0.057 C 
ATOM     13  C   UNL     1      14.695   7.808  18.838  0.00  0.00    +0.042 C 
ATOM     14  C   UNL     1      13.155  11.226  19.761  0.00  0.00    +0.172 C 
ATOM     15  C   UNL     1      14.556  10.604  22.113  0.00  0.00    +0.038 A 
ATOM     16  C   UNL     1      12.570  11.737  21.102  0.00  0.00    +0.068 C 
ATOM     17  C   UNL     1      13.483  11.459  22.243  0.00  0.00    -0.016 A 
ATOM     19  C   UNL     1      13.470  11.938  23.581  0.00  0.00    +0.003 A 
ATOM     20  C   UNL     1      14.568  11.364  24.228  0.00  0.00    +0.047 A 
ATOM     25  C   UNL     1      12.634  12.809  24.309  0.00  0.00    +0.010 A 
ATOM     26  C   UNL     1      14.871  11.619  25.570  0.00  0.00    +0.026 A 
ATOM     28  C   UNL     1      12.925  13.071  25.653  0.00  0.00    +0.001 A 
ATOM     31  C   UNL     1      14.026  12.484  26.272  0.00  0.00    +0.002 A 
ATOM     37  H   UNL     1      16.060  10.041  23.498  0.00  0.00    +0.166 HD
ENDROOT
BRANCH  10  18
ATOM      1  F   UNL     1      14.293  10.231  15.944  0.00  0.00    -0.205 F 
ATOM     18  C   UNL     1      13.002   9.150  17.617  0.00  0.00    +0.005 A 
ATOM     23  C   UNL     1      13.142   9.659  16.326  0.00  0.00    +0.128 A 
ATOM     24  C   UNL     1      11.802   8.555  18.005  0.00  0.00    +0.008 A 
ATOM     29  C   UNL     1      12.083   9.572  15.423  0.00  0.00    +0.038 A 
ATOM     30  C   UNL     1      10.742   8.469  17.102  0.00  0.00    +0.000 A 
ATOM     32  C   UNL     1      10.882   8.978  15.811  0.00  0.00    +0.003 A 
ENDBRANCH  10  18
BRANCH  14  21
ATOM      3  O   UNL     1      15.148  12.584  19.727  0.00  0.00    -0.249 OA
ATOM     21  C   UNL     1      14.115  12.225  19.179  0.00  0.00    +0.325 C 
BRANCH  21   2
ATOM      2  O   UNL     1      13.650  12.651  17.970  0.00  0.00    -0.467 OA
ATOM     33  C   UNL     1      14.595  13.367  17.167  0.00  0.00    +0.280 C 
ENDBRANCH  21   2
ENDBRANCH  14  21
BRANCH  12   6
ATOM      6  N   UNL     1      16.290   6.415  20.094  0.00  0.00    -0.312 NA
ATOM     36  H   UNL     1      16.500   6.305  21.086  0.00  0.00    +0.122 HD
BRANCH   6  22
ATOM     22  C   UNL     1      17.481   6.088  19.325  0.00  0.00    +0.100 C 
BRANCH  22  27
ATOM     27  C   UNL     1      18.673   5.901  20.250  0.00  0.00    +0.119 C 
BRANCH  27   8
ATOM      4  O   UNL     1      19.756   6.211  22.926  0.00  0.00    -0.276 OA
ATOM      8  N   UNL     1      19.011   7.128  20.919  0.00  0.00    -0.314 N 
ATOM     34  C   UNL     1      19.527   7.180  22.207  0.00  0.00    +0.210 C 
ATOM     35  C   UNL     1      19.816   8.587  22.656  0.00  0.00    +0.109 C 
ATOM     38  H   UNL     1      18.877   7.995  20.407  0.00  0.00    +0.149 HD
ENDBRANCH  27   8
ENDBRANCH  22  27
ENDBRANCH   6  22
ENDBRANCH  12   6
TORSDOF 7
ENDMDL
MODEL 4
REMARK VINA RESULT:      -6.6     14.711     19.330
REMARK  Name = 25389733
REMARK  9 active torsions:
REMARK  status: ('A' for Active; 'I' for Inactive)
REMARK    1  A    between atoms: O_2  and  C_21
REMARK    2  A    between atoms: O_2  and  C_33
REMARK    3  A    between atoms: N_6  and  C_12
REMARK    4  A    between atoms: N_6  and  C_22
REMARK    5  A    between atoms: N_8  and  C_27
REMARK    6  A    between atoms: C_10  and  C_18
REMARK    7  A    between atoms: C_14  and  C_21
REMARK    8  A    between atoms: C_22  and  C_27
REMARK    9  A    between atoms: C_34  and  C_35
REMARK                            x       y       z     vdW  Elec       q    Type
REMARK                         _______ _______ _______ _____ _____    ______ ____
ROOT
ATOM      5  N   UNL     1      12.346   5.453   1.303  0.00  0.00    -0.274 NA
ATOM      7  N   UNL     1      12.515   6.766   4.818  0.00  0.00    -0.356 N 
ATOM      9  C   UNL     1      12.822   6.466   2.294  0.00  0.00    +0.106 C 
ATOM     10  C   UNL     1      12.959   5.656  -0.035  0.00  0.00    +0.093 C 
ATOM     11  C   UNL     1      14.353   6.419   2.427  0.00  0.00    +0.044 C 
ATOM     12  C   UNL     1      15.015   6.672   1.073  0.00  0.00    +0.057 C 
ATOM     13  C   UNL     1      14.504   5.656   0.054  0.00  0.00    +0.042 C 
ATOM     14  C   UNL     1      10.866   5.302   1.295  0.00  0.00    +0.172 C 
ATOM     15  C   UNL     1      12.145   6.239   3.612  0.00  0.00    +0.038 A 
ATOM     16  C   UNL     1      10.310   4.830   2.663  0.00  0.00    +0.068 C 
ATOM     17  C   UNL     1      10.989   5.512   3.798  0.00  0.00    -0.016 A 
ATOM     19  C   UNL     1      10.660   5.566   5.179  0.00  0.00    +0.003 A 
ATOM     20  C   UNL     1      11.633   6.358   5.796  0.00  0.00    +0.047 A 
ATOM     25  C   UNL     1       9.625   5.025   5.970  0.00  0.00    +0.010 A 
ATOM     26  C   UNL     1      11.623   6.633   7.168  0.00  0.00    +0.026 A 
ATOM     28  C   UNL     1       9.604   5.292   7.343  0.00  0.00    +0.001 A 
ATOM     31  C   UNL     1      10.588   6.083   7.932  0.00  0.00    +0.002 A 
ATOM     37  H   UNL     1      13.316   7.362   4.978  0.00  0.00    +0.166 HD
ENDROOT
BRANCH  10  18
ATOM      1  F   UNL     1      13.199   2.854   0.396  0.00  0.00    -0.205 F 
ATOM     18  C   UNL     1      12.556   4.607  -1.070  0.00  0.00    +0.005 A 
ATOM     23  C   UNL     1      12.704   3.250  -0.785  0.00  0.00    +0.128 A 
ATOM     24  C   UNL     1      12.039   5.009  -2.301  0.00  0.00    +0.008 A 
ATOM     29  C   UNL     1      12.335   2.294  -1.732  0.00  0.00    +0.038 A 
ATOM     30  C   UNL     1      11.670   4.054  -3.248  0.00  0.00    +0.000 A 
ATOM     32  C   UNL     1      11.818   2.696  -2.964  0.00  0.00    +0.003 A 
ENDBRANCH  10  18
BRANCH  14  21
ATOM      3  O   UNL     1      10.418   7.131  -0.212  0.00  0.00    -0.249 OA
ATOM     21  C   UNL     1      10.208   6.581   0.861  0.00  0.00    +0.325 C 
BRANCH  21   2
ATOM      2  O   UNL     1       9.361   7.012   1.839  0.00  0.00    -0.467 OA
ATOM     33  C   UNL     1       9.281   8.432   2.000  0.00  0.00    +0.280 C 
ENDBRANCH  21   2
ENDBRANCH  14  21
BRANCH  12   6
ATOM      6  N   UNL     1      16.470   6.592   1.203  0.00  0.00    -0.312 NA
ATOM     36  H   UNL     1      16.718   6.300   2.149  0.00  0.00    +0.122 HD
BRANCH   6  22
ATOM     22  C   UNL     1      17.083   7.885   0.937  0.00  0.00    +0.100 C 
BRANCH  22  27
ATOM     27  C   UNL     1      17.506   8.548   2.239  0.00  0.00    +0.119 C 
BRANCH  27   8
ATOM      4  O   UNL     1      18.320   8.394   5.021  0.00  0.00    -0.276 OA
ATOM      8  N   UNL     1      18.699   7.943   2.768  0.00  0.00    -0.314 N 
ATOM     34  C   UNL     1      19.007   7.917   4.121  0.00  0.00    +0.210 C 
ATOM     35  C   UNL     1      20.300   7.201   4.404  0.00  0.00    +0.109 C 
ATOM     38  H   UNL     1      19.333   7.501   2.110  0.00  0.00    +0.149 HD
ENDBRANCH  27   8
ENDBRANCH  22  27
ENDBRANCH   6  22
ENDBRANCH  12   6
TORSDOF 7
ENDMDL
MODEL 5
REMARK VINA RESULT:      -6.6     17.596     21.734
REMARK  Name = 25389733
REMARK  9 active torsions:
REMARK  status: ('A' for Active; 'I' for Inactive)
REMARK    1  A    between atoms: O_2  and  C_21
REMARK    2  A    between atoms: O_2  and  C_33
REMARK    3  A    between atoms: N_6  and  C_12
REMARK    4  A    between atoms: N_6  and  C_22
REMARK    5  A    between atoms: N_8  and  C_27
REMARK    6  A    between atoms: C_10  and  C_18
REMARK    7  A    between atoms: C_14  and  C_21
REMARK    8  A    between atoms: C_22  and  C_27
REMARK    9  A    between atoms: C_34  and  C_35
REMARK                            x       y       z     vdW  Elec       q    Type
REMARK                         _______ _______ _______ _____ _____    ______ ____
ROOT
ATOM      5  N   UNL     1      -0.936  10.815   4.784  0.00  0.00    -0.274 NA
ATOM      7  N   UNL     1       2.179  12.840   5.332  0.00  0.00    -0.356 N 
ATOM      9  C   UNL     1       0.079  11.800   4.301  0.00  0.00    +0.106 C 
ATOM     10  C   UNL     1      -1.882  10.419   3.709  0.00  0.00    +0.093 C 
ATOM     11  C   UNL     1       0.873  11.226   3.117  0.00  0.00    +0.044 C 
ATOM     12  C   UNL     1      -0.068  10.853   1.973  0.00  0.00    +0.057 C 
ATOM     13  C   UNL     1      -1.124   9.870   2.476  0.00  0.00    +0.042 C 
ATOM     14  C   UNL     1      -1.581  11.226   6.061  0.00  0.00    +0.172 C 
ATOM     15  C   UNL     1       0.980  12.192   5.433  0.00  0.00    +0.038 A 
ATOM     16  C   UNL     1      -0.563  11.369   7.222  0.00  0.00    +0.068 C 
ATOM     17  C   UNL     1       0.697  12.021   6.772  0.00  0.00    -0.016 A 
ATOM     19  C   UNL     1       1.785  12.552   7.516  0.00  0.00    +0.003 A 
ATOM     20  C   UNL     1       2.701  13.058   6.589  0.00  0.00    +0.047 A 
ATOM     25  C   UNL     1       2.081  12.659   8.890  0.00  0.00    +0.010 A 
ATOM     26  C   UNL     1       3.902  13.665   6.971  0.00  0.00    +0.026 A 
ATOM     28  C   UNL     1       3.280  13.263   9.285  0.00  0.00    +0.001 A 
ATOM     31  C   UNL     1       4.176  13.757   8.339  0.00  0.00    +0.002 A 
ATOM     37  H   UNL     1       2.626  13.116   4.468  0.00  0.00    +0.166 HD
ENDROOT
BRANCH  10  18
ATOM      1  F   UNL     1      -4.599  10.438   2.868  0.00  0.00    -0.205 F 
ATOM     18  C   UNL     1      -2.901   9.364   4.133  0.00  0.00    +0.005 A 
ATOM     23  C   UNL     1      -4.218   9.441   3.679  0.00  0.00    +0.128 A 
ATOM     24  C   UNL     1      -2.513   8.323   4.975  0.00  0.00    +0.008 A 
ATOM     29  C   UNL     1      -5.146   8.476   4.067  0.00  0.00    +0.038 A 
ATOM     30  C   UNL     1      -3.442   7.357   5.363  0.00  0.00    +0.000 A 
ATOM     32  C   UNL     1      -4.760   7.433   4.909  0.00  0.00    +0.003 A 
ENDBRANCH  10  18
BRANCH  14  21
ATOM      3  O   UNL     1      -1.849  13.602   5.744  0.00  0.00    -0.249 OA
ATOM     21  C   UNL     1      -2.360  12.498   5.872  0.00  0.00    +0.325 C 
BRANCH  21   2
ATOM      2  O   UNL     1      -3.694  12.217   5.868  0.00  0.00    -0.467 OA
ATOM     33  C   UNL     1      -4.146  11.365   6.926  0.00  0.00    +0.280 C 
ENDBRANCH  21   2
ENDBRANCH  14  21
BRANCH  12   6
ATOM      6  N   UNL     1       0.692  10.277   0.864  0.00  0.00    -0.312 NA
ATOM     36  H   UNL     1       1.647  10.079   1.165  0.00  0.00    +0.122 HD
BRANCH   6  22
ATOM     22  C   UNL     1       0.738  11.197  -0.263  0.00  0.00    +0.100 C 
BRANCH  22  27
ATOM     27  C   UNL     1       0.261  10.505  -1.530  0.00  0.00    +0.119 C 
BRANCH  27   8
ATOM      4  O   UNL     1      -1.517   8.401  -0.612  0.00  0.00    -0.276 OA
ATOM      8  N   UNL     1      -1.175  10.482  -1.601  0.00  0.00    -0.314 N 
ATOM     34  C   UNL     1      -1.947   9.426  -1.134  0.00  0.00    +0.210 C 
ATOM     35  C   UNL     1      -3.422   9.670  -1.308  0.00  0.00    +0.109 C 
ATOM     38  H   UNL     1      -1.639  11.292  -2.001  0.00  0.00    +0.149 HD
ENDBRANCH  27   8
ENDBRANCH  22  27
ENDBRANCH   6  22
ENDBRANCH  12   6
TORSDOF 7
ENDMDL
MODEL 6
REMARK VINA RESULT:      -6.6     28.509     31.676
REMARK  Name = 25389733
REMARK  9 active torsions:
REMARK  status: ('A' for Active; 'I' for Inactive)
REMARK    1  A    between atoms: O_2  and  C_21
REMARK    2  A    between atoms: O_2  and  C_33
REMARK    3  A    between atoms: N_6  and  C_12
REMARK    4  A    between atoms: N_6  and  C_22
REMARK    5  A    between atoms: N_8  and  C_27
REMARK    6  A    between atoms: C_10  and  C_18
REMARK    7  A    between atoms: C_14  and  C_21
REMARK    8  A    between atoms: C_22  and  C_27
REMARK    9  A    between atoms: C_34  and  C_35
REMARK                            x       y       z     vdW  Elec       q    Type
REMARK                         _______ _______ _______ _____ _____    ______ ____
ROOT
ATOM      5  N   UNL     1     -10.788 -10.008  17.585  0.00  0.00    -0.274 NA
ATOM      7  N   UNL     1      -7.065  -9.515  17.523  0.00  0.00    -0.356 N 
ATOM      9  C   UNL     1      -9.584  -9.146  17.792  0.00  0.00    +0.106 C 
ATOM     10  C   UNL     1     -12.052  -9.241  17.728  0.00  0.00    +0.093 C 
ATOM     11  C   UNL     1      -9.578  -7.974  16.797  0.00  0.00    +0.044 C 
ATOM     12  C   UNL     1     -10.845  -7.135  16.952  0.00  0.00    +0.057 C 
ATOM     13  C   UNL     1     -12.075  -8.023  16.771  0.00  0.00    +0.042 C 
ATOM     14  C   UNL     1     -10.735 -11.274  18.366  0.00  0.00    +0.172 C 
ATOM     15  C   UNL     1      -8.343  -9.977  17.675  0.00  0.00    +0.038 A 
ATOM     16  C   UNL     1      -9.524 -12.160  17.980  0.00  0.00    +0.068 C 
ATOM     17  C   UNL     1      -8.292 -11.351  17.776  0.00  0.00    -0.016 A 
ATOM     19  C   UNL     1      -6.933 -11.746  17.644  0.00  0.00    +0.003 A 
ATOM     20  C   UNL     1      -6.185 -10.576  17.485  0.00  0.00    +0.047 A 
ATOM     25  C   UNL     1      -6.260 -12.985  17.650  0.00  0.00    +0.010 A 
ATOM     26  C   UNL     1      -4.795 -10.585  17.329  0.00  0.00    +0.026 A 
ATOM     28  C   UNL     1      -4.870 -13.008  17.493  0.00  0.00    +0.001 A 
ATOM     31  C   UNL     1      -4.150 -11.826  17.335  0.00  0.00    +0.002 A 
ATOM     37  H   UNL     1      -6.798  -8.543  17.444  0.00  0.00    +0.166 HD
ENDROOT
BRANCH  10  18
ATOM      1  F   UNL     1     -14.255  -9.353  19.522  0.00  0.00    -0.205 F 
ATOM     18  C   UNL     1     -13.312 -10.060  17.462  0.00  0.00    +0.005 A 
ATOM     23  C   UNL     1     -14.353 -10.066  18.391  0.00  0.00    +0.128 A 
ATOM     24  C   UNL     1     -13.422 -10.804  16.288  0.00  0.00    +0.008 A 
ATOM     29  C   UNL     1     -15.503 -10.815  18.146  0.00  0.00    +0.038 A 
ATOM     30  C   UNL     1     -14.573 -11.554  16.042  0.00  0.00    +0.000 A 
ATOM     32  C   UNL     1     -15.613 -11.560  16.972  0.00  0.00    +0.003 A 
ENDBRANCH  10  18
BRANCH  14  21
ATOM      3  O   UNL     1      -9.798 -10.479  20.441  0.00  0.00    -0.249 OA
ATOM     21  C   UNL     1     -10.738 -10.982  19.841  0.00  0.00    +0.325 C 
BRANCH  21   2
ATOM      2  O   UNL     1     -11.931 -11.364  20.378  0.00  0.00    -0.467 OA
ATOM     33  C   UNL     1     -12.363 -12.685  20.038  0.00  0.00    +0.280 C 
ENDBRANCH  21   2
ENDBRANCH  14  21
BRANCH  12   6
ATOM      6  N   UNL     1     -10.846  -6.042  15.979  0.00  0.00    -0.312 NA
ATOM     36  H   UNL     1     -11.238  -5.201  16.403  0.00  0.00    +0.122 HD
BRANCH   6  22
ATOM     22  C   UNL     1     -11.641  -6.392  14.812  0.00  0.00    +0.100 C 
BRANCH  22  27
ATOM     27  C   UNL     1     -12.478  -5.202  14.367  0.00  0.00    +0.119 C 
BRANCH  27   8
ATOM      4  O   UNL     1     -13.761  -3.180  12.726  0.00  0.00    -0.276 OA
ATOM      8  N   UNL     1     -12.037  -4.703  13.092  0.00  0.00    -0.314 N 
ATOM     34  C   UNL     1     -12.719  -3.729  12.375  0.00  0.00    +0.210 C 
ATOM     35  C   UNL     1     -12.028  -3.372  11.087  0.00  0.00    +0.109 C 
ATOM     38  H   UNL     1     -11.173  -5.078  12.713  0.00  0.00    +0.149 HD
ENDBRANCH  27   8
ENDBRANCH  22  27
ENDBRANCH   6  22
ENDBRANCH  12   6
TORSDOF 7
ENDMDL
MODEL 7
REMARK VINA RESULT:      -6.6     26.118     28.659
REMARK  Name = 25389733
REMARK  9 active torsions:
REMARK  status: ('A' for Active; 'I' for Inactive)
REMARK    1  A    between atoms: O_2  and  C_21
REMARK    2  A    between atoms: O_2  and  C_33
REMARK    3  A    between atoms: N_6  and  C_12
REMARK    4  A    between atoms: N_6  and  C_22
REMARK    5  A    between atoms: N_8  and  C_27
REMARK    6  A    between atoms: C_10  and  C_18
REMARK    7  A    between atoms: C_14  and  C_21
REMARK    8  A    between atoms: C_22  and  C_27
REMARK    9  A    between atoms: C_34  and  C_35
REMARK                            x       y       z     vdW  Elec       q    Type
REMARK                         _______ _______ _______ _____ _____    ______ ____
ROOT
ATOM      5  N   UNL     1     -14.783   7.278  21.957  0.00  0.00    -0.274 NA
ATOM      7  N   UNL     1     -16.862   6.336  24.939  0.00  0.00    -0.356 N 
ATOM      9  C   UNL     1     -15.893   7.568  22.915  0.00  0.00    +0.106 C 
ATOM     10  C   UNL     1     -14.521   8.422  21.047  0.00  0.00    +0.093 C 
ATOM     11  C   UNL     1     -15.576   8.816  23.753  0.00  0.00    +0.044 C 
ATOM     12  C   UNL     1     -15.349  10.025  22.846  0.00  0.00    +0.057 C 
ATOM     13  C   UNL     1     -14.235   9.716  21.848  0.00  0.00    +0.042 C 
ATOM     14  C   UNL     1     -14.932   5.962  21.277  0.00  0.00    +0.172 C 
ATOM     15  C   UNL     1     -16.139   6.368  23.780  0.00  0.00    +0.038 A 
ATOM     16  C   UNL     1     -14.934   4.775  22.275  0.00  0.00    +0.068 C 
ATOM     17  C   UNL     1     -15.726   5.084  23.497  0.00  0.00    -0.016 A 
ATOM     19  C   UNL     1     -16.185   4.240  24.543  0.00  0.00    +0.003 A 
ATOM     20  C   UNL     1     -16.894   5.050  25.436  0.00  0.00    +0.047 A 
ATOM     25  C   UNL     1     -16.074   2.862  24.821  0.00  0.00    +0.010 A 
ATOM     26  C   UNL     1     -17.496   4.548  26.594  0.00  0.00    +0.026 A 
ATOM     28  C   UNL     1     -16.670   2.348  25.978  0.00  0.00    +0.001 A 
ATOM     31  C   UNL     1     -17.369   3.179  26.850  0.00  0.00    +0.002 A 
ATOM     37  H   UNL     1     -17.308   7.132  25.376  0.00  0.00    +0.166 HD
ENDROOT
BRANCH  10  18
ATOM      1  F   UNL     1     -14.787   8.452  18.215  0.00  0.00    -0.205 F 
ATOM     18  C   UNL     1     -13.352   8.203  20.090  0.00  0.00    +0.005 A 
ATOM     23  C   UNL     1     -13.561   8.232  18.711  0.00  0.00    +0.128 A 
ATOM     24  C   UNL     1     -12.073   7.975  20.597  0.00  0.00    +0.008 A 
ATOM     29  C   UNL     1     -12.491   8.032  17.839  0.00  0.00    +0.038 A 
ATOM     30  C   UNL     1     -11.003   7.774  19.725  0.00  0.00    +0.000 A 
ATOM     32  C   UNL     1     -11.211   7.803  18.345  0.00  0.00    +0.003 A 
ENDBRANCH  10  18
BRANCH  14  21
ATOM      3  O   UNL     1     -16.771   6.953  20.072  0.00  0.00    -0.249 OA
ATOM     21  C   UNL     1     -16.170   5.948  20.425  0.00  0.00    +0.325 C 
BRANCH  21   2
ATOM      2  O   UNL     1     -16.497   4.660  20.120  0.00  0.00    -0.467 OA
ATOM     33  C   UNL     1     -17.584   4.504  19.202  0.00  0.00    +0.280 C 
ENDBRANCH  21   2
ENDBRANCH  14  21
BRANCH  12   6
ATOM      6  N   UNL     1     -15.016  11.200  23.650  0.00  0.00    -0.312 NA
ATOM     36  H   UNL     1     -14.510  11.879  23.080  0.00  0.00    +0.122 HD
BRANCH   6  22
ATOM     22  C   UNL     1     -14.182  10.829  24.785  0.00  0.00    +0.100 C 
BRANCH  22  27
ATOM     27  C   UNL     1     -12.869  11.594  24.748  0.00  0.00    +0.119 C 
BRANCH  27   8
ATOM      4  O   UNL     1     -11.814  11.796  27.445  0.00  0.00    -0.276 OA
ATOM      8  N   UNL     1     -11.801  10.824  25.329  0.00  0.00    -0.314 N 
ATOM     34  C   UNL     1     -11.362  10.991  26.635  0.00  0.00    +0.210 C 
ATOM     35  C   UNL     1     -10.251  10.042  26.995  0.00  0.00    +0.109 C 
ATOM     38  H   UNL     1     -11.365  10.114  24.749  0.00  0.00    +0.149 HD
ENDBRANCH  27   8
ENDBRANCH  22  27
ENDBRANCH   6  22
ENDBRANCH  12   6
TORSDOF 7
ENDMDL
MODEL 8
REMARK VINA RESULT:      -6.5     28.059     30.403
REMARK  Name = 25389733
REMARK  9 active torsions:
REMARK  status: ('A' for Active; 'I' for Inactive)
REMARK    1  A    between atoms: O_2  and  C_21
REMARK    2  A    between atoms: O_2  and  C_33
REMARK    3  A    between atoms: N_6  and  C_12
REMARK    4  A    between atoms: N_6  and  C_22
REMARK    5  A    between atoms: N_8  and  C_27
REMARK    6  A    between atoms: C_10  and  C_18
REMARK    7  A    between atoms: C_14  and  C_21
REMARK    8  A    between atoms: C_22  and  C_27
REMARK    9  A    between atoms: C_34  and  C_35
REMARK                            x       y       z     vdW  Elec       q    Type
REMARK                         _______ _______ _______ _____ _____    ______ ____
ROOT
ATOM      5  N   UNL     1      -8.147  -9.440  14.996  0.00  0.00    -0.274 NA
ATOM      7  N   UNL     1      -4.713 -10.625  14.043  0.00  0.00    -0.356 N 
ATOM      9  C   UNL     1      -6.975 -10.344  15.208  0.00  0.00    +0.106 C 
ATOM     10  C   UNL     1      -9.157  -9.578  16.076  0.00  0.00    +0.093 C 
ATOM     11  C   UNL     1      -6.308 -10.058  16.563  0.00  0.00    +0.044 C 
ATOM     12  C   UNL     1      -7.310 -10.240  17.702  0.00  0.00    +0.057 C 
ATOM     13  C   UNL     1      -8.522  -9.339  17.467  0.00  0.00    +0.042 C 
ATOM     14  C   UNL     1      -8.697  -9.517  13.615  0.00  0.00    +0.172 C 
ATOM     15  C   UNL     1      -6.009 -10.191  14.072  0.00  0.00    +0.038 A 
ATOM     16  C   UNL     1      -7.659  -9.103  12.540  0.00  0.00    +0.068 C 
ATOM     17  C   UNL     1      -6.307  -9.645  12.842  0.00  0.00    -0.016 A 
ATOM     19  C   UNL     1      -5.135  -9.716  12.041  0.00  0.00    +0.003 A 
ATOM     20  C   UNL     1      -4.150 -10.334  12.818  0.00  0.00    +0.047 A 
ATOM     25  C   UNL     1      -4.812  -9.321  10.727  0.00  0.00    +0.010 A 
ATOM     26  C   UNL     1      -2.856 -10.574  12.344  0.00  0.00    +0.026 A 
ATOM     28  C   UNL     1      -3.521  -9.554  10.241  0.00  0.00    +0.001 A 
ATOM     31  C   UNL     1      -2.559 -10.170  11.038  0.00  0.00    +0.002 A 
ATOM     37  H   UNL     1      -4.231 -11.087  14.802  0.00  0.00    +0.166 HD
ENDROOT
BRANCH  10  18
ATOM      1  F   UNL     1     -11.802 -10.452  15.501  0.00  0.00    -0.205 F 
ATOM     18  C   UNL     1     -10.346  -8.630  15.943  0.00  0.00    +0.005 A 
ATOM     23  C   UNL     1     -11.616  -9.134  15.658  0.00  0.00    +0.128 A 
ATOM     24  C   UNL     1     -10.162  -7.258  16.106  0.00  0.00    +0.008 A 
ATOM     29  C   UNL     1     -12.700  -8.266  15.537  0.00  0.00    +0.038 A 
ATOM     30  C   UNL     1     -11.247  -6.388  15.985  0.00  0.00    +0.000 A 
ATOM     32  C   UNL     1     -12.516  -6.892  15.700  0.00  0.00    +0.003 A 
ENDBRANCH  10  18
BRANCH  14  21
ATOM      3  O   UNL     1      -9.099 -11.847  14.093  0.00  0.00    -0.249 OA
ATOM     21  C   UNL     1      -9.235 -10.893  13.339  0.00  0.00    +0.325 C 
BRANCH  21   2
ATOM      2  O   UNL     1      -9.883 -10.896  12.139  0.00  0.00    -0.467 OA
ATOM     33  C   UNL     1     -11.169 -10.266  12.135  0.00  0.00    +0.280 C 
ENDBRANCH  21   2
ENDBRANCH  14  21
BRANCH  12   6
ATOM      6  N   UNL     1      -6.675  -9.935  18.983  0.00  0.00    -0.312 NA
ATOM     36  H   UNL     1      -5.799  -9.437  18.826  0.00  0.00    +0.122 HD
BRANCH   6  22
ATOM     22  C   UNL     1      -6.392 -11.157  19.722  0.00  0.00    +0.100 C 
BRANCH  22  27
ATOM     27  C   UNL     1      -5.100 -11.787  19.226  0.00  0.00    +0.119 C 
BRANCH  27   8
ATOM      4  O   UNL     1      -4.297 -12.527  16.537  0.00  0.00    -0.276 OA
ATOM      8  N   UNL     1      -5.353 -13.031  18.550  0.00  0.00    -0.314 N 
ATOM     34  C   UNL     1      -4.928 -13.298  17.256  0.00  0.00    +0.210 C 
ATOM     35  C   UNL     1      -5.303 -14.682  16.800  0.00  0.00    +0.109 C 
ATOM     38  H   UNL     1      -5.856 -13.750  19.061  0.00  0.00    +0.149 HD
ENDBRANCH  27   8
ENDBRANCH  22  27
ENDBRANCH   6  22
ENDBRANCH  12   6
TORSDOF 7
ENDMDL
MODEL 9
REMARK VINA RESULT:      -6.4     26.866     29.754
REMARK  Name = 25389733
REMARK  9 active torsions:
REMARK  status: ('A' for Active; 'I' for Inactive)
REMARK    1  A    between atoms: O_2  and  C_21
REMARK    2  A    between atoms: O_2  and  C_33
REMARK    3  A    between atoms: N_6  and  C_12
REMARK    4  A    between atoms: N_6  and  C_22
REMARK    5  A    between atoms: N_8  and  C_27
REMARK    6  A    between atoms: C_10  and  C_18
REMARK    7  A    between atoms: C_14  and  C_21
REMARK    8  A    between atoms: C_22  and  C_27
REMARK    9  A    between atoms: C_34  and  C_35
REMARK                            x       y       z     vdW  Elec       q    Type
REMARK                         _______ _______ _______ _____ _____    ______ ____
ROOT
ATOM      5  N   UNL     1      -5.613 -10.710  11.182  0.00  0.00    -0.274 NA
ATOM      7  N   UNL     1      -6.797  -9.678  14.594  0.00  0.00    -0.356 N 
ATOM      9  C   UNL     1      -5.415  -9.953  12.456  0.00  0.00    +0.106 C 
ATOM     10  C   UNL     1      -4.408 -10.662  10.316  0.00  0.00    +0.093 C 
ATOM     11  C   UNL     1      -4.211 -10.505  13.236  0.00  0.00    +0.044 C 
ATOM     12  C   UNL     1      -2.943 -10.424  12.387  0.00  0.00    +0.057 C 
ATOM     13  C   UNL     1      -3.157 -11.172  11.072  0.00  0.00    +0.042 C 
ATOM     14  C   UNL     1      -6.888 -10.367  10.496  0.00  0.00    +0.172 C 
ATOM     15  C   UNL     1      -6.672 -10.002  13.272  0.00  0.00    +0.038 A 
ATOM     16  C   UNL     1      -8.133 -10.689  11.362  0.00  0.00    +0.068 C 
ATOM     17  C   UNL     1      -7.923 -10.318  12.788  0.00  0.00    -0.016 A 
ATOM     19  C   UNL     1      -8.843 -10.218  13.866  0.00  0.00    +0.003 A 
ATOM     20  C   UNL     1      -8.111  -9.816  14.988  0.00  0.00    +0.047 A 
ATOM     25  C   UNL     1     -10.232 -10.423  14.002  0.00  0.00    +0.010 A 
ATOM     26  C   UNL     1      -8.701  -9.613  16.240  0.00  0.00    +0.026 A 
ATOM     28  C   UNL     1     -10.833 -10.225  15.250  0.00  0.00    +0.001 A 
ATOM     31  C   UNL     1     -10.078  -9.826  16.350  0.00  0.00    +0.002 A 
ATOM     37  H   UNL     1      -6.043  -9.385  15.201  0.00  0.00    +0.166 HD
ENDROOT
BRANCH  10  18
ATOM      1  F   UNL     1      -4.673  -9.486   7.739  0.00  0.00    -0.205 F 
ATOM     18  C   UNL     1      -4.532 -11.474   9.029  0.00  0.00    +0.005 A 
ATOM     23  C   UNL     1      -4.660 -10.825   7.801  0.00  0.00    +0.128 A 
ATOM     24  C   UNL     1      -4.519 -12.867   9.083  0.00  0.00    +0.008 A 
ATOM     29  C   UNL     1      -4.774 -11.570   6.627  0.00  0.00    +0.038 A 
ATOM     30  C   UNL     1      -4.633 -13.613   7.909  0.00  0.00    +0.000 A 
ATOM     32  C   UNL     1      -4.760 -12.964   6.680  0.00  0.00    +0.003 A 
ENDBRANCH  10  18
BRANCH  14  21
ATOM      3  O   UNL     1      -5.892  -8.215  10.061  0.00  0.00    -0.249 OA
ATOM     21  C   UNL     1      -6.888  -8.925  10.074  0.00  0.00    +0.325 C 
BRANCH  21   2
ATOM      2  O   UNL     1      -8.151  -8.555   9.717  0.00  0.00    -0.467 OA
ATOM     33  C   UNL     1      -8.233  -7.581   8.671  0.00  0.00    +0.280 C 
ENDBRANCH  21   2
ENDBRANCH  14  21
BRANCH  12   6
ATOM      6  N   UNL     1      -1.809 -10.982  13.124  0.00  0.00    -0.312 NA
ATOM     36  H   UNL     1      -1.311 -11.653  12.539  0.00  0.00    +0.122 HD
BRANCH   6  22
ATOM     22  C   UNL     1      -2.261 -11.659  14.330  0.00  0.00    +0.100 C 
BRANCH  22  27
ATOM     27  C   UNL     1      -1.838 -10.878  15.565  0.00  0.00    +0.119 C 
BRANCH  27   8
ATOM      4  O   UNL     1      -4.459 -10.118  16.557  0.00  0.00    -0.276 OA
ATOM      8  N   UNL     1      -2.502 -11.367  16.743  0.00  0.00    -0.314 N 
ATOM     34  C   UNL     1      -3.762 -10.944  17.142  0.00  0.00    +0.210 C 
ATOM     35  C   UNL     1      -4.232 -11.633  18.395  0.00  0.00    +0.109 C 
ATOM     38  H   UNL     1      -2.021 -12.070  17.296  0.00  0.00    +0.149 HD
ENDBRANCH  27   8
ENDBRANCH  22  27
ENDBRANCH   6  22
ENDBRANCH  12   6
TORSDOF 7
ENDMDL
MODEL 10
REMARK VINA RESULT:      -6.4     16.662     20.942
REMARK  Name = 25389733
REMARK  9 active torsions:
REMARK  status: ('A' for Active; 'I' for Inactive)
REMARK    1  A    between atoms: O_2  and  C_21
REMARK    2  A    between atoms: O_2  and  C_33
REMARK    3  A    between atoms: N_6  and  C_12
REMARK    4  A    between atoms: N_6  and  C_22
REMARK    5  A    between atoms: N_8  and  C_27
REMARK    6  A    between atoms: C_10  and  C_18
REMARK    7  A    between atoms: C_14  and  C_21
REMARK    8  A    between atoms: C_22  and  C_27
REMARK    9  A    between atoms: C_34  and  C_35
REMARK                            x       y       z     vdW  Elec       q    Type
REMARK                         _______ _______ _______ _____ _____    ______ ____
ROOT
ATOM      5  N   UNL     1      -0.798  10.870   4.818  0.00  0.00    -0.274 NA
ATOM      7  N   UNL     1       2.338  12.841   5.443  0.00  0.00    -0.356 N 
ATOM      9  C   UNL     1       0.257  11.821   4.353  0.00  0.00    +0.106 C 
ATOM     10  C   UNL     1      -1.708  10.468   3.716  0.00  0.00    +0.093 C 
ATOM     11  C   UNL     1       1.085  11.201   3.216  0.00  0.00    +0.044 C 
ATOM     12  C   UNL     1       0.182  10.820   2.044  0.00  0.00    +0.057 C 
ATOM     13  C   UNL     1      -0.915   9.873   2.527  0.00  0.00    +0.042 C 
ATOM     14  C   UNL     1      -1.484  11.325   6.058  0.00  0.00    +0.172 C 
ATOM     15  C   UNL     1       1.121  12.222   5.511  0.00  0.00    +0.038 A 
ATOM     16  C   UNL     1      -0.509  11.475   7.255  0.00  0.00    +0.068 C 
ATOM     17  C   UNL     1       0.781  12.089   6.841  0.00  0.00    -0.016 A 
ATOM     19  C   UNL     1       1.850  12.615   7.615  0.00  0.00    +0.003 A 
ATOM     20  C   UNL     1       2.814  13.079   6.714  0.00  0.00    +0.047 A 
ATOM     25  C   UNL     1       2.095  12.750   8.998  0.00  0.00    +0.010 A 
ATOM     26  C   UNL     1       4.012  13.669   7.130  0.00  0.00    +0.026 A 
ATOM     28  C   UNL     1       3.290  13.337   9.426  0.00  0.00    +0.001 A 
ATOM     31  C   UNL     1       4.233  13.789   8.506  0.00  0.00    +0.002 A 
ATOM     37  H   UNL     1       2.824  13.086   4.591  0.00  0.00    +0.166 HD
ENDROOT
BRANCH  10  18
ATOM      1  F   UNL     1      -4.395  10.538   2.785  0.00  0.00    -0.205 F 
ATOM     18  C   UNL     1      -2.767   9.445   4.123  0.00  0.00    +0.005 A 
ATOM     23  C   UNL     1      -4.066   9.546   3.624  0.00  0.00    +0.128 A 
ATOM     24  C   UNL     1      -2.433   8.409   4.994  0.00  0.00    +0.008 A 
ATOM     29  C   UNL     1      -5.030   8.610   3.997  0.00  0.00    +0.038 A 
ATOM     30  C   UNL     1      -3.398   7.473   5.368  0.00  0.00    +0.000 A 
ATOM     32  C   UNL     1      -4.697   7.573   4.869  0.00  0.00    +0.003 A 
ENDBRANCH  10  18
BRANCH  14  21
ATOM      3  O   UNL     1      -1.691  13.706   5.731  0.00  0.00    -0.249 OA
ATOM     21  C   UNL     1      -2.226  12.608   5.808  0.00  0.00    +0.325 C 
BRANCH  21   2
ATOM      2  O   UNL     1      -3.558  12.346   5.686  0.00  0.00    -0.467 OA
ATOM     33  C   UNL     1      -4.143  11.619   6.771  0.00  0.00    +0.280 C 
ENDBRANCH  21   2
ENDBRANCH  14  21
BRANCH  12   6
ATOM      6  N   UNL     1       0.973  10.201   0.981  0.00  0.00    -0.312 NA
ATOM     36  H   UNL     1       1.649   9.552   1.384  0.00  0.00    +0.122 HD
BRANCH   6  22
ATOM     22  C   UNL     1       1.692  11.211   0.219  0.00  0.00    +0.100 C 
BRANCH  22  27
ATOM     27  C   UNL     1       3.007  10.648  -0.296  0.00  0.00    +0.119 C 
BRANCH  27   8
ATOM      4  O   UNL     1       3.968   9.651   2.256  0.00  0.00    -0.276 OA
ATOM      8  N   UNL     1       4.120  11.139   0.471  0.00  0.00    -0.314 N 
ATOM     34  C   UNL     1       4.509  10.597   1.689  0.00  0.00    +0.210 C 
ATOM     35  C   UNL     1       5.718  11.282   2.266  0.00  0.00    +0.109 C 
ATOM     38  H   UNL     1       4.653  11.913   0.085  0.00  0.00    +0.149 HD
ENDBRANCH  27   8
ENDBRANCH  22  27
ENDBRANCH   6  22
ENDBRANCH  12   6
TORSDOF 7
ENDMDL
