REMARK  Name = 7050205
REMARK  10 active torsions:
REMARK  status: ('A' for Active; 'I' for Inactive)
REMARK    1  A    between atoms: O_1  and  C_11
REMARK    2  A    between atoms: O_2  and  C_14
REMARK    3  A    between atoms: O_3  and  C_16
REMARK    4  A    between atoms: N_7  and  C_12
REMARK    5  A    between atoms: N_8  and  C_18
REMARK    6  A    between atoms: N_9  and  C_25
REMARK    7  A    between atoms: C_11  and  C_17
REMARK    8  A    between atoms: C_25  and  C_26
REMARK    9  A    between atoms: C_25  and  C_27
REMARK   10  A    between atoms: C_26  and  C_28
REMARK                            x       y       z     vdW  Elec       q    Type
REMARK                         _______ _______ _______ _____ _____    ______ ____
ROOT
ATOM     11  C   UNL     1       1.920  -1.862   0.041  0.00  0.00    +0.146 C 
ATOM     12  C   UNL     1      -0.577  -2.309  -0.106  0.00  0.00    +0.109 C 
ATOM     13  C   UNL     1       0.515  -1.278   0.197  0.00  0.00    +0.069 C 
ATOM     14  C   UNL     1      -0.397  -3.591   0.719  0.00  0.00    +0.163 C 
ATOM     15  C   UNL     1       2.092  -3.125   0.882  0.00  0.00    +0.078 C 
ATOM     16  C   UNL     1       1.014  -4.168   0.582  0.00  0.00    +0.148 C 
ENDROOT
BRANCH  12   7
ATOM      5  O   UNL     1      -2.170  -0.823  -1.982  0.00  0.00    -0.253 OA
ATOM      7  N   UNL     1      -1.880  -1.727   0.135  0.00  0.00    -0.294 N 
ATOM      8  N   UNL     1      -3.802  -0.569  -0.349  0.00  0.00    -0.297 N 
ATOM     24  C   UNL     1      -2.579  -1.022  -0.838  0.00  0.00    +0.300 C 
ATOM     34  H   UNL     1      -2.267  -1.772   1.072  0.00  0.00    +0.151 HD
ATOM     38  H   UNL     1      -4.008  -0.726   0.632  0.00  0.00    +0.151 HD
BRANCH   8  18
ATOM     18  C   UNL     1      -4.738   0.195  -1.144  0.00  0.00    +0.074 C 
ATOM     19  C   UNL     1      -4.439   1.695  -1.057  0.00  0.00    +0.022 C 
ATOM     20  C   UNL     1      -6.183  -0.109  -0.734  0.00  0.00    +0.022 C 
ATOM     21  C   UNL     1      -4.800   2.286   0.306  0.00  0.00    +0.002 C 
ATOM     22  C   UNL     1      -6.542   0.485   0.629  0.00  0.00    +0.002 C 
ATOM     23  C   UNL     1      -6.246   1.981   0.687  0.00  0.00    +0.000 C 
ENDBRANCH   8  18
ENDBRANCH  12   7
BRANCH  11  17
ATOM      4  O   UNL     1       3.748  -1.035   1.336  0.00  0.00    -0.273 OA
ATOM      9  N   UNL     1       2.892   0.288  -0.377  0.00  0.00    -0.301 N 
ATOM     17  C   UNL     1       2.960  -0.846   0.414  0.00  0.00    +0.246 C 
ATOM     39  H   UNL     1       2.289   0.279  -1.195  0.00  0.00    +0.150 HD
BRANCH   9  25
ATOM     25  C   UNL     1       3.768   1.424  -0.206  0.00  0.00    +0.163 C 
BRANCH  25  27
ATOM      6  O   UNL     1       5.028   0.543  -2.089  0.00  0.00    -0.274 OA
ATOM     10  N   UNL     1       6.159   1.688  -0.450  0.00  0.00    -0.328 N 
ATOM     27  C   UNL     1       5.025   1.146  -1.018  0.00  0.00    +0.231 C 
ATOM     40  H   UNL     1       7.064   1.588  -0.897  0.00  0.00    +0.145 HD
ATOM     41  H   UNL     1       6.137   2.204   0.424  0.00  0.00    +0.145 HD
ENDBRANCH  25  27
BRANCH  25  26
ATOM     26  C   UNL     1       3.116   2.733  -0.664  0.00  0.00    +0.067 C 
BRANCH  26  28
ATOM     28  C   UNL     1       1.846   3.047   0.088  0.00  0.00    -0.045 A 
ATOM     29  C   UNL     1       0.634   2.581  -0.399  0.00  0.00    +0.004 A 
ATOM     30  C   UNL     1       1.913   3.796   1.253  0.00  0.00    +0.004 A 
ATOM     31  C   UNL     1      -0.539   2.870   0.297  0.00  0.00    +0.000 A 
ATOM     32  C   UNL     1       0.739   4.085   1.948  0.00  0.00    +0.000 A 
ATOM     33  C   UNL     1      -0.487   3.623   1.470  0.00  0.00    +0.000 A 
ENDBRANCH  26  28
ENDBRANCH  25  26
ENDBRANCH   9  25
ENDBRANCH  11  17
BRANCH  11   1
ATOM      1  O   UNL     1       2.181  -2.173  -1.323  0.00  0.00    -0.379 OA
ATOM     35  H   UNL     1       3.038  -2.629  -1.376  0.00  0.00    +0.211 HD
ENDBRANCH  11   1
BRANCH  14   2
ATOM      2  O   UNL     1      -1.317  -4.581   0.249  0.00  0.00    -0.387 OA
ATOM     36  H   UNL     1      -1.310  -5.315   0.886  0.00  0.00    +0.210 HD
ENDBRANCH  14   2
BRANCH  16   3
ATOM      3  O   UNL     1       1.150  -5.250   1.503  0.00  0.00    -0.389 OA
ATOM     37  H   UNL     1       0.573  -5.971   1.200  0.00  0.00    +0.210 HD
ENDBRANCH  16   3
TORSDOF 10
