REMARK  Name = 45783990
REMARK  10 active torsions:
REMARK  status: ('A' for Active; 'I' for Inactive)
REMARK    1  A    between atoms: N_4  and  C_13
REMARK    2  A    between atoms: N_7  and  C_31
REMARK    3  A    between atoms: C_8  and  C_12
REMARK    4  A    between atoms: C_9  and  C_13
REMARK    5  A    between atoms: C_11  and  C_16
REMARK    6  A    between atoms: C_12  and  C_19
REMARK    7  A    between atoms: C_12  and  C_20
REMARK    8  A    between atoms: C_15  and  C_23
REMARK    9  A    between atoms: C_16  and  C_24
REMARK   10  A    between atoms: C_25  and  C_26
REMARK                            x       y       z     vdW  Elec       q    Type
REMARK                         _______ _______ _______ _____ _____    ______ ____
ROOT
ATOM      8  C   UNL     1       3.351   0.012  -0.965  0.00  0.00    +0.000 C 
ATOM      9  C   UNL     1       3.539  -0.185   0.558  0.00  0.00    +0.029 C 
ATOM     10  C   UNL     1       2.166   0.947  -1.244  0.00  0.00    +0.012 C 
ATOM     11  C   UNL     1       2.299   2.325  -0.560  0.00  0.00    +0.024 C 
ATOM     14  C   UNL     1       3.420   1.106   1.328  0.00  0.00    -0.023 C 
ATOM     15  C   UNL     1       2.881   2.240   0.843  0.00  0.00    -0.073 C 
ATOM     23  C   UNL     1       2.891   3.497   1.668  0.00  0.00    +0.039 C 
ENDROOT
BRANCH   8  12
ATOM     12  C   UNL     1       4.636   0.533  -1.624  0.00  0.00    -0.013 C 
ATOM     19  C   UNL     1       4.444   0.665  -3.131  0.00  0.00    +0.007 C 
ATOM     20  C   UNL     1       5.808  -0.390  -1.306  0.00  0.00    +0.007 C 
ENDBRANCH   8  12
BRANCH   9  13
ATOM     13  C   UNL     1       2.543  -1.203   1.123  0.00  0.00    +0.092 C 
BRANCH  13   4
ATOM      4  N   UNL     1       2.648  -2.471   0.418  0.00  0.00    -0.302 NA
ATOM     17  C   UNL     1       3.783  -3.272   0.875  0.00  0.00    +0.084 C 
ATOM     18  C   UNL     1       1.476  -3.322   0.622  0.00  0.00    +0.084 C 
ATOM     21  C   UNL     1       3.473  -4.653   0.315  0.00  0.00    +0.017 C 
ATOM     22  C   UNL     1       1.958  -4.685   0.145  0.00  0.00    +0.017 C 
ENDBRANCH  13   4
ENDBRANCH   9  13
BRANCH  11  16
ATOM     16  C   UNL     1       0.935   3.024  -0.599  0.00  0.00    +0.105 C 
BRANCH  16  24
ATOM      1  O   UNL     1      -1.200   1.859  -0.392  0.00  0.00    -0.420 OA
ATOM      5  N   UNL     1      -0.052   2.015   1.522  0.00  0.00    -0.112 NA
ATOM      6  N   UNL     1      -1.229   1.338   1.783  0.00  0.00    -0.107 NA
ATOM     24  C   UNL     1      -0.078   2.299   0.241  0.00  0.00    +0.218 A 
ATOM     25  C   UNL     1      -1.867   1.270   0.638  0.00  0.00    +0.248 A 
BRANCH  25  26
ATOM     26  C   UNL     1      -3.133   0.683   0.311  0.00  0.00    +0.039 A 
ATOM     27  C   UNL     1      -3.888   0.057   1.303  0.00  0.00    +0.015 A 
ATOM     28  C   UNL     1      -3.611   0.738  -0.998  0.00  0.00    +0.015 A 
ATOM     29  C   UNL     1      -5.120  -0.515   0.986  0.00  0.00    +0.033 A 
ATOM     30  C   UNL     1      -4.842   0.166  -1.316  0.00  0.00    +0.033 A 
ATOM     31  C   UNL     1      -5.597  -0.461  -0.324  0.00  0.00    +0.126 A 
BRANCH  31   7
ATOM      2  O   UNL     1      -7.517  -1.597   0.260  0.00  0.00    -0.126 OA
ATOM      3  O   UNL     1      -7.263  -0.980  -1.831  0.00  0.00    -0.126 OA
ATOM      7  N   UNL     1      -6.853  -1.040  -0.647  0.00  0.00    +0.056 N 
ENDBRANCH  31   7
ENDBRANCH  25  26
ENDBRANCH  16  24
ENDBRANCH  11  16
TORSDOF 7
