MODEL 1
REMARK VINA RESULT:      -5.9      0.000      0.000
REMARK  Name = 75536495
REMARK  8 active torsions:
REMARK  status: ('A' for Active; 'I' for Inactive)
REMARK    1  A    between atoms: O_2  and  C_7
REMARK    2  A    between atoms: N_4  and  C_6
REMARK    3  A    between atoms: N_4  and  C_11
REMARK    4  A    between atoms: N_5  and  C_10
REMARK    5  A    between atoms: C_8  and  C_10
REMARK    6  A    between atoms: C_11  and  C_12
REMARK    7  A    between atoms: C_11  and  C_13
REMARK    8  A    between atoms: C_14  and  C_15
REMARK                            x       y       z     vdW  Elec       q    Type
REMARK                         _______ _______ _______ _____ _____    ______ ____
ROOT
ATOM      1  O   UNL     1      -0.976   0.331  23.404  0.00  0.00    -0.371 OA
ATOM      6  C   UNL     1      -0.811   2.509  24.339  0.00  0.00    +0.111 C 
ATOM      7  C   UNL     1      -0.789   1.486  25.459  0.00  0.00    +0.164 C 
ATOM      8  C   UNL     1      -0.372   0.232  24.705  0.00  0.00    +0.165 C 
ATOM      9  C   UNL     1      -1.394   1.693  23.198  0.00  0.00    +0.181 C 
ENDROOT
BRANCH   7   2
ATOM      2  O   UNL     1       0.129   1.816  26.483  0.00  0.00    -0.388 OA
ATOM     17  H   UNL     1       0.942   2.152  26.068  0.00  0.00    +0.210 HD
ENDBRANCH   7   2
BRANCH   6   4
ATOM      4  N   UNL     1      -1.594   3.695  24.645  0.00  0.00    -0.307 NA
ATOM     16  H   UNL     1      -1.710   4.265  23.807  0.00  0.00    +0.123 HD
BRANCH   4  11
ATOM     11  C   UNL     1      -2.898   3.338  25.188  0.00  0.00    +0.048 C 
ATOM     12  C   UNL     1      -3.163   4.152  26.451  0.00  0.00    +0.023 C 
ATOM     13  C   UNL     1      -3.987   3.573  24.146  0.00  0.00    +0.023 C 
ENDBRANCH   4  11
ENDBRANCH   6   4
BRANCH   8  10
ATOM     10  C   UNL     1      -0.818  -1.053  25.380  0.00  0.00    +0.138 C 
BRANCH  10   5
ATOM      3  O   UNL     1      -3.666  -1.009  25.939  0.00  0.00    -0.276 OA
ATOM      5  N   UNL     1      -1.861  -1.698  24.637  0.00  0.00    -0.313 N 
ATOM     14  C   UNL     1      -3.207  -1.623  24.978  0.00  0.00    +0.210 C 
ATOM     15  C   UNL     1      -4.091  -2.370  24.016  0.00  0.00    +0.109 C 
ATOM     18  H   UNL     1      -1.592  -2.239  23.820  0.00  0.00    +0.149 HD
ENDBRANCH  10   5
ENDBRANCH   8  10
TORSDOF 5
ENDMDL
MODEL 2
REMARK VINA RESULT:      -5.8      2.126      4.566
REMARK  Name = 75536495
REMARK  8 active torsions:
REMARK  status: ('A' for Active; 'I' for Inactive)
REMARK    1  A    between atoms: O_2  and  C_7
REMARK    2  A    between atoms: N_4  and  C_6
REMARK    3  A    between atoms: N_4  and  C_11
REMARK    4  A    between atoms: N_5  and  C_10
REMARK    5  A    between atoms: C_8  and  C_10
REMARK    6  A    between atoms: C_11  and  C_12
REMARK    7  A    between atoms: C_11  and  C_13
REMARK    8  A    between atoms: C_14  and  C_15
REMARK                            x       y       z     vdW  Elec       q    Type
REMARK                         _______ _______ _______ _____ _____    ______ ____
ROOT
ATOM      1  O   UNL     1      -1.140   3.438  25.559  0.00  0.00    -0.371 OA
ATOM      6  C   UNL     1      -0.908   1.102  25.196  0.00  0.00    +0.111 C 
ATOM      7  C   UNL     1      -2.295   1.535  24.761  0.00  0.00    +0.164 C 
ATOM      8  C   UNL     1      -2.087   3.029  24.558  0.00  0.00    +0.165 C 
ATOM      9  C   UNL     1      -0.494   2.264  26.084  0.00  0.00    +0.181 C 
ENDROOT
BRANCH   7   2
ATOM      2  O   UNL     1      -2.720   0.896  23.573  0.00  0.00    -0.388 OA
ATOM     17  H   UNL     1      -3.556   1.301  23.290  0.00  0.00    +0.210 HD
ENDBRANCH   7   2
BRANCH   6   4
ATOM      4  N   UNL     1      -0.885  -0.176  25.889  0.00  0.00    -0.307 NA
ATOM     16  H   UNL     1      -1.815  -0.400  26.243  0.00  0.00    +0.123 HD
BRANCH   4  11
ATOM     11  C   UNL     1      -0.417  -1.241  25.011  0.00  0.00    +0.048 C 
ATOM     12  C   UNL     1      -1.590  -2.140  24.632  0.00  0.00    +0.023 C 
ATOM     13  C   UNL     1       0.246  -0.652  23.770  0.00  0.00    +0.023 C 
ENDBRANCH   4  11
ENDBRANCH   6   4
BRANCH   8  10
ATOM     10  C   UNL     1      -3.364   3.839  24.697  0.00  0.00    +0.138 C 
BRANCH  10   5
ATOM      3  O   UNL     1      -5.451   3.065  26.560  0.00  0.00    -0.276 OA
ATOM      5  N   UNL     1      -4.522   3.038  24.424  0.00  0.00    -0.313 N 
ATOM     14  C   UNL     1      -5.476   2.716  25.383  0.00  0.00    +0.210 C 
ATOM     15  C   UNL     1      -6.600   1.886  24.824  0.00  0.00    +0.109 C 
ATOM     18  H   UNL     1      -4.642   2.691  23.477  0.00  0.00    +0.149 HD
ENDBRANCH  10   5
ENDBRANCH   8  10
TORSDOF 5
ENDMDL
MODEL 3
REMARK VINA RESULT:      -5.7      2.089      3.633
REMARK  Name = 75536495
REMARK  8 active torsions:
REMARK  status: ('A' for Active; 'I' for Inactive)
REMARK    1  A    between atoms: O_2  and  C_7
REMARK    2  A    between atoms: N_4  and  C_6
REMARK    3  A    between atoms: N_4  and  C_11
REMARK    4  A    between atoms: N_5  and  C_10
REMARK    5  A    between atoms: C_8  and  C_10
REMARK    6  A    between atoms: C_11  and  C_12
REMARK    7  A    between atoms: C_11  and  C_13
REMARK    8  A    between atoms: C_14  and  C_15
REMARK                            x       y       z     vdW  Elec       q    Type
REMARK                         _______ _______ _______ _____ _____    ______ ____
ROOT
ATOM      1  O   UNL     1      -4.507   3.326  25.761  0.00  0.00    -0.371 OA
ATOM      6  C   UNL     1      -2.474   3.666  24.580  0.00  0.00    +0.111 C 
ATOM      7  C   UNL     1      -3.040   2.307  24.211  0.00  0.00    +0.164 C 
ATOM      8  C   UNL     1      -4.502   2.483  24.597  0.00  0.00    +0.165 C 
ATOM      9  C   UNL     1      -3.221   3.963  25.870  0.00  0.00    +0.181 C 
ENDROOT
BRANCH   7   2
ATOM      2  O   UNL     1      -2.890   2.007  22.837  0.00  0.00    -0.388 OA
ATOM     17  H   UNL     1      -2.676   2.830  22.366  0.00  0.00    +0.210 HD
ENDBRANCH   7   2
BRANCH   6   4
ATOM      4  N   UNL     1      -1.030   3.671  24.748  0.00  0.00    -0.307 NA
ATOM     16  H   UNL     1      -0.756   4.396  25.412  0.00  0.00    +0.123 HD
BRANCH   4  11
ATOM     11  C   UNL     1      -0.548   2.373  25.204  0.00  0.00    +0.048 C 
ATOM     12  C   UNL     1       0.441   1.812  24.188  0.00  0.00    +0.023 C 
ATOM     13  C   UNL     1       0.094   2.501  26.582  0.00  0.00    +0.023 C 
ENDBRANCH   4  11
ENDBRANCH   6   4
BRANCH   8  10
ATOM     10  C   UNL     1      -5.203   1.173  24.910  0.00  0.00    +0.138 C 
BRANCH  10   5
ATOM      3  O   UNL     1      -4.377  -1.291  23.618  0.00  0.00    -0.276 OA
ATOM      5  N   UNL     1      -4.282   0.195  25.410  0.00  0.00    -0.313 N 
ATOM     14  C   UNL     1      -3.942  -0.963  24.719  0.00  0.00    +0.210 C 
ATOM     15  C   UNL     1      -2.936  -1.803  25.458  0.00  0.00    +0.109 C 
ATOM     18  H   UNL     1      -3.862   0.364  26.319  0.00  0.00    +0.149 HD
ENDBRANCH  10   5
ENDBRANCH   8  10
TORSDOF 5
ENDMDL
MODEL 4
REMARK VINA RESULT:      -5.7      2.117      3.257
REMARK  Name = 75536495
REMARK  8 active torsions:
REMARK  status: ('A' for Active; 'I' for Inactive)
REMARK    1  A    between atoms: O_2  and  C_7
REMARK    2  A    between atoms: N_4  and  C_6
REMARK    3  A    between atoms: N_4  and  C_11
REMARK    4  A    between atoms: N_5  and  C_10
REMARK    5  A    between atoms: C_8  and  C_10
REMARK    6  A    between atoms: C_11  and  C_12
REMARK    7  A    between atoms: C_11  and  C_13
REMARK    8  A    between atoms: C_14  and  C_15
REMARK                            x       y       z     vdW  Elec       q    Type
REMARK                         _______ _______ _______ _____ _____    ______ ____
ROOT
ATOM      1  O   UNL     1      -5.485   1.274  25.390  0.00  0.00    -0.371 OA
ATOM      6  C   UNL     1      -4.232   2.870  24.156  0.00  0.00    +0.111 C 
ATOM      7  C   UNL     1      -3.410   1.605  24.306  0.00  0.00    +0.164 C 
ATOM      8  C   UNL     1      -4.496   0.582  24.610  0.00  0.00    +0.165 C 
ATOM      9  C   UNL     1      -5.266   2.690  25.254  0.00  0.00    +0.181 C 
ENDROOT
BRANCH   7   2
ATOM      2  O   UNL     1      -2.690   1.277  23.133  0.00  0.00    -0.388 OA
ATOM     17  H   UNL     1      -1.933   1.881  23.061  0.00  0.00    +0.210 HD
ENDBRANCH   7   2
BRANCH   6   4
ATOM      4  N   UNL     1      -3.457   4.092  24.303  0.00  0.00    -0.307 NA
ATOM     16  H   UNL     1      -4.068   4.867  24.558  0.00  0.00    +0.123 HD
BRANCH   4  11
ATOM     11  C   UNL     1      -2.410   3.934  25.305  0.00  0.00    +0.048 C 
ATOM     12  C   UNL     1      -1.230   4.834  24.954  0.00  0.00    +0.023 C 
ATOM     13  C   UNL     1      -2.954   4.258  26.693  0.00  0.00    +0.023 C 
ENDBRANCH   4  11
ENDBRANCH   6   4
BRANCH   8  10
ATOM     10  C   UNL     1      -3.989  -0.624  25.379  0.00  0.00    +0.138 C 
BRANCH  10   5
ATOM      3  O   UNL     1      -2.223  -2.632  24.247  0.00  0.00    -0.276 OA
ATOM      5  N   UNL     1      -2.555  -0.649  25.425  0.00  0.00    -0.313 N 
ATOM     14  C   UNL     1      -1.786  -1.655  24.852  0.00  0.00    +0.210 C 
ATOM     15  C   UNL     1      -0.309  -1.423  25.023  0.00  0.00    +0.109 C 
ATOM     18  H   UNL     1      -2.086   0.113  25.905  0.00  0.00    +0.149 HD
ENDBRANCH  10   5
ENDBRANCH   8  10
TORSDOF 5
ENDMDL
MODEL 5
REMARK VINA RESULT:      -5.6      2.219      4.991
REMARK  Name = 75536495
REMARK  8 active torsions:
REMARK  status: ('A' for Active; 'I' for Inactive)
REMARK    1  A    between atoms: O_2  and  C_7
REMARK    2  A    between atoms: N_4  and  C_6
REMARK    3  A    between atoms: N_4  and  C_11
REMARK    4  A    between atoms: N_5  and  C_10
REMARK    5  A    between atoms: C_8  and  C_10
REMARK    6  A    between atoms: C_11  and  C_12
REMARK    7  A    between atoms: C_11  and  C_13
REMARK    8  A    between atoms: C_14  and  C_15
REMARK                            x       y       z     vdW  Elec       q    Type
REMARK                         _______ _______ _______ _____ _____    ______ ____
ROOT
ATOM      1  O   UNL     1      -2.985   2.744  23.307  0.00  0.00    -0.371 OA
ATOM      6  C   UNL     1      -4.573   1.326  24.360  0.00  0.00    +0.111 C 
ATOM      7  C   UNL     1      -4.175   2.426  25.325  0.00  0.00    +0.164 C 
ATOM      8  C   UNL     1      -3.625   3.474  24.367  0.00  0.00    +0.165 C 
ATOM      9  C   UNL     1      -3.431   1.377  23.358  0.00  0.00    +0.181 C 
ENDROOT
BRANCH   7   2
ATOM      2  O   UNL     1      -5.270   2.919  26.073  0.00  0.00    -0.388 OA
ATOM     17  H   UNL     1      -5.122   3.864  26.245  0.00  0.00    +0.210 HD
ENDBRANCH   7   2
BRANCH   6   4
ATOM      4  N   UNL     1      -4.717   0.022  24.987  0.00  0.00    -0.307 NA
ATOM     16  H   UNL     1      -5.617  -0.389  24.739  0.00  0.00    +0.123 HD
BRANCH   4  11
ATOM     11  C   UNL     1      -3.636  -0.873  24.595  0.00  0.00    +0.048 C 
ATOM     12  C   UNL     1      -2.831  -1.269  25.828  0.00  0.00    +0.023 C 
ATOM     13  C   UNL     1      -4.198  -2.103  23.889  0.00  0.00    +0.023 C 
ENDBRANCH   4  11
ENDBRANCH   6   4
BRANCH   8  10
ATOM     10  C   UNL     1      -2.628   4.417  25.016  0.00  0.00    +0.138 C 
BRANCH  10   5
ATOM      3  O   UNL     1      -0.109   3.165  24.297  0.00  0.00    -0.276 OA
ATOM      5  N   UNL     1      -1.728   3.711  25.882  0.00  0.00    -0.313 N 
ATOM     14  C   UNL     1      -0.536   3.140  25.449  0.00  0.00    +0.210 C 
ATOM     15  C   UNL     1       0.229   2.482  26.566  0.00  0.00    +0.109 C 
ATOM     18  H   UNL     1      -1.985   3.627  26.861  0.00  0.00    +0.149 HD
ENDBRANCH  10   5
ENDBRANCH   8  10
TORSDOF 5
ENDMDL
MODEL 6
REMARK VINA RESULT:      -5.5     15.036     16.624
REMARK  Name = 75536495
REMARK  8 active torsions:
REMARK  status: ('A' for Active; 'I' for Inactive)
REMARK    1  A    between atoms: O_2  and  C_7
REMARK    2  A    between atoms: N_4  and  C_6
REMARK    3  A    between atoms: N_4  and  C_11
REMARK    4  A    between atoms: N_5  and  C_10
REMARK    5  A    between atoms: C_8  and  C_10
REMARK    6  A    between atoms: C_11  and  C_12
REMARK    7  A    between atoms: C_11  and  C_13
REMARK    8  A    between atoms: C_14  and  C_15
REMARK                            x       y       z     vdW  Elec       q    Type
REMARK                         _______ _______ _______ _____ _____    ______ ____
ROOT
ATOM      1  O   UNL     1      13.216   8.041  21.609  0.00  0.00    -0.371 OA
ATOM      6  C   UNL     1      11.279   9.001  22.594  0.00  0.00    +0.111 C 
ATOM      7  C   UNL     1      10.853   7.987  21.550  0.00  0.00    +0.164 C 
ATOM      8  C   UNL     1      12.112   7.139  21.432  0.00  0.00    +0.165 C 
ATOM      9  C   UNL     1      12.721   9.261  22.190  0.00  0.00    +0.181 C 
ENDROOT
BRANCH   7   2
ATOM      2  O   UNL     1       9.736   7.219  21.957  0.00  0.00    -0.388 OA
ATOM     17  H   UNL     1      10.013   6.290  22.026  0.00  0.00    +0.210 HD
ENDBRANCH   7   2
BRANCH   6   4
ATOM      4  N   UNL     1      10.467  10.207  22.603  0.00  0.00    -0.307 NA
ATOM     16  H   UNL     1       9.664  10.085  23.220  0.00  0.00    +0.123 HD
BRANCH   4  11
ATOM     11  C   UNL     1      11.247  11.363  23.026  0.00  0.00    +0.048 C 
ATOM     12  C   UNL     1      11.015  12.516  22.054  0.00  0.00    +0.023 C 
ATOM     13  C   UNL     1      10.872  11.762  24.450  0.00  0.00    +0.023 C 
ENDBRANCH   4  11
ENDBRANCH   6   4
BRANCH   8  10
ATOM     10  C   UNL     1      12.237   6.431  20.094  0.00  0.00    +0.138 C 
BRANCH  10   5
ATOM      3  O   UNL     1      11.762   7.358  17.385  0.00  0.00    -0.276 OA
ATOM      5  N   UNL     1      13.161   7.108  19.231  0.00  0.00    -0.313 N 
ATOM     14  C   UNL     1      12.847   7.519  17.940  0.00  0.00    +0.210 C 
ATOM     15  C   UNL     1      13.989   8.227  17.264  0.00  0.00    +0.109 C 
ATOM     18  H   UNL     1      14.094   7.291  19.589  0.00  0.00    +0.149 HD
ENDBRANCH  10   5
ENDBRANCH   8  10
TORSDOF 5
ENDMDL
MODEL 7
REMARK VINA RESULT:      -5.5     16.188     18.045
REMARK  Name = 75536495
REMARK  8 active torsions:
REMARK  status: ('A' for Active; 'I' for Inactive)
REMARK    1  A    between atoms: O_2  and  C_7
REMARK    2  A    between atoms: N_4  and  C_6
REMARK    3  A    between atoms: N_4  and  C_11
REMARK    4  A    between atoms: N_5  and  C_10
REMARK    5  A    between atoms: C_8  and  C_10
REMARK    6  A    between atoms: C_11  and  C_12
REMARK    7  A    between atoms: C_11  and  C_13
REMARK    8  A    between atoms: C_14  and  C_15
REMARK                            x       y       z     vdW  Elec       q    Type
REMARK                         _______ _______ _______ _____ _____    ______ ____
ROOT
ATOM      1  O   UNL     1      15.301   8.708  19.276  0.00  0.00    -0.371 OA
ATOM      6  C   UNL     1      14.024   6.851  20.027  0.00  0.00    +0.111 C 
ATOM      7  C   UNL     1      13.175   7.689  19.090  0.00  0.00    +0.164 C 
ATOM      8  C   UNL     1      14.247   8.459  18.331  0.00  0.00    +0.165 C 
ATOM      9  C   UNL     1      15.117   7.836  20.406  0.00  0.00    +0.181 C 
ENDROOT
BRANCH   7   2
ATOM      2  O   UNL     1      12.377   6.904  18.225  0.00  0.00    -0.388 OA
ATOM     17  H   UNL     1      11.566   6.656  18.699  0.00  0.00    +0.210 HD
ENDBRANCH   7   2
BRANCH   6   4
ATOM      4  N   UNL     1      13.297   6.342  21.177  0.00  0.00    -0.307 NA
ATOM     16  H   UNL     1      13.769   6.612  22.040  0.00  0.00    +0.123 HD
BRANCH   4  11
ATOM     11  C   UNL     1      11.923   6.830  21.190  0.00  0.00    +0.048 C 
ATOM     12  C   UNL     1      10.984   5.698  21.594  0.00  0.00    +0.023 C 
ATOM     13  C   UNL     1      11.793   8.016  22.141  0.00  0.00    +0.023 C 
ENDBRANCH   4  11
ENDBRANCH   6   4
BRANCH   8  10
ATOM     10  C   UNL     1      13.750   9.775  17.759  0.00  0.00    +0.138 C 
BRANCH  10   5
ATOM      3  O   UNL     1      13.014   8.945  15.076  0.00  0.00    -0.276 OA
ATOM      5  N   UNL     1      12.427   9.643  17.220  0.00  0.00    -0.313 N 
ATOM     14  C   UNL     1      12.166   9.237  15.916  0.00  0.00    +0.210 C 
ATOM     15  C   UNL     1      10.693   9.159  15.619  0.00  0.00    +0.109 C 
ATOM     18  H   UNL     1      11.646   9.863  17.831  0.00  0.00    +0.149 HD
ENDBRANCH  10   5
ENDBRANCH   8  10
TORSDOF 5
ENDMDL
MODEL 8
REMARK VINA RESULT:      -5.4      1.728      4.476
REMARK  Name = 75536495
REMARK  8 active torsions:
REMARK  status: ('A' for Active; 'I' for Inactive)
REMARK    1  A    between atoms: O_2  and  C_7
REMARK    2  A    between atoms: N_4  and  C_6
REMARK    3  A    between atoms: N_4  and  C_11
REMARK    4  A    between atoms: N_5  and  C_10
REMARK    5  A    between atoms: C_8  and  C_10
REMARK    6  A    between atoms: C_11  and  C_12
REMARK    7  A    between atoms: C_11  and  C_13
REMARK    8  A    between atoms: C_14  and  C_15
REMARK                            x       y       z     vdW  Elec       q    Type
REMARK                         _______ _______ _______ _____ _____    ______ ____
ROOT
ATOM      1  O   UNL     1      -0.499   2.085  25.944  0.00  0.00    -0.371 OA
ATOM      6  C   UNL     1      -1.076   0.356  24.422  0.00  0.00    +0.111 C 
ATOM      7  C   UNL     1      -1.889   1.594  24.095  0.00  0.00    +0.164 C 
ATOM      8  C   UNL     1      -1.051   2.679  24.757  0.00  0.00    +0.165 C 
ATOM      9  C   UNL     1      -0.628   0.656  25.842  0.00  0.00    +0.181 C 
ENDROOT
BRANCH   7   2
ATOM      2  O   UNL     1      -2.024   1.808  22.703  0.00  0.00    -0.388 OA
ATOM     17  H   UNL     1      -2.095   0.943  22.267  0.00  0.00    +0.210 HD
ENDBRANCH   7   2
BRANCH   6   4
ATOM      4  N   UNL     1      -1.829  -0.883  24.315  0.00  0.00    -0.307 NA
ATOM     16  H   UNL     1      -1.372  -1.620  24.853  0.00  0.00    +0.123 HD
BRANCH   4  11
ATOM     11  C   UNL     1      -3.200  -0.707  24.780  0.00  0.00    +0.048 C 
ATOM     12  C   UNL     1      -4.161  -1.349  23.785  0.00  0.00    +0.023 C 
ATOM     13  C   UNL     1      -3.368  -1.310  26.172  0.00  0.00    +0.023 C 
ENDBRANCH   4  11
ENDBRANCH   6   4
BRANCH   8  10
ATOM     10  C   UNL     1      -1.851   3.915  25.126  0.00  0.00    +0.138 C 
BRANCH  10   5
ATOM      3  O   UNL     1      -4.370   3.642  23.710  0.00  0.00    -0.276 OA
ATOM      5  N   UNL     1      -3.128   3.565  25.679  0.00  0.00    -0.313 N 
ATOM     14  C   UNL     1      -4.288   3.455  24.921  0.00  0.00    +0.210 C 
ATOM     15  C   UNL     1      -5.481   3.050  25.745  0.00  0.00    +0.109 C 
ATOM     18  H   UNL     1      -3.177   3.390  26.679  0.00  0.00    +0.149 HD
ENDBRANCH  10   5
ENDBRANCH   8  10
TORSDOF 5
ENDMDL
MODEL 9
REMARK VINA RESULT:      -5.3     15.504     17.486
REMARK  Name = 75536495
REMARK  8 active torsions:
REMARK  status: ('A' for Active; 'I' for Inactive)
REMARK    1  A    between atoms: O_2  and  C_7
REMARK    2  A    between atoms: N_4  and  C_6
REMARK    3  A    between atoms: N_4  and  C_11
REMARK    4  A    between atoms: N_5  and  C_10
REMARK    5  A    between atoms: C_8  and  C_10
REMARK    6  A    between atoms: C_11  and  C_12
REMARK    7  A    between atoms: C_11  and  C_13
REMARK    8  A    between atoms: C_14  and  C_15
REMARK                            x       y       z     vdW  Elec       q    Type
REMARK                         _______ _______ _______ _____ _____    ______ ____
ROOT
ATOM      1  O   UNL     1      10.507   8.396  19.942  0.00  0.00    -0.371 OA
ATOM      6  C   UNL     1      12.480   7.361  19.118  0.00  0.00    +0.111 C 
ATOM      7  C   UNL     1      12.544   7.412  20.633  0.00  0.00    +0.164 C 
ATOM      8  C   UNL     1      11.072   7.582  20.984  0.00  0.00    +0.165 C 
ATOM      9  C   UNL     1      11.415   8.405  18.826  0.00  0.00    +0.181 C 
ENDROOT
BRANCH   7   2
ATOM      2  O   UNL     1      13.088   6.235  21.197  0.00  0.00    -0.388 OA
ATOM     17  H   UNL     1      12.371   5.747  21.635  0.00  0.00    +0.210 HD
ENDBRANCH   7   2
BRANCH   6   4
ATOM      4  N   UNL     1      13.749   7.650  18.470  0.00  0.00    -0.307 NA
ATOM     16  H   UNL     1      13.955   6.937  17.770  0.00  0.00    +0.123 HD
BRANCH   4  11
ATOM     11  C   UNL     1      13.734   8.967  17.847  0.00  0.00    +0.048 C 
ATOM     12  C   UNL     1      14.732   9.877  18.557  0.00  0.00    +0.023 C 
ATOM     13  C   UNL     1      14.058   8.853  16.360  0.00  0.00    +0.023 C 
ENDBRANCH   4  11
ENDBRANCH   6   4
BRANCH   8  10
ATOM     10  C   UNL     1      10.848   8.245  22.331  0.00  0.00    +0.138 C 
BRANCH  10   5
ATOM      3  O   UNL     1      11.135  11.116  22.018  0.00  0.00    -0.276 OA
ATOM      5  N   UNL     1      11.971   9.054  22.708  0.00  0.00    -0.313 N 
ATOM     14  C   UNL     1      12.022  10.431  22.520  0.00  0.00    +0.210 C 
ATOM     15  C   UNL     1      13.303  11.037  23.027  0.00  0.00    +0.109 C 
ATOM     18  H   UNL     1      12.767   8.588  23.132  0.00  0.00    +0.149 HD
ENDBRANCH  10   5
ENDBRANCH   8  10
TORSDOF 5
ENDMDL
MODEL 10
REMARK VINA RESULT:      -5.2      2.211      4.076
REMARK  Name = 75536495
REMARK  8 active torsions:
REMARK  status: ('A' for Active; 'I' for Inactive)
REMARK    1  A    between atoms: O_2  and  C_7
REMARK    2  A    between atoms: N_4  and  C_6
REMARK    3  A    between atoms: N_4  and  C_11
REMARK    4  A    between atoms: N_5  and  C_10
REMARK    5  A    between atoms: C_8  and  C_10
REMARK    6  A    between atoms: C_11  and  C_12
REMARK    7  A    between atoms: C_11  and  C_13
REMARK    8  A    between atoms: C_14  and  C_15
REMARK                            x       y       z     vdW  Elec       q    Type
REMARK                         _______ _______ _______ _____ _____    ______ ____
ROOT
ATOM      1  O   UNL     1      -1.737  -0.128  25.208  0.00  0.00    -0.371 OA
ATOM      6  C   UNL     1      -3.697   0.617  24.092  0.00  0.00    +0.111 C 
ATOM      7  C   UNL     1      -2.541   1.527  23.722  0.00  0.00    +0.164 C 
ATOM      8  C   UNL     1      -1.350   0.640  24.056  0.00  0.00    +0.165 C 
ATOM      9  C   UNL     1      -3.166  -0.047  25.351  0.00  0.00    +0.181 C 
ENDROOT
BRANCH   7   2
ATOM      2  O   UNL     1      -2.555   1.900  22.357  0.00  0.00    -0.388 OA
ATOM     17  H   UNL     1      -1.676   2.245  22.126  0.00  0.00    +0.210 HD
ENDBRANCH   7   2
BRANCH   6   4
ATOM      4  N   UNL     1      -4.950   1.322  24.308  0.00  0.00    -0.307 NA
ATOM     16  H   UNL     1      -5.716   0.656  24.406  0.00  0.00    +0.123 HD
BRANCH   4  11
ATOM     11  C   UNL     1      -4.878   2.172  25.490  0.00  0.00    +0.048 C 
ATOM     12  C   UNL     1      -4.699   3.625  25.062  0.00  0.00    +0.023 C 
ATOM     13  C   UNL     1      -6.133   2.002  26.341  0.00  0.00    +0.023 C 
ENDBRANCH   4  11
ENDBRANCH   6   4
BRANCH   8  10
ATOM     10  C   UNL     1      -0.085   1.421  24.361  0.00  0.00    +0.138 C 
BRANCH  10   5
ATOM      3  O   UNL     1      -1.297   3.137  26.364  0.00  0.00    -0.276 OA
ATOM      5  N   UNL     1      -0.312   2.835  24.275  0.00  0.00    -0.313 N 
ATOM     14  C   UNL     1      -0.901   3.581  25.289  0.00  0.00    +0.210 C 
ATOM     15  C   UNL     1      -0.997   5.045  24.951  0.00  0.00    +0.109 C 
ATOM     18  H   UNL     1      -0.024   3.308  23.423  0.00  0.00    +0.149 HD
ENDBRANCH  10   5
ENDBRANCH   8  10
TORSDOF 5
ENDMDL
