MODEL 1
REMARK VINA RESULT:      -6.2      0.000      0.000
REMARK  Name = 7673717
REMARK  6 active torsions:
REMARK  status: ('A' for Active; 'I' for Inactive)
REMARK    1  A    between atoms: N_5  and  C_19
REMARK    2  A    between atoms: C_8  and  C_12
REMARK    3  A    between atoms: C_11  and  C_23
REMARK    4  A    between atoms: C_12  and  C_19
REMARK    5  A    between atoms: C_18  and  C_26
REMARK    6  A    between atoms: C_19  and  C_28
REMARK                            x       y       z     vdW  Elec       q    Type
REMARK                         _______ _______ _______ _____ _____    ______ ____
ROOT
ATOM      2  O   UNL     1      -2.292 -14.644  14.140  0.00  0.00    -0.274 OA
ATOM      5  N   UNL     1      -3.250 -12.534  13.926  0.00  0.00    -0.302 N 
ATOM     26  C   UNL     1      -3.272 -13.904  14.120  0.00  0.00    +0.235 C 
ATOM     29  H   UNL     1      -4.108 -12.004  14.049  0.00  0.00    +0.150 HD
ENDROOT
BRANCH  26  18
ATOM      1  O   UNL     1      -5.989 -12.212  15.473  0.00  0.00    -0.275 OA
ATOM      4  N   UNL     1      -4.950 -14.272  15.767  0.00  0.00    -0.287 N 
ATOM      6  N   UNL     1      -4.157 -16.834  14.726  0.00  0.00    -0.312 NA
ATOM     18  C   UNL     1      -4.663 -14.427  14.337  0.00  0.00    +0.176 C 
ATOM     23  C   UNL     1      -5.545 -13.090  16.217  0.00  0.00    +0.219 C 
ATOM     24  C   UNL     1      -4.420 -15.321  16.649  0.00  0.00    +0.123 C 
ATOM     25  C   UNL     1      -4.816 -15.866  13.846  0.00  0.00    +0.113 C 
ATOM     27  C   UNL     1      -4.669 -16.717  16.089  0.00  0.00    +0.100 C 
ATOM     30  H   UNL     1      -3.153 -16.653  14.729  0.00  0.00    +0.122 HD
BRANCH  23  11
ATOM     11  C   UNL     1      -5.639 -12.908  17.704  0.00  0.00    +0.075 C 
ATOM     16  C   UNL     1      -7.053 -12.465  18.086  0.00  0.00    +0.013 C 
ATOM     17  C   UNL     1      -4.589 -11.898  18.173  0.00  0.00    +0.013 C 
ATOM     20  C   UNL     1      -7.169 -12.177  19.580  0.00  0.00    +0.001 C 
ATOM     21  C   UNL     1      -4.711 -11.611  19.667  0.00  0.00    +0.001 C 
ATOM     22  C   UNL     1      -6.122 -11.168  20.042  0.00  0.00    +0.000 C 
ENDBRANCH  23  11
ENDBRANCH  26  18
BRANCH   5  19
ATOM     19  C   UNL     1      -2.033 -11.785  13.717  0.00  0.00    +0.159 C 
BRANCH  19  28
ATOM      3  O   UNL     1      -1.131  -9.760  14.714  0.00  0.00    -0.274 OA
ATOM      7  N   UNL     1      -3.300 -10.345  15.193  0.00  0.00    -0.328 N 
ATOM     28  C   UNL     1      -2.083 -10.524  14.570  0.00  0.00    +0.231 C 
ATOM     31  H   UNL     1      -3.463  -9.546  15.797  0.00  0.00    +0.145 HD
ATOM     32  H   UNL     1      -4.072 -10.995  15.082  0.00  0.00    +0.145 HD
ENDBRANCH  19  28
BRANCH  19  12
ATOM     12  C   UNL     1      -1.783 -11.489  12.235  0.00  0.00    +0.035 C 
BRANCH  12   8
ATOM      8  C   UNL     1      -2.986 -10.898  11.502  0.00  0.00    -0.009 C 
ATOM      9  C   UNL     1      -2.601  -9.594  10.792  0.00  0.00    +0.003 C 
ATOM     10  C   UNL     1      -3.565 -11.912  10.506  0.00  0.00    +0.003 C 
ATOM     13  C   UNL     1      -3.775  -9.012  10.008  0.00  0.00    +0.000 C 
ATOM     14  C   UNL     1      -4.737 -11.326   9.723  0.00  0.00    +0.000 C 
ATOM     15  C   UNL     1      -4.354 -10.024   9.025  0.00  0.00    +0.000 C 
ENDBRANCH  12   8
ENDBRANCH  19  12
ENDBRANCH   5  19
TORSDOF 6
ENDMDL
MODEL 2
REMARK VINA RESULT:      -6.1     27.284     30.156
REMARK  Name = 7673717
REMARK  6 active torsions:
REMARK  status: ('A' for Active; 'I' for Inactive)
REMARK    1  A    between atoms: N_5  and  C_19
REMARK    2  A    between atoms: C_8  and  C_12
REMARK    3  A    between atoms: C_11  and  C_23
REMARK    4  A    between atoms: C_12  and  C_19
REMARK    5  A    between atoms: C_18  and  C_26
REMARK    6  A    between atoms: C_19  and  C_28
REMARK                            x       y       z     vdW  Elec       q    Type
REMARK                         _______ _______ _______ _____ _____    ______ ____
ROOT
ATOM      2  O   UNL     1      15.953   9.527  20.004  0.00  0.00    -0.274 OA
ATOM      5  N   UNL     1      15.889   7.220  19.706  0.00  0.00    -0.302 N 
ATOM     26  C   UNL     1      15.338   8.487  19.784  0.00  0.00    +0.235 C 
ATOM     29  H   UNL     1      15.307   6.445  19.399  0.00  0.00    +0.150 HD
ENDROOT
BRANCH  26  18
ATOM      1  O   UNL     1      13.215  11.226  19.516  0.00  0.00    -0.275 OA
ATOM      4  N   UNL     1      13.242   9.199  20.658  0.00  0.00    -0.287 N 
ATOM      6  N   UNL     1      13.255   6.323  20.629  0.00  0.00    -0.312 NA
ATOM     18  C   UNL     1      13.856   8.480  19.538  0.00  0.00    +0.176 C 
ATOM     23  C   UNL     1      13.044  10.579  20.553  0.00  0.00    +0.219 C 
ATOM     24  C   UNL     1      13.039   8.425  21.891  0.00  0.00    +0.123 C 
ATOM     25  C   UNL     1      13.313   7.061  19.366  0.00  0.00    +0.113 C 
ATOM     27  C   UNL     1      12.449   7.048  21.608  0.00  0.00    +0.100 C 
ATOM     30  H   UNL     1      14.202   6.209  20.992  0.00  0.00    +0.122 HD
BRANCH  23  11
ATOM     11  C   UNL     1      12.592  11.291  21.794  0.00  0.00    +0.075 C 
ATOM     16  C   UNL     1      11.441  12.241  21.460  0.00  0.00    +0.013 C 
ATOM     17  C   UNL     1      13.770  12.038  22.426  0.00  0.00    +0.013 C 
ATOM     20  C   UNL     1      11.010  13.056  22.677  0.00  0.00    +0.001 C 
ATOM     21  C   UNL     1      13.334  12.853  23.641  0.00  0.00    +0.001 C 
ATOM     22  C   UNL     1      12.187  13.800  23.301  0.00  0.00    +0.000 C 
ENDBRANCH  23  11
ENDBRANCH  26  18
BRANCH   5  19
ATOM     19  C   UNL     1      17.299   6.959  19.882  0.00  0.00    +0.159 C 
BRANCH  19  28
ATOM      3  O   UNL     1      18.592   4.944  19.465  0.00  0.00    -0.274 OA
ATOM      7  N   UNL     1      16.826   5.419  18.076  0.00  0.00    -0.328 N 
ATOM     28  C   UNL     1      17.652   5.670  19.150  0.00  0.00    +0.231 C 
ATOM     31  H   UNL     1      16.959   4.595  17.499  0.00  0.00    +0.145 HD
ATOM     32  H   UNL     1      16.064   6.038  17.815  0.00  0.00    +0.145 HD
ENDBRANCH  19  28
BRANCH  19  12
ATOM     12  C   UNL     1      17.703   6.932  21.360  0.00  0.00    +0.035 C 
BRANCH  12   8
ATOM      8  C   UNL     1      19.058   7.574  21.651  0.00  0.00    -0.009 C 
ATOM      9  C   UNL     1      18.883   9.030  22.100  0.00  0.00    +0.003 C 
ATOM     10  C   UNL     1      19.825   6.765  22.706  0.00  0.00    +0.003 C 
ATOM     13  C   UNL     1      20.221   9.677  22.448  0.00  0.00    +0.000 C 
ATOM     14  C   UNL     1      21.161   7.416  23.053  0.00  0.00    +0.000 C 
ATOM     15  C   UNL     1      20.985   8.867  23.491  0.00  0.00    +0.000 C 
ENDBRANCH  12   8
ENDBRANCH  19  12
ENDBRANCH   5  19
TORSDOF 6
ENDMDL
MODEL 3
REMARK VINA RESULT:      -6.0      2.768      3.398
REMARK  Name = 7673717
REMARK  6 active torsions:
REMARK  status: ('A' for Active; 'I' for Inactive)
REMARK    1  A    between atoms: N_5  and  C_19
REMARK    2  A    between atoms: C_8  and  C_12
REMARK    3  A    between atoms: C_11  and  C_23
REMARK    4  A    between atoms: C_12  and  C_19
REMARK    5  A    between atoms: C_18  and  C_26
REMARK    6  A    between atoms: C_19  and  C_28
REMARK                            x       y       z     vdW  Elec       q    Type
REMARK                         _______ _______ _______ _____ _____    ______ ____
ROOT
ATOM      2  O   UNL     1      -4.460 -11.734  16.482  0.00  0.00    -0.274 OA
ATOM      5  N   UNL     1      -3.848 -10.675  14.501  0.00  0.00    -0.302 N 
ATOM     26  C   UNL     1      -4.699 -10.964  15.554  0.00  0.00    +0.235 C 
ATOM     29  H   UNL     1      -4.097  -9.932  13.854  0.00  0.00    +0.150 HD
ENDROOT
BRANCH  26  18
ATOM      1  O   UNL     1      -6.786 -10.032  18.172  0.00  0.00    -0.275 OA
ATOM      4  N   UNL     1      -7.017 -11.042  16.089  0.00  0.00    -0.287 N 
ATOM      6  N   UNL     1      -6.774 -10.930  13.225  0.00  0.00    -0.312 NA
ATOM     18  C   UNL     1      -5.988 -10.198  15.472  0.00  0.00    +0.176 C 
ATOM     23  C   UNL     1      -7.268 -10.915  17.458  0.00  0.00    +0.219 C 
ATOM     24  C   UNL     1      -7.588 -12.092  15.235  0.00  0.00    +0.123 C 
ATOM     25  C   UNL     1      -6.323  -9.796  14.035  0.00  0.00    +0.113 C 
ATOM     27  C   UNL     1      -7.931 -11.572  13.843  0.00  0.00    +0.100 C 
ATOM     30  H   UNL     1      -6.015 -11.607  13.147  0.00  0.00    +0.122 HD
BRANCH  23  11
ATOM     11  C   UNL     1      -8.189 -11.930  18.070  0.00  0.00    +0.075 C 
ATOM     16  C   UNL     1      -9.577 -11.320  18.271  0.00  0.00    +0.013 C 
ATOM     17  C   UNL     1      -7.603 -12.438  19.390  0.00  0.00    +0.013 C 
ATOM     20  C   UNL     1     -10.523 -12.288  18.977  0.00  0.00    +0.001 C 
ATOM     21  C   UNL     1      -8.553 -13.404  20.093  0.00  0.00    +0.001 C 
ATOM     22  C   UNL     1      -9.935 -12.789  20.293  0.00  0.00    +0.000 C 
ENDBRANCH  23  11
ENDBRANCH  26  18
BRANCH   5  19
ATOM     19  C   UNL     1      -2.536 -11.263  14.360  0.00  0.00    +0.159 C 
BRANCH  19  28
ATOM      3  O   UNL     1      -0.978  -9.443  14.772  0.00  0.00    -0.274 OA
ATOM      7  N   UNL     1      -1.327 -10.985  16.438  0.00  0.00    -0.328 N 
ATOM     28  C   UNL     1      -1.546 -10.452  15.186  0.00  0.00    +0.231 C 
ATOM     31  H   UNL     1      -0.682 -10.545  17.086  0.00  0.00    +0.145 HD
ATOM     32  H   UNL     1      -1.788 -11.831  16.761  0.00  0.00    +0.145 HD
ENDBRANCH  19  28
BRANCH  19  12
ATOM     12  C   UNL     1      -2.116 -11.395  12.893  0.00  0.00    +0.035 C 
BRANCH  12   8
ATOM      8  C   UNL     1      -3.120 -10.813  11.899  0.00  0.00    -0.009 C 
ATOM      9  C   UNL     1      -2.448  -9.762  11.005  0.00  0.00    +0.003 C 
ATOM     10  C   UNL     1      -3.753 -11.926  11.052  0.00  0.00    +0.003 C 
ATOM     13  C   UNL     1      -3.418  -9.203   9.967  0.00  0.00    +0.000 C 
ATOM     14  C   UNL     1      -4.720 -11.362  10.015  0.00  0.00    +0.000 C 
ATOM     15  C   UNL     1      -4.052 -10.311   9.133  0.00  0.00    +0.000 C 
ENDBRANCH  12   8
ENDBRANCH  19  12
ENDBRANCH   5  19
TORSDOF 6
ENDMDL
MODEL 4
REMARK VINA RESULT:      -5.9      2.260      6.750
REMARK  Name = 7673717
REMARK  6 active torsions:
REMARK  status: ('A' for Active; 'I' for Inactive)
REMARK    1  A    between atoms: N_5  and  C_19
REMARK    2  A    between atoms: C_8  and  C_12
REMARK    3  A    between atoms: C_11  and  C_23
REMARK    4  A    between atoms: C_12  and  C_19
REMARK    5  A    between atoms: C_18  and  C_26
REMARK    6  A    between atoms: C_19  and  C_28
REMARK                            x       y       z     vdW  Elec       q    Type
REMARK                         _______ _______ _______ _____ _____    ______ ____
ROOT
ATOM      2  O   UNL     1      -2.731 -11.051  14.941  0.00  0.00    -0.274 OA
ATOM      5  N   UNL     1      -4.013 -12.294  16.434  0.00  0.00    -0.302 N 
ATOM     26  C   UNL     1      -3.479 -11.992  15.193  0.00  0.00    +0.235 C 
ATOM     29  H   UNL     1      -4.521 -13.165  16.554  0.00  0.00    +0.150 HD
ENDROOT
BRANCH  26  18
ATOM      1  O   UNL     1      -2.567 -12.028  11.840  0.00  0.00    -0.275 OA
ATOM      4  N   UNL     1      -4.533 -12.206  13.070  0.00  0.00    -0.287 N 
ATOM      6  N   UNL     1      -6.146 -13.599  15.002  0.00  0.00    -0.312 NA
ATOM     18  C   UNL     1      -3.893 -12.978  14.140  0.00  0.00    +0.176 C 
ATOM     23  C   UNL     1      -3.749 -11.724  12.017  0.00  0.00    +0.219 C 
ATOM     24  C   UNL     1      -5.942 -11.847  13.286  0.00  0.00    +0.123 C 
ATOM     25  C   UNL     1      -4.793 -14.077  14.707  0.00  0.00    +0.113 C 
ATOM     27  C   UNL     1      -6.758 -13.026  13.805  0.00  0.00    +0.100 C 
ATOM     30  H   UNL     1      -6.097 -12.885  15.728  0.00  0.00    +0.122 HD
BRANCH  23  11
ATOM     11  C   UNL     1      -4.417 -10.783  11.058  0.00  0.00    +0.075 C 
ATOM     16  C   UNL     1      -5.050 -11.572   9.910  0.00  0.00    +0.013 C 
ATOM     17  C   UNL     1      -3.403  -9.759  10.541  0.00  0.00    +0.013 C 
ATOM     20  C   UNL     1      -5.660 -10.648   8.859  0.00  0.00    +0.001 C 
ATOM     21  C   UNL     1      -4.017  -8.839   9.490  0.00  0.00    +0.001 C 
ATOM     22  C   UNL     1      -4.645  -9.631   8.347  0.00  0.00    +0.000 C 
ENDBRANCH  23  11
ENDBRANCH  26  18
BRANCH   5  19
ATOM     19  C   UNL     1      -3.748 -11.512  17.619  0.00  0.00    +0.159 C 
BRANCH  19  28
ATOM      3  O   UNL     1      -3.381 -12.121  19.944  0.00  0.00    -0.274 OA
ATOM      7  N   UNL     1      -4.364 -13.659  18.550  0.00  0.00    -0.328 N 
ATOM     28  C   UNL     1      -3.809 -12.430  18.833  0.00  0.00    +0.231 C 
ATOM     31  H   UNL     1      -4.457 -14.368  19.271  0.00  0.00    +0.145 HD
ATOM     32  H   UNL     1      -4.696 -13.909  17.623  0.00  0.00    +0.145 HD
ENDBRANCH  19  28
BRANCH  19  12
ATOM     12  C   UNL     1      -4.688 -10.307  17.739  0.00  0.00    +0.035 C 
BRANCH  12   8
ATOM      8  C   UNL     1      -6.153 -10.624  17.449  0.00  0.00    -0.009 C 
ATOM      9  C   UNL     1      -7.001 -10.477  18.719  0.00  0.00    +0.003 C 
ATOM     10  C   UNL     1      -6.690  -9.725  16.327  0.00  0.00    +0.003 C 
ATOM     13  C   UNL     1      -8.480 -10.736  18.443  0.00  0.00    +0.000 C 
ATOM     14  C   UNL     1      -8.169  -9.986  16.055  0.00  0.00    +0.000 C 
ATOM     15  C   UNL     1      -9.009  -9.847  17.321  0.00  0.00    +0.000 C 
ENDBRANCH  12   8
ENDBRANCH  19  12
ENDBRANCH   5  19
TORSDOF 6
ENDMDL
MODEL 5
REMARK VINA RESULT:      -5.9     13.627     16.719
REMARK  Name = 7673717
REMARK  6 active torsions:
REMARK  status: ('A' for Active; 'I' for Inactive)
REMARK    1  A    between atoms: N_5  and  C_19
REMARK    2  A    between atoms: C_8  and  C_12
REMARK    3  A    between atoms: C_11  and  C_23
REMARK    4  A    between atoms: C_12  and  C_19
REMARK    5  A    between atoms: C_18  and  C_26
REMARK    6  A    between atoms: C_19  and  C_28
REMARK                            x       y       z     vdW  Elec       q    Type
REMARK                         _______ _______ _______ _____ _____    ______ ____
ROOT
ATOM      2  O   UNL     1       3.598 -14.124  -1.311  0.00  0.00    -0.274 OA
ATOM      5  N   UNL     1       1.407 -14.905  -1.225  0.00  0.00    -0.302 N 
ATOM     26  C   UNL     1       2.773 -14.987  -1.022  0.00  0.00    +0.235 C 
ATOM     29  H   UNL     1       0.805 -15.626  -0.837  0.00  0.00    +0.150 HD
ENDROOT
BRANCH  26  18
ATOM      1  O   UNL     1       0.838 -17.014   1.034  0.00  0.00    -0.275 OA
ATOM      4  N   UNL     1       2.972 -16.090   1.079  0.00  0.00    -0.287 N 
ATOM      6  N   UNL     1       5.609 -15.852  -0.047  0.00  0.00    -0.312 NA
ATOM     18  C   UNL     1       3.174 -16.275  -0.362  0.00  0.00    +0.176 C 
ATOM     23  C   UNL     1       1.737 -16.426   1.640  0.00  0.00    +0.219 C 
ATOM     24  C   UNL     1       4.046 -15.390   1.797  0.00  0.00    +0.123 C 
ATOM     25  C   UNL     1       4.605 -16.680  -0.720  0.00  0.00    +0.113 C 
ATOM     27  C   UNL     1       5.426 -15.903   1.401  0.00  0.00    +0.100 C 
ATOM     30  H   UNL     1       5.512 -14.887  -0.364  0.00  0.00    +0.122 HD
BRANCH  23  11
ATOM     11  C   UNL     1       1.522 -16.038   3.074  0.00  0.00    +0.075 C 
ATOM     16  C   UNL     1       1.335 -17.292   3.931  0.00  0.00    +0.013 C 
ATOM     17  C   UNL     1       0.319 -15.098   3.185  0.00  0.00    +0.013 C 
ATOM     20  C   UNL     1       1.019 -16.941   5.382  0.00  0.00    +0.001 C 
ATOM     21  C   UNL     1       0.006 -14.753   4.639  0.00  0.00    +0.001 C 
ATOM     22  C   UNL     1      -0.182 -16.006   5.487  0.00  0.00    +0.000 C 
ENDBRANCH  23  11
ENDBRANCH  26  18
BRANCH   5  19
ATOM     19  C   UNL     1       0.765 -13.757  -1.822  0.00  0.00    +0.159 C 
BRANCH  19  28
ATOM      3  O   UNL     1      -0.722 -13.632   0.097  0.00  0.00    -0.274 OA
ATOM      7  N   UNL     1      -1.584 -13.197  -1.986  0.00  0.00    -0.328 N 
ATOM     28  C   UNL     1      -0.565 -13.519  -1.117  0.00  0.00    +0.231 C 
ATOM     31  H   UNL     1      -2.523 -13.021  -1.645  0.00  0.00    +0.145 HD
ATOM     32  H   UNL     1      -1.445 -13.126  -2.990  0.00  0.00    +0.145 HD
ENDBRANCH  19  28
BRANCH  19  12
ATOM     12  C   UNL     1       0.613 -13.904  -3.340  0.00  0.00    +0.035 C 
BRANCH  12   8
ATOM      8  C   UNL     1       1.650 -13.128  -4.151  0.00  0.00    -0.009 C 
ATOM      9  C   UNL     1       2.310 -14.037  -5.196  0.00  0.00    +0.003 C 
ATOM     10  C   UNL     1       1.010 -11.903  -4.818  0.00  0.00    +0.003 C 
ATOM     13  C   UNL     1       3.313 -13.271  -6.056  0.00  0.00    +0.000 C 
ATOM     14  C   UNL     1       2.015 -11.142  -5.679  0.00  0.00    +0.000 C 
ATOM     15  C   UNL     1       2.676 -12.050  -6.711  0.00  0.00    +0.000 C 
ENDBRANCH  12   8
ENDBRANCH  19  12
ENDBRANCH   5  19
TORSDOF 6
ENDMDL
MODEL 6
REMARK VINA RESULT:      -5.9      4.703      7.852
REMARK  Name = 7673717
REMARK  6 active torsions:
REMARK  status: ('A' for Active; 'I' for Inactive)
REMARK    1  A    between atoms: N_5  and  C_19
REMARK    2  A    between atoms: C_8  and  C_12
REMARK    3  A    between atoms: C_11  and  C_23
REMARK    4  A    between atoms: C_12  and  C_19
REMARK    5  A    between atoms: C_18  and  C_26
REMARK    6  A    between atoms: C_19  and  C_28
REMARK                            x       y       z     vdW  Elec       q    Type
REMARK                         _______ _______ _______ _____ _____    ______ ____
ROOT
ATOM      2  O   UNL     1      -7.298  -9.179  16.960  0.00  0.00    -0.274 OA
ATOM      5  N   UNL     1      -8.671 -10.340  18.437  0.00  0.00    -0.302 N 
ATOM     26  C   UNL     1      -7.474 -10.053  17.805  0.00  0.00    +0.235 C 
ATOM     29  H   UNL     1      -8.677 -11.002  19.208  0.00  0.00    +0.150 HD
ENDROOT
BRANCH  26  18
ATOM      1  O   UNL     1      -4.087  -9.749  17.088  0.00  0.00    -0.275 OA
ATOM      4  N   UNL     1      -5.681 -11.444  17.089  0.00  0.00    -0.287 N 
ATOM      6  N   UNL     1      -7.565 -13.091  18.507  0.00  0.00    -0.312 NA
ATOM     18  C   UNL     1      -6.352 -10.927  18.286  0.00  0.00    +0.176 C 
ATOM     23  C   UNL     1      -4.612 -10.725  16.545  0.00  0.00    +0.219 C 
ATOM     24  C   UNL     1      -6.309 -12.606  16.447  0.00  0.00    +0.123 C 
ATOM     25  C   UNL     1      -6.848 -12.032  19.220  0.00  0.00    +0.113 C 
ATOM     27  C   UNL     1      -6.720 -13.666  17.463  0.00  0.00    +0.100 C 
ATOM     30  H   UNL     1      -8.404 -12.698  18.081  0.00  0.00    +0.122 HD
BRANCH  23  11
ATOM     11  C   UNL     1      -4.090 -11.195  15.220  0.00  0.00    +0.075 C 
ATOM     16  C   UNL     1      -2.560 -11.201  15.234  0.00  0.00    +0.013 C 
ATOM     17  C   UNL     1      -4.636 -10.306  14.099  0.00  0.00    +0.013 C 
ATOM     20  C   UNL     1      -1.984 -11.584  13.874  0.00  0.00    +0.001 C 
ATOM     21  C   UNL     1      -4.055 -10.691  12.741  0.00  0.00    +0.001 C 
ATOM     22  C   UNL     1      -2.530 -10.694  12.761  0.00  0.00    +0.000 C 
ENDBRANCH  23  11
ENDBRANCH  26  18
BRANCH   5  19
ATOM     19  C   UNL     1      -9.898  -9.626  18.169  0.00  0.00    +0.159 C 
BRANCH  19  28
ATOM      3  O   UNL     1     -12.106  -9.803  19.169  0.00  0.00    -0.274 OA
ATOM      7  N   UNL     1     -10.275 -10.297  20.464  0.00  0.00    -0.328 N 
ATOM     28  C   UNL     1     -10.888  -9.919  19.289  0.00  0.00    +0.231 C 
ATOM     31  H   UNL     1     -10.821 -10.513  21.290  0.00  0.00    +0.145 HD
ATOM     32  H   UNL     1      -9.265 -10.369  20.555  0.00  0.00    +0.145 HD
ENDBRANCH  19  28
BRANCH  19  12
ATOM     12  C   UNL     1     -10.461  -9.944  16.780  0.00  0.00    +0.035 C 
BRANCH  12   8
ATOM      8  C   UNL     1     -10.892  -8.715  15.982  0.00  0.00    -0.009 C 
ATOM      9  C   UNL     1     -12.416  -8.693  15.803  0.00  0.00    +0.003 C 
ATOM     10  C   UNL     1     -10.404  -7.429  16.662  0.00  0.00    +0.003 C 
ATOM     13  C   UNL     1     -12.877  -7.445  15.053  0.00  0.00    +0.000 C 
ATOM     14  C   UNL     1     -10.868  -6.183  15.911  0.00  0.00    +0.000 C 
ATOM     15  C   UNL     1     -12.383  -6.168  15.727  0.00  0.00    +0.000 C 
ENDBRANCH  12   8
ENDBRANCH  19  12
ENDBRANCH   5  19
TORSDOF 6
ENDMDL
MODEL 7
REMARK VINA RESULT:      -5.9      3.509      6.124
REMARK  Name = 7673717
REMARK  6 active torsions:
REMARK  status: ('A' for Active; 'I' for Inactive)
REMARK    1  A    between atoms: N_5  and  C_19
REMARK    2  A    between atoms: C_8  and  C_12
REMARK    3  A    between atoms: C_11  and  C_23
REMARK    4  A    between atoms: C_12  and  C_19
REMARK    5  A    between atoms: C_18  and  C_26
REMARK    6  A    between atoms: C_19  and  C_28
REMARK                            x       y       z     vdW  Elec       q    Type
REMARK                         _______ _______ _______ _____ _____    ______ ____
ROOT
ATOM      2  O   UNL     1      -7.231  -9.862  15.631  0.00  0.00    -0.274 OA
ATOM      5  N   UNL     1      -6.685 -11.081  17.537  0.00  0.00    -0.302 N 
ATOM     26  C   UNL     1      -7.420 -10.163  16.807  0.00  0.00    +0.235 C 
ATOM     29  H   UNL     1      -7.004 -11.343  18.465  0.00  0.00    +0.150 HD
ENDROOT
BRANCH  26  18
ATOM      1  O   UNL     1      -8.273 -10.844  20.107  0.00  0.00    -0.275 OA
ATOM      4  N   UNL     1      -9.375 -10.674  18.065  0.00  0.00    -0.287 N 
ATOM      6  N   UNL     1     -10.174  -9.107  15.788  0.00  0.00    -0.312 NA
ATOM     18  C   UNL     1      -8.536  -9.560  17.610  0.00  0.00    +0.176 C 
ATOM     23  C   UNL     1      -9.094 -11.277  19.294  0.00  0.00    +0.219 C 
ATOM     24  C   UNL     1     -10.352 -11.185  17.095  0.00  0.00    +0.123 C 
ATOM     25  C   UNL     1      -9.312  -8.511  16.812  0.00  0.00    +0.113 C 
ATOM     27  C   UNL     1     -11.103 -10.059  16.393  0.00  0.00    +0.100 C 
ATOM     30  H   UNL     1      -9.593  -9.593  15.105  0.00  0.00    +0.122 HD
BRANCH  23  11
ATOM     11  C   UNL     1      -9.857 -12.528  19.620  0.00  0.00    +0.075 C 
ATOM     16  C   UNL     1     -11.002 -12.203  20.581  0.00  0.00    +0.013 C 
ATOM     17  C   UNL     1      -8.912 -13.578  20.208  0.00  0.00    +0.013 C 
ATOM     20  C   UNL     1     -11.750 -13.462  21.014  0.00  0.00    +0.001 C 
ATOM     21  C   UNL     1      -9.664 -14.834  20.640  0.00  0.00    +0.001 C 
ATOM     22  C   UNL     1     -10.803 -14.505  21.601  0.00  0.00    +0.000 C 
ENDBRANCH  23  11
ENDBRANCH  26  18
BRANCH   5  19
ATOM     19  C   UNL     1      -5.571 -11.818  16.987  0.00  0.00    +0.159 C 
BRANCH  19  28
ATOM      3  O   UNL     1      -6.662 -13.961  17.335  0.00  0.00    -0.274 OA
ATOM      7  N   UNL     1      -4.506 -13.696  18.079  0.00  0.00    -0.328 N 
ATOM     28  C   UNL     1      -5.659 -13.263  17.461  0.00  0.00    +0.231 C 
ATOM     31  H   UNL     1      -4.436 -14.639  18.448  0.00  0.00    +0.145 HD
ATOM     32  H   UNL     1      -3.690 -13.102  18.194  0.00  0.00    +0.145 HD
ENDBRANCH  19  28
BRANCH  19  12
ATOM     12  C   UNL     1      -4.225 -11.165  17.320  0.00  0.00    +0.035 C 
BRANCH  12   8
ATOM      8  C   UNL     1      -3.531 -10.516  16.123  0.00  0.00    -0.009 C 
ATOM      9  C   UNL     1      -2.010 -10.698  16.216  0.00  0.00    +0.003 C 
ATOM     10  C   UNL     1      -4.070 -11.091  14.806  0.00  0.00    +0.003 C 
ATOM     13  C   UNL     1      -1.297 -10.104  15.004  0.00  0.00    +0.000 C 
ATOM     14  C   UNL     1      -3.353 -10.497  13.597  0.00  0.00    +0.000 C 
ATOM     15  C   UNL     1      -1.841 -10.671  13.696  0.00  0.00    +0.000 C 
ENDBRANCH  12   8
ENDBRANCH  19  12
ENDBRANCH   5  19
TORSDOF 6
ENDMDL
MODEL 8
REMARK VINA RESULT:      -5.9      2.484      3.926
REMARK  Name = 7673717
REMARK  6 active torsions:
REMARK  status: ('A' for Active; 'I' for Inactive)
REMARK    1  A    between atoms: N_5  and  C_19
REMARK    2  A    between atoms: C_8  and  C_12
REMARK    3  A    between atoms: C_11  and  C_23
REMARK    4  A    between atoms: C_12  and  C_19
REMARK    5  A    between atoms: C_18  and  C_26
REMARK    6  A    between atoms: C_19  and  C_28
REMARK                            x       y       z     vdW  Elec       q    Type
REMARK                         _______ _______ _______ _____ _____    ______ ____
ROOT
ATOM      2  O   UNL     1      -6.126 -12.171  14.886  0.00  0.00    -0.274 OA
ATOM      5  N   UNL     1      -4.028 -12.907  15.576  0.00  0.00    -0.302 N 
ATOM     26  C   UNL     1      -5.379 -12.648  15.736  0.00  0.00    +0.235 C 
ATOM     29  H   UNL     1      -3.533 -13.415  16.303  0.00  0.00    +0.150 HD
ENDROOT
BRANCH  26  18
ATOM      1  O   UNL     1      -8.665 -12.692  16.866  0.00  0.00    -0.275 OA
ATOM      4  N   UNL     1      -6.616 -11.894  17.624  0.00  0.00    -0.287 N 
ATOM      6  N   UNL     1      -3.913 -12.384  18.478  0.00  0.00    -0.312 NA
ATOM     18  C   UNL     1      -5.877 -13.045  17.096  0.00  0.00    +0.176 C 
ATOM     23  C   UNL     1      -7.988 -11.796  17.377  0.00  0.00    +0.219 C 
ATOM     24  C   UNL     1      -5.806 -10.830  18.234  0.00  0.00    +0.123 C 
ATOM     25  C   UNL     1      -4.739 -13.499  18.011  0.00  0.00    +0.113 C 
ATOM     27  C   UNL     1      -4.735 -11.390  19.164  0.00  0.00    +0.100 C 
ATOM     30  H   UNL     1      -3.459 -11.947  17.676  0.00  0.00    +0.122 HD
BRANCH  23  11
ATOM     11  C   UNL     1      -8.653 -10.511  17.773  0.00  0.00    +0.075 C 
ATOM     16  C   UNL     1     -10.078 -10.788  18.256  0.00  0.00    +0.013 C 
ATOM     17  C   UNL     1      -8.642  -9.533  16.596  0.00  0.00    +0.013 C 
ATOM     20  C   UNL     1     -10.826  -9.498  18.582  0.00  0.00    +0.001 C 
ATOM     21  C   UNL     1      -9.391  -8.245  16.925  0.00  0.00    +0.001 C 
ATOM     22  C   UNL     1     -10.812  -8.528  17.404  0.00  0.00    +0.000 C 
ENDBRANCH  23  11
ENDBRANCH  26  18
BRANCH   5  19
ATOM     19  C   UNL     1      -3.312 -12.637  14.351  0.00  0.00    +0.159 C 
BRANCH  19  28
ATOM      3  O   UNL     1      -1.694 -13.895  13.044  0.00  0.00    -0.274 OA
ATOM      7  N   UNL     1      -2.622 -14.892  14.893  0.00  0.00    -0.328 N 
ATOM     28  C   UNL     1      -2.447 -13.845  14.014  0.00  0.00    +0.231 C 
ATOM     31  H   UNL     1      -2.110 -15.760  14.777  0.00  0.00    +0.145 HD
ATOM     32  H   UNL     1      -3.263 -14.845  15.680  0.00  0.00    +0.145 HD
ENDBRANCH  19  28
BRANCH  19  12
ATOM     12  C   UNL     1      -2.508 -11.334  14.426  0.00  0.00    +0.035 C 
BRANCH  12   8
ATOM      8  C   UNL     1      -2.772 -10.368  13.272  0.00  0.00    -0.009 C 
ATOM      9  C   UNL     1      -1.633 -10.426  12.246  0.00  0.00    +0.003 C 
ATOM     10  C   UNL     1      -4.122 -10.673  12.608  0.00  0.00    +0.003 C 
ATOM     13  C   UNL     1      -1.900  -9.507  11.056  0.00  0.00    +0.000 C 
ATOM     14  C   UNL     1      -4.384  -9.754  11.418  0.00  0.00    +0.000 C 
ATOM     15  C   UNL     1      -3.246  -9.807  10.403  0.00  0.00    +0.000 C 
ENDBRANCH  12   8
ENDBRANCH  19  12
ENDBRANCH   5  19
TORSDOF 6
ENDMDL
MODEL 9
REMARK VINA RESULT:      -5.8     27.062     30.177
REMARK  Name = 7673717
REMARK  6 active torsions:
REMARK  status: ('A' for Active; 'I' for Inactive)
REMARK    1  A    between atoms: N_5  and  C_19
REMARK    2  A    between atoms: C_8  and  C_12
REMARK    3  A    between atoms: C_11  and  C_23
REMARK    4  A    between atoms: C_12  and  C_19
REMARK    5  A    between atoms: C_18  and  C_26
REMARK    6  A    between atoms: C_19  and  C_28
REMARK                            x       y       z     vdW  Elec       q    Type
REMARK                         _______ _______ _______ _____ _____    ______ ____
ROOT
ATOM      2  O   UNL     1      14.657   7.649  22.290  0.00  0.00    -0.274 OA
ATOM      5  N   UNL     1      13.074   8.391  20.753  0.00  0.00    -0.302 N 
ATOM     26  C   UNL     1      14.346   8.032  21.165  0.00  0.00    +0.235 C 
ATOM     29  H   UNL     1      12.907   8.576  19.768  0.00  0.00    +0.150 HD
ENDROOT
BRANCH  26  18
ATOM      1  O   UNL     1      17.102  10.142  20.982  0.00  0.00    -0.275 OA
ATOM      4  N   UNL     1      15.336   9.526  19.599  0.00  0.00    -0.287 N 
ATOM      6  N   UNL     1      13.916   7.509  18.119  0.00  0.00    -0.312 NA
ATOM     18  C   UNL     1      15.353   8.133  20.056  0.00  0.00    +0.176 C 
ATOM     23  C   UNL     1      16.204  10.447  20.192  0.00  0.00    +0.219 C 
ATOM     24  C   UNL     1      14.266   9.884  18.657  0.00  0.00    +0.123 C 
ATOM     25  C   UNL     1      15.072   7.131  18.936  0.00  0.00    +0.113 C 
ATOM     27  C   UNL     1      14.103   8.843  17.555  0.00  0.00    +0.100 C 
ATOM     30  H   UNL     1      13.080   7.506  18.703  0.00  0.00    +0.122 HD
BRANCH  23  11
ATOM     11  C   UNL     1      16.011  11.888  19.824  0.00  0.00    +0.075 C 
ATOM     16  C   UNL     1      17.356  12.516  19.451  0.00  0.00    +0.013 C 
ATOM     17  C   UNL     1      15.345  12.638  20.980  0.00  0.00    +0.013 C 
ATOM     20  C   UNL     1      17.221  14.008  19.158  0.00  0.00    +0.001 C 
ATOM     21  C   UNL     1      15.214  14.130  20.684  0.00  0.00    +0.001 C 
ATOM     22  C   UNL     1      16.559  14.750  20.315  0.00  0.00    +0.000 C 
ENDBRANCH  23  11
ENDBRANCH  26  18
BRANCH   5  19
ATOM     19  C   UNL     1      11.923   8.359  21.625  0.00  0.00    +0.159 C 
BRANCH  19  28
ATOM      3  O   UNL     1      11.483   6.228  20.542  0.00  0.00    -0.274 OA
ATOM      7  N   UNL     1       9.899   7.078  21.971  0.00  0.00    -0.328 N 
ATOM     28  C   UNL     1      11.111   7.107  21.316  0.00  0.00    +0.231 C 
ATOM     31  H   UNL     1       9.258   6.301  21.846  0.00  0.00    +0.145 HD
ATOM     32  H   UNL     1       9.595   7.821  22.593  0.00  0.00    +0.145 HD
ENDBRANCH  19  28
BRANCH  19  12
ATOM     12  C   UNL     1      11.091   9.643  21.533  0.00  0.00    +0.035 C 
BRANCH  12   8
ATOM      8  C   UNL     1      11.622  10.796  22.382  0.00  0.00    -0.009 C 
ATOM      9  C   UNL     1      11.491  12.127  21.631  0.00  0.00    +0.003 C 
ATOM     10  C   UNL     1      10.893  10.855  23.732  0.00  0.00    +0.003 C 
ATOM     13  C   UNL     1      11.966  13.303  22.482  0.00  0.00    +0.000 C 
ATOM     14  C   UNL     1      11.370  12.033  24.578  0.00  0.00    +0.000 C 
ATOM     15  C   UNL     1      11.246  13.355  23.825  0.00  0.00    +0.000 C 
ENDBRANCH  12   8
ENDBRANCH  19  12
ENDBRANCH   5  19
TORSDOF 6
ENDMDL
MODEL 10
REMARK VINA RESULT:      -5.7      2.884      4.112
REMARK  Name = 7673717
REMARK  6 active torsions:
REMARK  status: ('A' for Active; 'I' for Inactive)
REMARK    1  A    between atoms: N_5  and  C_19
REMARK    2  A    between atoms: C_8  and  C_12
REMARK    3  A    between atoms: C_11  and  C_23
REMARK    4  A    between atoms: C_12  and  C_19
REMARK    5  A    between atoms: C_18  and  C_26
REMARK    6  A    between atoms: C_19  and  C_28
REMARK                            x       y       z     vdW  Elec       q    Type
REMARK                         _______ _______ _______ _____ _____    ______ ____
ROOT
ATOM      2  O   UNL     1      -4.458 -10.330  16.530  0.00  0.00    -0.274 OA
ATOM      5  N   UNL     1      -4.729 -12.059  14.994  0.00  0.00    -0.302 N 
ATOM     26  C   UNL     1      -4.912 -11.427  16.212  0.00  0.00    +0.235 C 
ATOM     29  H   UNL     1      -5.249 -12.908  14.795  0.00  0.00    +0.150 HD
ENDROOT
BRANCH  26  18
ATOM      1  O   UNL     1      -8.363 -11.816  16.103  0.00  0.00    -0.275 OA
ATOM      4  N   UNL     1      -6.760 -11.297  17.706  0.00  0.00    -0.287 N 
ATOM      6  N   UNL     1      -4.437 -12.031  19.236  0.00  0.00    -0.312 NA
ATOM     18  C   UNL     1      -5.775 -12.227  17.145  0.00  0.00    +0.176 C 
ATOM     23  C   UNL     1      -7.983 -11.125  17.052  0.00  0.00    +0.219 C 
ATOM     24  C   UNL     1      -6.303 -10.477  18.836  0.00  0.00    +0.123 C 
ATOM     25  C   UNL     1      -4.950 -12.945  18.213  0.00  0.00    +0.113 C 
ATOM     27  C   UNL     1      -5.534 -11.300  19.865  0.00  0.00    +0.100 C 
ATOM     30  H   UNL     1      -3.798 -11.367  18.800  0.00  0.00    +0.122 HD
BRANCH  23  11
ATOM     11  C   UNL     1      -8.869 -10.026  17.559  0.00  0.00    +0.075 C 
ATOM     16  C   UNL     1     -10.273 -10.572  17.832  0.00  0.00    +0.013 C 
ATOM     17  C   UNL     1      -8.902  -8.874  16.552  0.00  0.00    +0.013 C 
ATOM     20  C   UNL     1     -11.234  -9.467  18.262  0.00  0.00    +0.001 C 
ATOM     21  C   UNL     1      -9.867  -7.773  16.985  0.00  0.00    +0.001 C 
ATOM     22  C   UNL     1     -11.264  -8.323  17.253  0.00  0.00    +0.000 C 
ENDBRANCH  23  11
ENDBRANCH  26  18
BRANCH   5  19
ATOM     19  C   UNL     1      -3.957 -11.487  13.916  0.00  0.00    +0.159 C 
BRANCH  19  28
ATOM      3  O   UNL     1      -1.780 -12.355  14.561  0.00  0.00    -0.274 OA
ATOM      7  N   UNL     1      -2.090 -10.079  14.542  0.00  0.00    -0.328 N 
ATOM     28  C   UNL     1      -2.503 -11.381  14.359  0.00  0.00    +0.231 C 
ATOM     31  H   UNL     1      -1.144  -9.871  14.844  0.00  0.00    +0.145 HD
ATOM     32  H   UNL     1      -2.704  -9.284  14.390  0.00  0.00    +0.145 HD
ENDBRANCH  19  28
BRANCH  19  12
ATOM     12  C   UNL     1      -4.530 -10.148  13.440  0.00  0.00    +0.035 C 
BRANCH  12   8
ATOM      8  C   UNL     1      -4.795 -10.079  11.937  0.00  0.00    -0.009 C 
ATOM      9  C   UNL     1      -5.742  -8.917  11.607  0.00  0.00    +0.003 C 
ATOM     10  C   UNL     1      -3.478  -9.948  11.160  0.00  0.00    +0.003 C 
ATOM     13  C   UNL     1      -5.980  -8.794  10.103  0.00  0.00    +0.000 C 
ATOM     14  C   UNL     1      -3.720  -9.823   9.658  0.00  0.00    +0.000 C 
ATOM     15  C   UNL     1      -4.669  -8.673   9.333  0.00  0.00    +0.000 C 
ENDBRANCH  12   8
ENDBRANCH  19  12
ENDBRANCH   5  19
TORSDOF 6
ENDMDL
