MODEL 1
REMARK VINA RESULT:      -7.1      0.000      0.000
REMARK  Name = 45361433
REMARK  10 active torsions:
REMARK  status: ('A' for Active; 'I' for Inactive)
REMARK    1  A    between atoms: O_1  and  C_10
REMARK    2  A    between atoms: N_4  and  C_14
REMARK    3  A    between atoms: N_5  and  C_23
REMARK    4  A    between atoms: C_7  and  C_17
REMARK    5  A    between atoms: C_9  and  C_19
REMARK    6  A    between atoms: C_12  and  C_18
REMARK    7  A    between atoms: C_18  and  C_20
REMARK    8  A    between atoms: C_18  and  C_21
REMARK    9  A    between atoms: C_22  and  C_26
REMARK   10  A    between atoms: C_34  and  C_35
REMARK                            x       y       z     vdW  Elec       q    Type
REMARK                         _______ _______ _______ _____ _____    ______ ____
ROOT
ATOM      7  C   UNL     1      -4.601 -11.028  16.854  0.00  0.00    -0.027 C 
ATOM      8  C   UNL     1      -5.497 -10.422  15.722  0.00  0.00    +0.028 C 
ATOM      9  C   UNL     1      -7.019 -10.544  16.088  0.00  0.00    +0.012 C 
ATOM     10  C   UNL     1      -5.097 -10.984  14.327  0.00  0.00    +0.122 C 
ATOM     11  C   UNL     1      -3.110 -10.791  16.514  0.00  0.00    +0.007 C 
ATOM     12  C   UNL     1      -3.585 -10.838  14.037  0.00  0.00    +0.029 C 
ATOM     13  C   UNL     1      -4.903 -10.297  18.181  0.00  0.00    +0.009 C 
ATOM     14  C   UNL     1      -7.298  -9.870  17.462  0.00  0.00    +0.076 C 
ATOM     15  C   UNL     1      -2.707 -11.374  15.167  0.00  0.00    +0.007 C 
ATOM     16  C   UNL     1      -6.372 -10.358  18.576  0.00  0.00    +0.023 C 
ATOM     17  C   UNL     1      -4.832 -12.549  17.045  0.00  0.00    +0.011 C 
ATOM     19  C   UNL     1      -7.958  -9.941  15.030  0.00  0.00    +0.010 C 
ENDROOT
BRANCH  14   4
ATOM      3  O   UNL     1      -9.392  -7.907  17.444  0.00  0.00    -0.270 OA
ATOM      4  N   UNL     1      -8.668 -10.064  17.886  0.00  0.00    -0.308 N 
ATOM     22  C   UNL     1      -9.608  -9.050  17.839  0.00  0.00    +0.244 C 
ATOM     36  H   UNL     1      -8.888 -10.949  18.331  0.00  0.00    +0.149 HD
BRANCH  22  26
ATOM     26  C   UNL     1     -10.964  -9.402  18.334  0.00  0.00    +0.037 A 
ATOM     30  C   UNL     1     -12.077  -9.214  17.515  0.00  0.00    +0.014 A 
ATOM     31  C   UNL     1     -11.124  -9.922  19.619  0.00  0.00    +0.014 A 
ATOM     32  C   UNL     1     -13.350  -9.547  17.979  0.00  0.00    +0.019 A 
ATOM     33  C   UNL     1     -12.397 -10.253  20.083  0.00  0.00    +0.019 A 
ATOM     34  C   UNL     1     -13.509 -10.066  19.264  0.00  0.00    +0.052 A 
BRANCH  34  35
ATOM      6  N   UNL     1     -15.872 -10.683  20.126  0.00  0.00    -0.191 NA
ATOM     35  C   UNL     1     -14.813 -10.406  19.740  0.00  0.00    +0.099 C 
ENDBRANCH  34  35
ENDBRANCH  22  26
ENDBRANCH  14   4
BRANCH  10   1
ATOM      1  O   UNL     1      -5.781 -10.255  13.306  0.00  0.00    -0.391 OA
ATOM     37  H   UNL     1      -5.666 -10.730  12.465  0.00  0.00    +0.210 HD
ENDBRANCH  10   1
BRANCH  12  18
ATOM     18  C   UNL     1      -3.192 -11.513  12.717  0.00  0.00    +0.077 C 
ATOM     20  C   UNL     1      -1.969 -12.398  12.925  0.00  0.00    +0.017 C 
BRANCH  18  21
ATOM      2  O   UNL     1      -1.848  -9.902  11.507  0.00  0.00    -0.276 OA
ATOM      5  N   UNL     1      -4.060 -10.196  10.877  0.00  0.00    -0.312 N 
ATOM     21  C   UNL     1      -2.937 -10.454  11.648  0.00  0.00    +0.216 C 
ATOM     38  H   UNL     1      -4.915 -10.713  11.051  0.00  0.00    +0.149 HD
BRANCH   5  23
ATOM     23  C   UNL     1      -4.065  -9.229   9.801  0.00  0.00    +0.073 C 
ATOM     24  C   UNL     1      -4.457  -9.885   8.473  0.00  0.00    +0.022 C 
ATOM     25  C   UNL     1      -4.983  -8.047  10.129  0.00  0.00    +0.022 C 
ATOM     27  C   UNL     1      -5.939 -10.257   8.419  0.00  0.00    +0.002 C 
ATOM     28  C   UNL     1      -6.464  -8.422  10.072  0.00  0.00    +0.002 C 
ATOM     29  C   UNL     1      -6.832  -9.062   8.737  0.00  0.00    +0.000 C 
ENDBRANCH   5  23
ENDBRANCH  18  21
ENDBRANCH  12  18
TORSDOF 7
ENDMDL
MODEL 2
REMARK VINA RESULT:      -6.7     19.196     23.831
REMARK  Name = 45361433
REMARK  10 active torsions:
REMARK  status: ('A' for Active; 'I' for Inactive)
REMARK    1  A    between atoms: O_1  and  C_10
REMARK    2  A    between atoms: N_4  and  C_14
REMARK    3  A    between atoms: N_5  and  C_23
REMARK    4  A    between atoms: C_7  and  C_17
REMARK    5  A    between atoms: C_9  and  C_19
REMARK    6  A    between atoms: C_12  and  C_18
REMARK    7  A    between atoms: C_18  and  C_20
REMARK    8  A    between atoms: C_18  and  C_21
REMARK    9  A    between atoms: C_22  and  C_26
REMARK   10  A    between atoms: C_34  and  C_35
REMARK                            x       y       z     vdW  Elec       q    Type
REMARK                         _______ _______ _______ _____ _____    ______ ____
ROOT
ATOM      7  C   UNL     1      -7.132 -11.021  38.694  0.00  0.00    -0.027 C 
ATOM      8  C   UNL     1      -8.335 -10.036  38.513  0.00  0.00    +0.028 C 
ATOM      9  C   UNL     1      -9.201 -10.434  37.266  0.00  0.00    +0.012 C 
ATOM     10  C   UNL     1      -7.860  -8.554  38.552  0.00  0.00    +0.122 C 
ATOM     11  C   UNL     1      -6.367 -10.669  39.992  0.00  0.00    +0.007 C 
ATOM     12  C   UNL     1      -7.007  -8.236  39.803  0.00  0.00    +0.029 C 
ATOM     13  C   UNL     1      -7.677 -12.460  38.844  0.00  0.00    +0.009 C 
ATOM     14  C   UNL     1      -9.682 -11.908  37.392  0.00  0.00    +0.076 C 
ATOM     15  C   UNL     1      -5.867  -9.231  40.016  0.00  0.00    +0.007 C 
ATOM     16  C   UNL     1      -8.549 -12.893  37.674  0.00  0.00    +0.023 C 
ATOM     17  C   UNL     1      -6.141 -10.973  37.504  0.00  0.00    +0.011 C 
ATOM     19  C   UNL     1     -10.420  -9.522  37.045  0.00  0.00    +0.010 C 
ENDROOT
BRANCH  14   4
ATOM      3  O   UNL     1     -12.507 -12.347  37.139  0.00  0.00    -0.270 OA
ATOM      4  N   UNL     1     -10.386 -12.346  36.205  0.00  0.00    -0.308 N 
ATOM     22  C   UNL     1     -11.758 -12.529  36.184  0.00  0.00    +0.244 C 
ATOM     36  H   UNL     1      -9.817 -12.626  35.413  0.00  0.00    +0.149 HD
BRANCH  22  26
ATOM     26  C   UNL     1     -12.325 -13.006  34.897  0.00  0.00    +0.037 A 
ATOM     30  C   UNL     1     -11.731 -14.074  34.225  0.00  0.00    +0.014 A 
ATOM     31  C   UNL     1     -13.454 -12.387  34.360  0.00  0.00    +0.014 A 
ATOM     32  C   UNL     1     -12.265 -14.523  33.017  0.00  0.00    +0.019 A 
ATOM     33  C   UNL     1     -13.987 -12.835  33.151  0.00  0.00    +0.019 A 
ATOM     34  C   UNL     1     -13.393 -13.903  32.480  0.00  0.00    +0.052 A 
BRANCH  34  35
ATOM      6  N   UNL     1     -14.384 -14.735  30.237  0.00  0.00    -0.191 NA
ATOM     35  C   UNL     1     -13.940 -14.363  31.242  0.00  0.00    +0.099 C 
ENDBRANCH  34  35
ENDBRANCH  22  26
ENDBRANCH  14   4
BRANCH  10   1
ATOM      1  O   UNL     1      -8.997  -7.691  38.603  0.00  0.00    -0.391 OA
ATOM     37  H   UNL     1      -8.770  -6.864  38.144  0.00  0.00    +0.210 HD
ENDBRANCH  10   1
BRANCH  12  18
ATOM     18  C   UNL     1      -6.442  -6.811  39.757  0.00  0.00    +0.077 C 
ATOM     20  C   UNL     1      -4.939  -6.834  40.015  0.00  0.00    +0.017 C 
BRANCH  18  21
ATOM      2  O   UNL     1      -6.769  -5.782  41.925  0.00  0.00    -0.276 OA
ATOM      5  N   UNL     1      -8.305  -5.340  40.245  0.00  0.00    -0.312 N 
ATOM     21  C   UNL     1      -7.167  -5.932  40.772  0.00  0.00    +0.216 C 
ATOM     38  H   UNL     1      -8.549  -5.504  39.274  0.00  0.00    +0.149 HD
BRANCH   5  23
ATOM     23  C   UNL     1      -9.159  -4.464  41.015  0.00  0.00    +0.073 C 
ATOM     24  C   UNL     1      -8.662  -3.015  40.956  0.00  0.00    +0.022 C 
ATOM     25  C   UNL     1     -10.616  -4.570  40.553  0.00  0.00    +0.022 C 
ATOM     27  C   UNL     1      -8.893  -2.373  39.588  0.00  0.00    +0.002 C 
ATOM     28  C   UNL     1     -10.845  -3.925  39.186  0.00  0.00    +0.002 C 
ATOM     29  C   UNL     1     -10.352  -2.481  39.154  0.00  0.00    +0.000 C 
ENDBRANCH   5  23
ENDBRANCH  18  21
ENDBRANCH  12  18
TORSDOF 7
ENDMDL
MODEL 3
REMARK VINA RESULT:      -6.7      4.532     11.190
REMARK  Name = 45361433
REMARK  10 active torsions:
REMARK  status: ('A' for Active; 'I' for Inactive)
REMARK    1  A    between atoms: O_1  and  C_10
REMARK    2  A    between atoms: N_4  and  C_14
REMARK    3  A    between atoms: N_5  and  C_23
REMARK    4  A    between atoms: C_7  and  C_17
REMARK    5  A    between atoms: C_9  and  C_19
REMARK    6  A    between atoms: C_12  and  C_18
REMARK    7  A    between atoms: C_18  and  C_20
REMARK    8  A    between atoms: C_18  and  C_21
REMARK    9  A    between atoms: C_22  and  C_26
REMARK   10  A    between atoms: C_34  and  C_35
REMARK                            x       y       z     vdW  Elec       q    Type
REMARK                         _______ _______ _______ _____ _____    ______ ____
ROOT
ATOM      7  C   UNL     1     -12.488  -7.083  15.043  0.00  0.00    -0.027 C 
ATOM      8  C   UNL     1     -12.892  -7.750  16.400  0.00  0.00    +0.028 C 
ATOM      9  C   UNL     1     -11.681  -8.532  17.022  0.00  0.00    +0.012 C 
ATOM     10  C   UNL     1     -14.211  -8.564  16.256  0.00  0.00    +0.122 C 
ATOM     11  C   UNL     1     -13.666  -6.230  14.515  0.00  0.00    +0.007 C 
ATOM     12  C   UNL     1     -15.357  -7.734  15.632  0.00  0.00    +0.029 C 
ATOM     13  C   UNL     1     -11.291  -6.135  15.284  0.00  0.00    +0.009 C 
ATOM     14  C   UNL     1     -10.458  -7.586  17.191  0.00  0.00    +0.076 C 
ATOM     15  C   UNL     1     -14.948  -7.032  14.337  0.00  0.00    +0.007 C 
ATOM     16  C   UNL     1     -10.093  -6.833  15.912  0.00  0.00    +0.023 C 
ATOM     17  C   UNL     1     -12.104  -8.124  13.961  0.00  0.00    +0.011 C 
ATOM     19  C   UNL     1     -12.001  -9.190  18.374  0.00  0.00    +0.010 C 
ENDROOT
BRANCH  14   4
ATOM      3  O   UNL     1      -8.906  -9.480  15.694  0.00  0.00    -0.270 OA
ATOM      4  N   UNL     1      -9.287  -8.300  17.652  0.00  0.00    -0.308 N 
ATOM     22  C   UNL     1      -8.604  -9.198  16.850  0.00  0.00    +0.244 C 
ATOM     36  H   UNL     1      -9.049  -8.203  18.634  0.00  0.00    +0.149 HD
BRANCH  22  26
ATOM     26  C   UNL     1      -7.438  -9.869  17.481  0.00  0.00    +0.037 A 
ATOM     30  C   UNL     1      -6.206  -9.888  16.826  0.00  0.00    +0.014 A 
ATOM     31  C   UNL     1      -7.574 -10.479  18.728  0.00  0.00    +0.014 A 
ATOM     32  C   UNL     1      -5.110 -10.516  17.419  0.00  0.00    +0.019 A 
ATOM     33  C   UNL     1      -6.478 -11.108  19.319  0.00  0.00    +0.019 A 
ATOM     34  C   UNL     1      -5.247 -11.126  18.666  0.00  0.00    +0.052 A 
BRANCH  34  35
ATOM      6  N   UNL     1      -3.214 -12.294  19.765  0.00  0.00    -0.191 NA
ATOM     35  C   UNL     1      -4.125 -11.771  19.272  0.00  0.00    +0.099 C 
ENDBRANCH  34  35
ENDBRANCH  22  26
ENDBRANCH  14   4
BRANCH  10   1
ATOM      1  O   UNL     1     -14.662  -8.973  17.549  0.00  0.00    -0.391 OA
ATOM     37  H   UNL     1     -13.950  -9.484  17.970  0.00  0.00    +0.210 HD
ENDBRANCH  10   1
BRANCH  12  18
ATOM     18  C   UNL     1     -16.605  -8.588  15.380  0.00  0.00    +0.077 C 
ATOM     20  C   UNL     1     -16.916  -8.636  13.888  0.00  0.00    +0.017 C 
BRANCH  18  21
ATOM      2  O   UNL     1     -18.900  -7.879  15.688  0.00  0.00    -0.276 OA
ATOM      5  N   UNL     1     -17.444  -7.737  17.487  0.00  0.00    -0.312 N 
ATOM     21  C   UNL     1     -17.783  -8.035  16.177  0.00  0.00    +0.216 C 
ATOM     38  H   UNL     1     -16.501  -7.916  17.813  0.00  0.00    +0.149 HD
BRANCH   5  23
ATOM     23  C   UNL     1     -18.393  -7.198  18.437  0.00  0.00    +0.073 C 
ATOM     24  C   UNL     1     -18.167  -7.784  19.835  0.00  0.00    +0.022 C 
ATOM     25  C   UNL     1     -18.338  -5.667  18.462  0.00  0.00    +0.022 C 
ATOM     27  C   UNL     1     -16.895  -7.252  20.494  0.00  0.00    +0.002 C 
ATOM     28  C   UNL     1     -17.066  -5.138  19.123  0.00  0.00    +0.002 C 
ATOM     29  C   UNL     1     -16.868  -5.726  20.517  0.00  0.00    +0.000 C 
ENDBRANCH   5  23
ENDBRANCH  18  21
ENDBRANCH  12  18
TORSDOF 7
ENDMDL
MODEL 4
REMARK VINA RESULT:      -6.6      5.669     12.349
REMARK  Name = 45361433
REMARK  10 active torsions:
REMARK  status: ('A' for Active; 'I' for Inactive)
REMARK    1  A    between atoms: O_1  and  C_10
REMARK    2  A    between atoms: N_4  and  C_14
REMARK    3  A    between atoms: N_5  and  C_23
REMARK    4  A    between atoms: C_7  and  C_17
REMARK    5  A    between atoms: C_9  and  C_19
REMARK    6  A    between atoms: C_12  and  C_18
REMARK    7  A    between atoms: C_18  and  C_20
REMARK    8  A    between atoms: C_18  and  C_21
REMARK    9  A    between atoms: C_22  and  C_26
REMARK   10  A    between atoms: C_34  and  C_35
REMARK                            x       y       z     vdW  Elec       q    Type
REMARK                         _______ _______ _______ _____ _____    ______ ____
ROOT
ATOM      7  C   UNL     1     -12.441  -4.348  10.801  0.00  0.00    -0.027 C 
ATOM      8  C   UNL     1     -11.980  -5.828  11.017  0.00  0.00    +0.028 C 
ATOM      9  C   UNL     1     -11.582  -6.495   9.653  0.00  0.00    +0.012 C 
ATOM     10  C   UNL     1     -13.012  -6.620  11.872  0.00  0.00    +0.122 C 
ATOM     11  C   UNL     1     -12.717  -3.688  12.172  0.00  0.00    +0.007 C 
ATOM     12  C   UNL     1     -13.363  -5.902  13.196  0.00  0.00    +0.029 C 
ATOM     13  C   UNL     1     -11.298  -3.560  10.120  0.00  0.00    +0.009 C 
ATOM     14  C   UNL     1     -10.485  -5.653   8.941  0.00  0.00    +0.076 C 
ATOM     15  C   UNL     1     -13.755  -4.438  12.995  0.00  0.00    +0.007 C 
ATOM     16  C   UNL     1     -10.850  -4.176   8.802  0.00  0.00    +0.023 C 
ATOM     17  C   UNL     1     -13.720  -4.245   9.932  0.00  0.00    +0.011 C 
ATOM     19  C   UNL     1     -11.091  -7.946   9.795  0.00  0.00    +0.010 C 
ENDROOT
BRANCH  14   4
ATOM      3  O   UNL     1      -8.044  -6.928   8.132  0.00  0.00    -0.270 OA
ATOM      4  N   UNL     1     -10.177  -6.175   7.626  0.00  0.00    -0.308 N 
ATOM     22  C   UNL     1      -8.964  -6.775   7.334  0.00  0.00    +0.244 C 
ATOM     36  H   UNL     1     -10.845  -5.980   6.888  0.00  0.00    +0.149 HD
BRANCH  22  26
ATOM     26  C   UNL     1      -8.793  -7.235   5.932  0.00  0.00    +0.037 A 
ATOM     30  C   UNL     1      -7.629  -7.903   5.554  0.00  0.00    +0.014 A 
ATOM     31  C   UNL     1      -9.797  -6.999   4.993  0.00  0.00    +0.014 A 
ATOM     32  C   UNL     1      -7.469  -8.336   4.237  0.00  0.00    +0.019 A 
ATOM     33  C   UNL     1      -9.637  -7.431   3.677  0.00  0.00    +0.019 A 
ATOM     34  C   UNL     1      -8.473  -8.100   3.299  0.00  0.00    +0.052 A 
BRANCH  34  35
ATOM      6  N   UNL     1      -8.176  -8.903   0.855  0.00  0.00    -0.191 NA
ATOM     35  C   UNL     1      -8.309  -8.543   1.950  0.00  0.00    +0.099 C 
ENDBRANCH  34  35
ENDBRANCH  22  26
ENDBRANCH  14   4
BRANCH  10   1
ATOM      1  O   UNL     1     -12.462  -7.889  12.229  0.00  0.00    -0.391 OA
ATOM     37  H   UNL     1     -12.901  -8.193  13.042  0.00  0.00    +0.210 HD
ENDBRANCH  10   1
BRANCH  12  18
ATOM     18  C   UNL     1     -14.475  -6.631  13.961  0.00  0.00    +0.077 C 
ATOM     20  C   UNL     1     -15.729  -5.765  14.014  0.00  0.00    +0.017 C 
BRANCH  18  21
ATOM      2  O   UNL     1     -14.592  -6.662  16.379  0.00  0.00    -0.276 OA
ATOM      5  N   UNL     1     -12.813  -7.727  15.342  0.00  0.00    -0.312 N 
ATOM     21  C   UNL     1     -13.989  -6.995  15.361  0.00  0.00    +0.216 C 
ATOM     38  H   UNL     1     -12.392  -7.975  14.453  0.00  0.00    +0.149 HD
BRANCH   5  23
ATOM     23  C   UNL     1     -12.158  -8.187  16.547  0.00  0.00    +0.073 C 
ATOM     24  C   UNL     1     -11.712  -9.647  16.410  0.00  0.00    +0.022 C 
ATOM     25  C   UNL     1     -10.979  -7.279  16.913  0.00  0.00    +0.022 C 
ATOM     27  C   UNL     1     -10.526  -9.809  15.459  0.00  0.00    +0.002 C 
ATOM     28  C   UNL     1      -9.794  -7.445  15.962  0.00  0.00    +0.002 C 
ATOM     29  C   UNL     1      -9.362  -8.904  15.850  0.00  0.00    +0.000 C 
ENDBRANCH   5  23
ENDBRANCH  18  21
ENDBRANCH  12  18
TORSDOF 7
ENDMDL
MODEL 5
REMARK VINA RESULT:      -6.6      3.496      9.314
REMARK  Name = 45361433
REMARK  10 active torsions:
REMARK  status: ('A' for Active; 'I' for Inactive)
REMARK    1  A    between atoms: O_1  and  C_10
REMARK    2  A    between atoms: N_4  and  C_14
REMARK    3  A    between atoms: N_5  and  C_23
REMARK    4  A    between atoms: C_7  and  C_17
REMARK    5  A    between atoms: C_9  and  C_19
REMARK    6  A    between atoms: C_12  and  C_18
REMARK    7  A    between atoms: C_18  and  C_20
REMARK    8  A    between atoms: C_18  and  C_21
REMARK    9  A    between atoms: C_22  and  C_26
REMARK   10  A    between atoms: C_34  and  C_35
REMARK                            x       y       z     vdW  Elec       q    Type
REMARK                         _______ _______ _______ _____ _____    ______ ____
ROOT
ATOM      7  C   UNL     1      -3.073 -11.955  12.049  0.00  0.00    -0.027 C 
ATOM      8  C   UNL     1      -4.420 -11.458  12.671  0.00  0.00    +0.028 C 
ATOM      9  C   UNL     1      -5.286 -10.702  11.601  0.00  0.00    +0.012 C 
ATOM     10  C   UNL     1      -4.176 -10.686  14.000  0.00  0.00    +0.122 C 
ATOM     11  C   UNL     1      -2.298 -12.791  13.096  0.00  0.00    +0.007 C 
ATOM     12  C   UNL     1      -3.312 -11.486  15.003  0.00  0.00    +0.029 C 
ATOM     13  C   UNL     1      -3.383 -12.877  10.847  0.00  0.00    +0.009 C 
ATOM     14  C   UNL     1      -5.528 -11.612  10.363  0.00  0.00    +0.076 C 
ATOM     15  C   UNL     1      -2.024 -12.025  14.383  0.00  0.00    +0.007 C 
ATOM     16  C   UNL     1      -4.243 -12.205   9.786  0.00  0.00    +0.023 C 
ATOM     17  C   UNL     1      -2.170 -10.787  11.577  0.00  0.00    +0.011 C 
ATOM     19  C   UNL     1      -6.640 -10.210  12.138  0.00  0.00    +0.010 C 
ENDROOT
BRANCH  14   4
ATOM      3  O   UNL     1      -4.529  -9.398   8.835  0.00  0.00    -0.270 OA
ATOM      4  N   UNL     1      -6.223 -10.907   9.307  0.00  0.00    -0.308 N 
ATOM     22  C   UNL     1      -5.652  -9.846   8.626  0.00  0.00    +0.244 C 
ATOM     36  H   UNL     1      -7.197 -11.149   9.160  0.00  0.00    +0.149 HD
BRANCH  22  26
ATOM     26  C   UNL     1      -6.505  -9.213   7.587  0.00  0.00    +0.037 A 
ATOM     30  C   UNL     1      -6.333  -9.547   6.244  0.00  0.00    +0.014 A 
ATOM     31  C   UNL     1      -7.479  -8.283   7.955  0.00  0.00    +0.014 A 
ATOM     32  C   UNL     1      -7.135  -8.953   5.269  0.00  0.00    +0.019 A 
ATOM     33  C   UNL     1      -8.279  -7.689   6.980  0.00  0.00    +0.019 A 
ATOM     34  C   UNL     1      -8.108  -8.024   5.638  0.00  0.00    +0.052 A 
BRANCH  34  35
ATOM      6  N   UNL     1      -9.596  -6.922   3.827  0.00  0.00    -0.191 NA
ATOM     35  C   UNL     1      -8.929  -7.415   4.638  0.00  0.00    +0.099 C 
ENDBRANCH  34  35
ENDBRANCH  22  26
ENDBRANCH  14   4
BRANCH  10   1
ATOM      1  O   UNL     1      -5.427 -10.439  14.645  0.00  0.00    -0.391 OA
ATOM     37  H   UNL     1      -6.097 -11.013  14.236  0.00  0.00    +0.210 HD
ENDBRANCH  10   1
BRANCH  12  18
ATOM     18  C   UNL     1      -2.975 -10.659  16.249  0.00  0.00    +0.077 C 
ATOM     20  C   UNL     1      -1.470 -10.435  16.339  0.00  0.00    +0.017 C 
BRANCH  18  21
ATOM      2  O   UNL     1      -2.806 -11.594  18.477  0.00  0.00    -0.276 OA
ATOM      5  N   UNL     1      -4.852 -11.686  17.388  0.00  0.00    -0.312 N 
ATOM     21  C   UNL     1      -3.509 -11.357  17.497  0.00  0.00    +0.216 C 
ATOM     38  H   UNL     1      -5.361 -11.435  16.548  0.00  0.00    +0.149 HD
BRANCH   5  23
ATOM     23  C   UNL     1      -5.581 -12.356  18.443  0.00  0.00    +0.073 C 
ATOM     24  C   UNL     1      -5.807 -11.422  19.636  0.00  0.00    +0.022 C 
ATOM     25  C   UNL     1      -6.906 -12.922  17.921  0.00  0.00    +0.022 C 
ATOM     27  C   UNL     1      -6.836 -10.331  19.339  0.00  0.00    +0.002 C 
ATOM     28  C   UNL     1      -7.933 -11.829  17.627  0.00  0.00    +0.002 C 
ATOM     29  C   UNL     1      -8.150 -10.919  18.832  0.00  0.00    +0.000 C 
ENDBRANCH   5  23
ENDBRANCH  18  21
ENDBRANCH  12  18
TORSDOF 7
ENDMDL
MODEL 6
REMARK VINA RESULT:      -6.4      4.001      7.628
REMARK  Name = 45361433
REMARK  10 active torsions:
REMARK  status: ('A' for Active; 'I' for Inactive)
REMARK    1  A    between atoms: O_1  and  C_10
REMARK    2  A    between atoms: N_4  and  C_14
REMARK    3  A    between atoms: N_5  and  C_23
REMARK    4  A    between atoms: C_7  and  C_17
REMARK    5  A    between atoms: C_9  and  C_19
REMARK    6  A    between atoms: C_12  and  C_18
REMARK    7  A    between atoms: C_18  and  C_20
REMARK    8  A    between atoms: C_18  and  C_21
REMARK    9  A    between atoms: C_22  and  C_26
REMARK   10  A    between atoms: C_34  and  C_35
REMARK                            x       y       z     vdW  Elec       q    Type
REMARK                         _______ _______ _______ _____ _____    ______ ____
ROOT
ATOM      7  C   UNL     1      -5.063 -11.901   8.594  0.00  0.00    -0.027 C 
ATOM      8  C   UNL     1      -5.429 -10.411   8.899  0.00  0.00    +0.028 C 
ATOM      9  C   UNL     1      -5.784 -10.221  10.417  0.00  0.00    +0.012 C 
ATOM     10  C   UNL     1      -6.487  -9.873   7.892  0.00  0.00    +0.122 C 
ATOM     11  C   UNL     1      -4.610 -12.030   7.120  0.00  0.00    +0.007 C 
ATOM     12  C   UNL     1      -6.074 -10.099   6.419  0.00  0.00    +0.029 C 
ATOM     13  C   UNL     1      -3.876 -12.322   9.490  0.00  0.00    +0.009 C 
ATOM     14  C   UNL     1      -4.613 -10.718  11.311  0.00  0.00    +0.076 C 
ATOM     15  C   UNL     1      -5.658 -11.541   6.131  0.00  0.00    +0.007 C 
ATOM     16  C   UNL     1      -4.153 -12.136  10.975  0.00  0.00    +0.023 C 
ATOM     17  C   UNL     1      -6.252 -12.866   8.835  0.00  0.00    +0.011 C 
ATOM     19  C   UNL     1      -6.128  -8.770  10.794  0.00  0.00    +0.010 C 
ENDROOT
BRANCH  14   4
ATOM      3  O   UNL     1      -2.782 -10.483  13.509  0.00  0.00    -0.270 OA
ATOM      4  N   UNL     1      -4.953 -10.667  12.717  0.00  0.00    -0.308 N 
ATOM     22  C   UNL     1      -3.992 -10.552  13.706  0.00  0.00    +0.244 C 
ATOM     36  H   UNL     1      -5.924 -10.835  12.960  0.00  0.00    +0.149 HD
BRANCH  22  26
ATOM     26  C   UNL     1      -4.501 -10.539  15.102  0.00  0.00    +0.037 A 
ATOM     30  C   UNL     1      -3.710 -11.035  16.139  0.00  0.00    +0.014 A 
ATOM     31  C   UNL     1      -5.770 -10.030  15.377  0.00  0.00    +0.014 A 
ATOM     32  C   UNL     1      -4.187 -11.022  17.449  0.00  0.00    +0.019 A 
ATOM     33  C   UNL     1      -6.248 -10.018  16.687  0.00  0.00    +0.019 A 
ATOM     34  C   UNL     1      -5.457 -10.513  17.723  0.00  0.00    +0.052 A 
BRANCH  34  35
ATOM      6  N   UNL     1      -6.343 -10.489  20.156  0.00  0.00    -0.191 NA
ATOM     35  C   UNL     1      -5.946 -10.500  19.066  0.00  0.00    +0.099 C 
ENDBRANCH  34  35
ENDBRANCH  22  26
ENDBRANCH  14   4
BRANCH  10   1
ATOM      1  O   UNL     1      -6.633  -8.462   8.063  0.00  0.00    -0.391 OA
ATOM     37  H   UNL     1      -6.681  -8.275   9.016  0.00  0.00    +0.210 HD
ENDBRANCH  10   1
BRANCH  12  18
ATOM     18  C   UNL     1      -7.185  -9.681   5.447  0.00  0.00    +0.077 C 
ATOM     20  C   UNL     1      -7.003  -8.223   5.039  0.00  0.00    +0.017 C 
BRANCH  18  21
ATOM      2  O   UNL     1      -9.035 -11.036   6.225  0.00  0.00    -0.276 OA
ATOM      5  N   UNL     1      -9.160  -8.734   6.482  0.00  0.00    -0.312 N 
ATOM     21  C   UNL     1      -8.550  -9.915   6.087  0.00  0.00    +0.216 C 
ATOM     38  H   UNL     1      -8.678  -7.852   6.347  0.00  0.00    +0.149 HD
BRANCH   5  23
ATOM     23  C   UNL     1     -10.462  -8.700   7.113  0.00  0.00    +0.073 C 
ATOM     24  C   UNL     1     -10.347  -8.913   8.626  0.00  0.00    +0.022 C 
ATOM     25  C   UNL     1     -11.195  -7.394   6.790  0.00  0.00    +0.022 C 
ATOM     27  C   UNL     1      -9.742  -7.705   9.343  0.00  0.00    +0.002 C 
ATOM     28  C   UNL     1     -10.589  -6.189   7.509  0.00  0.00    +0.002 C 
ATOM     29  C   UNL     1     -10.495  -6.420   9.014  0.00  0.00    +0.000 C 
ENDBRANCH   5  23
ENDBRANCH  18  21
ENDBRANCH  12  18
TORSDOF 7
ENDMDL
MODEL 7
REMARK VINA RESULT:      -6.4      4.905      9.833
REMARK  Name = 45361433
REMARK  10 active torsions:
REMARK  status: ('A' for Active; 'I' for Inactive)
REMARK    1  A    between atoms: O_1  and  C_10
REMARK    2  A    between atoms: N_4  and  C_14
REMARK    3  A    between atoms: N_5  and  C_23
REMARK    4  A    between atoms: C_7  and  C_17
REMARK    5  A    between atoms: C_9  and  C_19
REMARK    6  A    between atoms: C_12  and  C_18
REMARK    7  A    between atoms: C_18  and  C_20
REMARK    8  A    between atoms: C_18  and  C_21
REMARK    9  A    between atoms: C_22  and  C_26
REMARK   10  A    between atoms: C_34  and  C_35
REMARK                            x       y       z     vdW  Elec       q    Type
REMARK                         _______ _______ _______ _____ _____    ______ ____
ROOT
ATOM      7  C   UNL     1      -3.181 -10.344  11.467  0.00  0.00    -0.027 C 
ATOM      8  C   UNL     1      -3.284 -11.771  10.834  0.00  0.00    +0.028 C 
ATOM      9  C   UNL     1      -4.477 -11.846   9.816  0.00  0.00    +0.012 C 
ATOM     10  C   UNL     1      -3.270 -12.876  11.930  0.00  0.00    +0.122 C 
ATOM     11  C   UNL     1      -1.931 -10.272  12.376  0.00  0.00    +0.007 C 
ATOM     12  C   UNL     1      -2.073 -12.736  12.899  0.00  0.00    +0.029 C 
ATOM     13  C   UNL     1      -3.001  -9.303  10.338  0.00  0.00    +0.009 C 
ATOM     14  C   UNL     1      -4.327 -10.746   8.726  0.00  0.00    +0.076 C 
ATOM     15  C   UNL     1      -1.933 -11.327  13.474  0.00  0.00    +0.007 C 
ATOM     16  C   UNL     1      -4.117  -9.346   9.303  0.00  0.00    +0.023 C 
ATOM     17  C   UNL     1      -4.429  -9.974  12.307  0.00  0.00    +0.011 C 
ATOM     19  C   UNL     1      -4.621 -13.216   9.133  0.00  0.00    +0.010 C 
ENDROOT
BRANCH  14   4
ATOM      3  O   UNL     1      -4.350 -11.414   5.935  0.00  0.00    -0.270 OA
ATOM      4  N   UNL     1      -5.469 -10.710   7.839  0.00  0.00    -0.308 N 
ATOM     22  C   UNL     1      -5.378 -11.052   6.501  0.00  0.00    +0.244 C 
ATOM     36  H   UNL     1      -6.325 -10.311   8.210  0.00  0.00    +0.149 HD
BRANCH  22  26
ATOM     26  C   UNL     1      -6.635 -10.938   5.718  0.00  0.00    +0.037 A 
ATOM     30  C   UNL     1      -6.612 -11.098   4.332  0.00  0.00    +0.014 A 
ATOM     31  C   UNL     1      -7.840 -10.672   6.368  0.00  0.00    +0.014 A 
ATOM     32  C   UNL     1      -7.793 -10.992   3.597  0.00  0.00    +0.019 A 
ATOM     33  C   UNL     1      -9.021 -10.565   5.633  0.00  0.00    +0.019 A 
ATOM     34  C   UNL     1      -8.997 -10.725   4.249  0.00  0.00    +0.052 A 
BRANCH  34  35
ATOM      6  N   UNL     1     -11.189 -10.529   2.884  0.00  0.00    -0.191 NA
ATOM     35  C   UNL     1     -10.207 -10.617   3.495  0.00  0.00    +0.099 C 
ENDBRANCH  34  35
ENDBRANCH  22  26
ENDBRANCH  14   4
BRANCH  10   1
ATOM      1  O   UNL     1      -3.147 -14.158  11.312  0.00  0.00    -0.391 OA
ATOM     37  H   UNL     1      -3.545 -14.107  10.426  0.00  0.00    +0.210 HD
ENDBRANCH  10   1
BRANCH  12  18
ATOM     18  C   UNL     1      -2.149 -13.752  14.046  0.00  0.00    +0.077 C 
ATOM     20  C   UNL     1      -1.617 -15.104  13.584  0.00  0.00    +0.017 C 
BRANCH  18  21
ATOM      2  O   UNL     1      -4.393 -14.661  14.081  0.00  0.00    -0.276 OA
ATOM      5  N   UNL     1      -3.860 -12.967  15.572  0.00  0.00    -0.312 N 
ATOM     21  C   UNL     1      -3.585 -13.861  14.549  0.00  0.00    +0.216 C 
ATOM     38  H   UNL     1      -3.125 -12.355  15.910  0.00  0.00    +0.149 HD
BRANCH   5  23
ATOM     23  C   UNL     1      -5.155 -12.882  16.210  0.00  0.00    +0.073 C 
ATOM     24  C   UNL     1      -5.061 -13.238  17.698  0.00  0.00    +0.022 C 
ATOM     25  C   UNL     1      -5.777 -11.496  16.009  0.00  0.00    +0.022 C 
ATOM     27  C   UNL     1      -4.360 -12.154  18.516  0.00  0.00    +0.002 C 
ATOM     28  C   UNL     1      -5.074 -10.415  16.830  0.00  0.00    +0.002 C 
ATOM     29  C   UNL     1      -5.003 -10.786  18.308  0.00  0.00    +0.000 C 
ENDBRANCH   5  23
ENDBRANCH  18  21
ENDBRANCH  12  18
TORSDOF 7
ENDMDL
MODEL 8
REMARK VINA RESULT:      -6.3     25.095     27.408
REMARK  Name = 45361433
REMARK  10 active torsions:
REMARK  status: ('A' for Active; 'I' for Inactive)
REMARK    1  A    between atoms: O_1  and  C_10
REMARK    2  A    between atoms: N_4  and  C_14
REMARK    3  A    between atoms: N_5  and  C_23
REMARK    4  A    between atoms: C_7  and  C_17
REMARK    5  A    between atoms: C_9  and  C_19
REMARK    6  A    between atoms: C_12  and  C_18
REMARK    7  A    between atoms: C_18  and  C_20
REMARK    8  A    between atoms: C_18  and  C_21
REMARK    9  A    between atoms: C_22  and  C_26
REMARK   10  A    between atoms: C_34  and  C_35
REMARK                            x       y       z     vdW  Elec       q    Type
REMARK                         _______ _______ _______ _____ _____    ______ ____
ROOT
ATOM      7  C   UNL     1      16.781  -3.552  30.697  0.00  0.00    -0.027 C 
ATOM      8  C   UNL     1      16.610  -4.328  29.348  0.00  0.00    +0.028 C 
ATOM      9  C   UNL     1      16.014  -5.759  29.598  0.00  0.00    +0.012 C 
ATOM     10  C   UNL     1      17.918  -4.286  28.505  0.00  0.00    +0.122 C 
ATOM     11  C   UNL     1      17.262  -2.111  30.406  0.00  0.00    +0.007 C 
ATOM     12  C   UNL     1      18.451  -2.848  28.306  0.00  0.00    +0.029 C 
ATOM     13  C   UNL     1      15.408  -3.457  31.400  0.00  0.00    +0.009 C 
ATOM     14  C   UNL     1      14.669  -5.655  30.372  0.00  0.00    +0.076 C 
ATOM     15  C   UNL     1      18.562  -2.067  29.614  0.00  0.00    +0.007 C 
ATOM     16  C   UNL     1      14.767  -4.816  31.646  0.00  0.00    +0.023 C 
ATOM     17  C   UNL     1      17.796  -4.233  31.650  0.00  0.00    +0.011 C 
ATOM     19  C   UNL     1      15.793  -6.569  28.309  0.00  0.00    +0.010 C 
ENDROOT
BRANCH  14   4
ATOM      3  O   UNL     1      11.918  -6.472  30.328  0.00  0.00    -0.270 OA
ATOM      4  N   UNL     1      14.149  -6.960  30.722  0.00  0.00    -0.308 N 
ATOM     22  C   UNL     1      12.799  -7.257  30.668  0.00  0.00    +0.244 C 
ATOM     36  H   UNL     1      14.806  -7.622  31.122  0.00  0.00    +0.149 HD
BRANCH  22  26
ATOM     26  C   UNL     1      12.423  -8.633  31.083  0.00  0.00    +0.037 A 
ATOM     30  C   UNL     1      13.028  -9.735  30.478  0.00  0.00    +0.014 A 
ATOM     31  C   UNL     1      11.465  -8.825  32.079  0.00  0.00    +0.014 A 
ATOM     32  C   UNL     1      12.677 -11.027  30.869  0.00  0.00    +0.019 A 
ATOM     33  C   UNL     1      11.113 -10.117  32.469  0.00  0.00    +0.019 A 
ATOM     34  C   UNL     1      11.719 -11.217  31.864  0.00  0.00    +0.052 A 
BRANCH  34  35
ATOM      6  N   UNL     1      11.065 -13.616  32.589  0.00  0.00    -0.191 NA
ATOM     35  C   UNL     1      11.358 -12.541  32.265  0.00  0.00    +0.099 C 
ENDBRANCH  34  35
ENDBRANCH  22  26
ENDBRANCH  14   4
BRANCH  10   1
ATOM      1  O   UNL     1      17.661  -4.811  27.201  0.00  0.00    -0.391 OA
ATOM     37  H   UNL     1      16.803  -4.467  26.899  0.00  0.00    +0.210 HD
ENDBRANCH  10   1
BRANCH  12  18
ATOM     18  C   UNL     1      19.805  -2.839  27.586  0.00  0.00    +0.077 C 
ATOM     20  C   UNL     1      20.874  -2.233  28.488  0.00  0.00    +0.017 C 
BRANCH  18  21
ATOM      2  O   UNL     1      20.178  -0.960  26.104  0.00  0.00    -0.276 OA
ATOM      5  N   UNL     1      18.977  -2.778  25.309  0.00  0.00    -0.312 N 
ATOM     21  C   UNL     1      19.688  -2.075  26.270  0.00  0.00    +0.216 C 
ATOM     38  H   UNL     1      18.624  -3.704  25.526  0.00  0.00    +0.149 HD
BRANCH   5  23
ATOM     23  C   UNL     1      18.733  -2.259  23.981  0.00  0.00    +0.073 C 
ATOM     24  C   UNL     1      18.512  -3.395  22.977  0.00  0.00    +0.022 C 
ATOM     25  C   UNL     1      17.554  -1.280  23.981  0.00  0.00    +0.022 C 
ATOM     27  C   UNL     1      17.167  -4.094  23.172  0.00  0.00    +0.002 C 
ATOM     28  C   UNL     1      16.211  -1.983  24.174  0.00  0.00    +0.002 C 
ATOM     29  C   UNL     1      16.008  -3.102  23.157  0.00  0.00    +0.000 C 
ENDBRANCH   5  23
ENDBRANCH  18  21
ENDBRANCH  12  18
TORSDOF 7
ENDMDL
MODEL 9
REMARK VINA RESULT:      -6.3      5.631     10.316
REMARK  Name = 45361433
REMARK  10 active torsions:
REMARK  status: ('A' for Active; 'I' for Inactive)
REMARK    1  A    between atoms: O_1  and  C_10
REMARK    2  A    between atoms: N_4  and  C_14
REMARK    3  A    between atoms: N_5  and  C_23
REMARK    4  A    between atoms: C_7  and  C_17
REMARK    5  A    between atoms: C_9  and  C_19
REMARK    6  A    between atoms: C_12  and  C_18
REMARK    7  A    between atoms: C_18  and  C_20
REMARK    8  A    between atoms: C_18  and  C_21
REMARK    9  A    between atoms: C_22  and  C_26
REMARK   10  A    between atoms: C_34  and  C_35
REMARK                            x       y       z     vdW  Elec       q    Type
REMARK                         _______ _______ _______ _____ _____    ______ ____
ROOT
ATOM      7  C   UNL     1      -5.791 -11.515   6.178  0.00  0.00    -0.027 C 
ATOM      8  C   UNL     1      -6.000 -10.055   6.700  0.00  0.00    +0.028 C 
ATOM      9  C   UNL     1      -5.969 -10.012   8.270  0.00  0.00    +0.012 C 
ATOM     10  C   UNL     1      -7.243  -9.392   6.037  0.00  0.00    +0.122 C 
ATOM     11  C   UNL     1      -5.714 -11.504   4.633  0.00  0.00    +0.007 C 
ATOM     12  C   UNL     1      -7.209  -9.477   4.494  0.00  0.00    +0.029 C 
ATOM     13  C   UNL     1      -4.444 -12.053   6.713  0.00  0.00    +0.009 C 
ATOM     14  C   UNL     1      -4.642 -10.625   8.800  0.00  0.00    +0.076 C 
ATOM     15  C   UNL     1      -6.945 -10.892   3.980  0.00  0.00    +0.007 C 
ATOM     16  C   UNL     1      -4.345 -12.012   8.231  0.00  0.00    +0.023 C 
ATOM     17  C   UNL     1      -6.931 -12.471   6.613  0.00  0.00    +0.011 C 
ATOM     19  C   UNL     1      -6.141  -8.599   8.852  0.00  0.00    +0.010 C 
ENDROOT
BRANCH  14   4
ATOM      3  O   UNL     1      -2.608  -9.619  10.557  0.00  0.00    -0.270 OA
ATOM      4  N   UNL     1      -4.629 -10.709  10.245  0.00  0.00    -0.308 N 
ATOM     22  C   UNL     1      -3.596 -10.191  11.006  0.00  0.00    +0.244 C 
ATOM     36  H   UNL     1      -5.357 -11.269  10.677  0.00  0.00    +0.149 HD
BRANCH  22  26
ATOM     26  C   UNL     1      -3.720 -10.381  12.475  0.00  0.00    +0.037 A 
ATOM     30  C   UNL     1      -2.579 -10.590  13.250  0.00  0.00    +0.014 A 
ATOM     31  C   UNL     1      -4.977 -10.350  13.079  0.00  0.00    +0.014 A 
ATOM     32  C   UNL     1      -2.695 -10.767  14.629  0.00  0.00    +0.019 A 
ATOM     33  C   UNL     1      -5.092 -10.528  14.458  0.00  0.00    +0.019 A 
ATOM     34  C   UNL     1      -3.952 -10.736  15.232  0.00  0.00    +0.052 A 
BRANCH  34  35
ATOM      6  N   UNL     1      -4.166 -11.065  17.792  0.00  0.00    -0.191 NA
ATOM     35  C   UNL     1      -4.070 -10.918  16.645  0.00  0.00    +0.099 C 
ENDBRANCH  34  35
ENDBRANCH  22  26
ENDBRANCH  14   4
BRANCH  10   1
ATOM      1  O   UNL     1      -7.276  -8.003   6.369  0.00  0.00    -0.391 OA
ATOM     37  H   UNL     1      -7.570  -7.511   5.584  0.00  0.00    +0.210 HD
ENDBRANCH  10   1
BRANCH  12  18
ATOM     18  C   UNL     1      -8.500  -8.936   3.867  0.00  0.00    +0.077 C 
ATOM     20  C   UNL     1      -9.636  -9.935   4.060  0.00  0.00    +0.017 C 
BRANCH  18  21
ATOM      2  O   UNL     1      -7.425  -7.831   2.000  0.00  0.00    -0.276 OA
ATOM      5  N   UNL     1      -9.121  -9.351   1.561  0.00  0.00    -0.312 N 
ATOM     21  C   UNL     1      -8.272  -8.632   2.389  0.00  0.00    +0.216 C 
ATOM     38  H   UNL     1      -9.779 -10.006   1.968  0.00  0.00    +0.149 HD
BRANCH   5  23
ATOM     23  C   UNL     1      -9.095  -9.231   0.120  0.00  0.00    +0.073 C 
ATOM     24  C   UNL     1      -9.278 -10.597  -0.551  0.00  0.00    +0.022 C 
ATOM     25  C   UNL     1     -10.145  -8.228  -0.368  0.00  0.00    +0.022 C 
ATOM     27  C   UNL     1     -10.705 -11.127  -0.417  0.00  0.00    +0.002 C 
ATOM     28  C   UNL     1     -11.571  -8.762  -0.234  0.00  0.00    +0.002 C 
ATOM     29  C   UNL     1     -11.732 -10.116  -0.919  0.00  0.00    +0.000 C 
ENDBRANCH   5  23
ENDBRANCH  18  21
ENDBRANCH  12  18
TORSDOF 7
ENDMDL
MODEL 10
REMARK VINA RESULT:      -6.2      4.003     11.160
REMARK  Name = 45361433
REMARK  10 active torsions:
REMARK  status: ('A' for Active; 'I' for Inactive)
REMARK    1  A    between atoms: O_1  and  C_10
REMARK    2  A    between atoms: N_4  and  C_14
REMARK    3  A    between atoms: N_5  and  C_23
REMARK    4  A    between atoms: C_7  and  C_17
REMARK    5  A    between atoms: C_9  and  C_19
REMARK    6  A    between atoms: C_12  and  C_18
REMARK    7  A    between atoms: C_18  and  C_20
REMARK    8  A    between atoms: C_18  and  C_21
REMARK    9  A    between atoms: C_22  and  C_26
REMARK   10  A    between atoms: C_34  and  C_35
REMARK                            x       y       z     vdW  Elec       q    Type
REMARK                         _______ _______ _______ _____ _____    ______ ____
ROOT
ATOM      7  C   UNL     1      -3.905 -14.013  12.679  0.00  0.00    -0.027 C 
ATOM      8  C   UNL     1      -4.071 -12.562  12.116  0.00  0.00    +0.028 C 
ATOM      9  C   UNL     1      -3.513 -12.462  10.652  0.00  0.00    +0.012 C 
ATOM     10  C   UNL     1      -3.518 -11.504  13.116  0.00  0.00    +0.122 C 
ATOM     11  C   UNL     1      -4.564 -14.104  14.075  0.00  0.00    +0.007 C 
ATOM     12  C   UNL     1      -4.104 -11.667  14.538  0.00  0.00    +0.029 C 
ATOM     13  C   UNL     1      -4.640 -15.002  11.745  0.00  0.00    +0.009 C 
ATOM     14  C   UNL     1      -4.206 -13.513   9.738  0.00  0.00    +0.076 C 
ATOM     15  C   UNL     1      -3.998 -13.097  15.067  0.00  0.00    +0.007 C 
ATOM     16  C   UNL     1      -4.159 -14.932  10.303  0.00  0.00    +0.023 C 
ATOM     17  C   UNL     1      -2.419 -14.437  12.801  0.00  0.00    +0.011 C 
ATOM     19  C   UNL     1      -3.670 -11.066  10.026  0.00  0.00    +0.010 C 
ENDROOT
BRANCH  14   4
ATOM      3  O   UNL     1      -5.451 -12.581   7.326  0.00  0.00    -0.270 OA
ATOM      4  N   UNL     1      -3.634 -13.528   8.409  0.00  0.00    -0.308 N 
ATOM     22  C   UNL     1      -4.319 -13.054   7.304  0.00  0.00    +0.244 C 
ATOM     36  H   UNL     1      -2.748 -14.010   8.298  0.00  0.00    +0.149 HD
BRANCH  22  26
ATOM     26  C   UNL     1      -3.604 -13.164   6.006  0.00  0.00    +0.037 A 
ATOM     30  C   UNL     1      -2.548 -14.064   5.864  0.00  0.00    +0.014 A 
ATOM     31  C   UNL     1      -3.989 -12.366   4.927  0.00  0.00    +0.014 A 
ATOM     32  C   UNL     1      -1.878 -14.168   4.645  0.00  0.00    +0.019 A 
ATOM     33  C   UNL     1      -3.318 -12.470   3.709  0.00  0.00    +0.019 A 
ATOM     34  C   UNL     1      -2.263 -13.371   3.568  0.00  0.00    +0.052 A 
BRANCH  34  35
ATOM      6  N   UNL     1      -1.018 -13.564   1.305  0.00  0.00    -0.191 NA
ATOM     35  C   UNL     1      -1.576 -13.477   2.319  0.00  0.00    +0.099 C 
ENDBRANCH  34  35
ENDBRANCH  22  26
ENDBRANCH  14   4
BRANCH  10   1
ATOM      1  O   UNL     1      -3.880 -10.195  12.672  0.00  0.00    -0.391 OA
ATOM     37  H   UNL     1      -4.223  -9.700  13.436  0.00  0.00    +0.210 HD
ENDBRANCH  10   1
BRANCH  12  18
ATOM     18  C   UNL     1      -3.452 -10.701  15.535  0.00  0.00    +0.077 C 
ATOM     20  C   UNL     1      -1.962 -10.999  15.654  0.00  0.00    +0.017 C 
BRANCH  18  21
ATOM      2  O   UNL     1      -3.569 -11.161  17.910  0.00  0.00    -0.276 OA
ATOM      5  N   UNL     1      -5.489 -10.449  16.823  0.00  0.00    -0.312 N 
ATOM     21  C   UNL     1      -4.150 -10.802  16.888  0.00  0.00    +0.216 C 
ATOM     38  H   UNL     1      -5.884 -10.145  15.939  0.00  0.00    +0.149 HD
BRANCH   5  23
ATOM     23  C   UNL     1      -6.360 -10.466  17.977  0.00  0.00    +0.073 C 
ATOM     24  C   UNL     1      -7.606  -9.606  17.742  0.00  0.00    +0.022 C 
ATOM     25  C   UNL     1      -6.741 -11.901  18.358  0.00  0.00    +0.022 C 
ATOM     27  C   UNL     1      -8.576 -10.241  16.746  0.00  0.00    +0.002 C 
ATOM     28  C   UNL     1      -7.712 -12.533  17.361  0.00  0.00    +0.002 C 
ATOM     29  C   UNL     1      -8.949 -11.664  17.151  0.00  0.00    +0.000 C 
ENDBRANCH   5  23
ENDBRANCH  18  21
ENDBRANCH  12  18
TORSDOF 7
ENDMDL
