REMARK  Name = 75536685
REMARK  10 active torsions:
REMARK  status: ('A' for Active; 'I' for Inactive)
REMARK    1  A    between atoms: S_1  and  N_8
REMARK    2  A    between atoms: S_1  and  C_17
REMARK    3  A    between atoms: O_3  and  C_11
REMARK    4  A    between atoms: N_7  and  C_10
REMARK    5  A    between atoms: N_7  and  C_15
REMARK    6  A    between atoms: N_8  and  C_14
REMARK    7  A    between atoms: N_9  and  C_24
REMARK    8  A    between atoms: C_12  and  C_14
REMARK    9  A    between atoms: C_15  and  C_16
REMARK   10  A    between atoms: C_28  and  C_29
REMARK                            x       y       z     vdW  Elec       q    Type
REMARK                         _______ _______ _______ _____ _____    ______ ____
ROOT
ATOM      2  O   UNL     1       1.638  -1.428   1.456  0.00  0.00    -0.371 OA
ATOM     10  C   UNL     1      -0.315  -1.617   0.118  0.00  0.00    +0.111 C 
ATOM     11  C   UNL     1       0.819  -1.080  -0.735  0.00  0.00    +0.164 C 
ATOM     12  C   UNL     1       2.030  -1.520   0.076  0.00  0.00    +0.164 C 
ATOM     13  C   UNL     1       0.204  -1.337   1.519  0.00  0.00    +0.181 C 
ENDROOT
BRANCH  11   3
ATOM      3  O   UNL     1       0.830  -1.631  -2.038  0.00  0.00    -0.388 OA
ATOM     31  H   UNL     1       0.871  -2.599  -1.961  0.00  0.00    +0.210 HD
ENDBRANCH  11   3
BRANCH  10   7
ATOM      7  N   UNL     1      -1.596  -0.982  -0.148  0.00  0.00    -0.305 NA
ATOM     30  H   UNL     1      -1.735  -0.923  -1.157  0.00  0.00    +0.123 HD
BRANCH   7  15
ATOM     15  C   UNL     1      -2.692  -1.746   0.436  0.00  0.00    +0.116 C 
BRANCH  15  16
ATOM     16  C   UNL     1      -4.026  -1.094   0.184  0.00  0.00    -0.033 A 
ATOM     18  C   UNL     1      -4.405   0.025   0.924  0.00  0.00    +0.007 A 
ATOM     19  C   UNL     1      -4.882  -1.610  -0.789  0.00  0.00    +0.007 A 
ATOM     20  C   UNL     1      -5.641   0.629   0.692  0.00  0.00    +0.023 A 
ATOM     21  C   UNL     1      -6.118  -1.007  -1.021  0.00  0.00    +0.023 A 
ATOM     24  C   UNL     1      -6.497   0.113  -0.281  0.00  0.00    +0.033 A 
BRANCH  24   9
ATOM      6  O   UNL     1      -7.777   2.511   1.015  0.00  0.00    -0.276 OA
ATOM      9  N   UNL     1      -7.734   0.716  -0.513  0.00  0.00    -0.286 N 
ATOM     28  C   UNL     1      -8.283   1.837   0.124  0.00  0.00    +0.214 C 
ATOM     29  C   UNL     1      -9.649   2.175  -0.418  0.00  0.00    +0.109 C 
ATOM     33  H   UNL     1      -8.300   0.280  -1.238  0.00  0.00    +0.155 HD
ENDBRANCH  24   9
ENDBRANCH  15  16
ENDBRANCH   7  15
ENDBRANCH  10   7
BRANCH  12  14
ATOM     14  C   UNL     1       3.260  -0.663  -0.166  0.00  0.00    +0.140 C 
BRANCH  14   8
ATOM      8  N   UNL     1       4.380  -1.159   0.657  0.00  0.00    -0.187 NA
ATOM     32  H   UNL     1       4.212  -1.182   1.671  0.00  0.00    +0.148 HD
BRANCH   8   1
ATOM      1  S   UNL     1       5.981  -0.996   0.105  0.00  0.00    +0.058 S 
ATOM      4  O   UNL     1       6.095  -1.581  -1.217  0.00  0.00    -0.153 OA
ATOM      5  O   UNL     1       6.888  -1.401   1.162  0.00  0.00    -0.153 OA
BRANCH   1  17
ATOM     17  C   UNL     1       6.130   0.757  -0.060  0.00  0.00    +0.105 A 
ATOM     22  C   UNL     1       6.575   1.524   1.017  0.00  0.00    +0.028 A 
ATOM     23  C   UNL     1       5.803   1.374  -1.267  0.00  0.00    +0.028 A 
ATOM     25  C   UNL     1       6.694   2.908   0.886  0.00  0.00    +0.002 A 
ATOM     26  C   UNL     1       5.922   2.758  -1.398  0.00  0.00    +0.002 A 
ATOM     27  C   UNL     1       6.367   3.525  -0.321  0.00  0.00    +0.000 A 
ENDBRANCH   1  17
ENDBRANCH   8   1
ENDBRANCH  14   8
ENDBRANCH  12  14
TORSDOF 9
