REMARK  Name = 26743300
REMARK  10 active torsions:
REMARK  status: ('A' for Active; 'I' for Inactive)
REMARK    1  A    between atoms: N_5  and  C_22
REMARK    2  A    between atoms: C_7  and  C_11
REMARK    3  A    between atoms: C_8  and  C_13
REMARK    4  A    between atoms: C_11  and  C_14
REMARK    5  A    between atoms: C_13  and  C_15
REMARK    6  A    between atoms: C_21  and  C_23
REMARK    7  A    between atoms: C_24  and  C_25
REMARK    8  A    between atoms: C_24  and  C_30
REMARK    9  A    between atoms: C_24  and  C_31
REMARK   10  A    between atoms: C_24  and  C_32
REMARK                            x       y       z     vdW  Elec       q    Type
REMARK                         _______ _______ _______ _____ _____    ______ ____
ROOT
ATOM      3  N   UNL     1       1.427   2.350   2.284  0.00  0.00    -0.316 NA
ATOM      7  C   UNL     1       2.789   1.581  -0.218  0.00  0.00    +0.004 C 
ATOM      8  C   UNL     1       1.285   1.316   0.031  0.00  0.00    +0.012 C 
ATOM      9  C   UNL     1       3.243   2.759   0.660  0.00  0.00    +0.019 C 
ATOM     10  C   UNL     1       0.972   1.181   1.531  0.00  0.00    +0.085 C 
ATOM     12  C   UNL     1       2.862   2.573   2.129  0.00  0.00    +0.081 C 
ATOM     33  H   UNL     1       1.211   2.220   3.272  0.00  0.00    +0.122 HD
ENDROOT
BRANCH   7  11
ATOM     11  C   UNL     1       3.684   0.356   0.007  0.00  0.00    +0.100 C 
BRANCH  11  14
ATOM      1  O   UNL     1       5.178   1.555  -1.389  0.00  0.00    -0.276 OA
ATOM      4  N   UNL     1       5.926  -0.491  -0.583  0.00  0.00    -0.299 N 
ATOM      5  N   UNL     1       8.130  -2.118   0.255  0.00  0.00    -0.302 NA
ATOM     14  C   UNL     1       4.992   0.534  -0.721  0.00  0.00    +0.216 C 
ATOM     16  C   UNL     1       7.221  -0.392  -1.255  0.00  0.00    +0.123 C 
ATOM     17  C   UNL     1       5.688  -1.771   0.090  0.00  0.00    +0.123 C 
ATOM     18  C   UNL     1       8.364  -0.785  -0.319  0.00  0.00    +0.103 C 
ATOM     19  C   UNL     1       6.862  -2.143   0.998  0.00  0.00    +0.103 C 
ATOM     22  C   UNL     1       9.242  -2.505   1.124  0.00  0.00    +0.105 C 
ENDBRANCH  11  14
ENDBRANCH   7  11
BRANCH   8  13
ATOM     13  C   UNL     1       0.754   0.106  -0.739  0.00  0.00    +0.064 C 
BRANCH  13  15
ATOM      2  O   UNL     1      -2.626   0.673  -1.842  0.00  0.00    -0.354 OA
ATOM      6  N   UNL     1      -1.248   0.783  -1.992  0.00  0.00    -0.083 NA
ATOM     15  C   UNL     1      -0.735   0.180  -0.916  0.00  0.00    +0.085 A 
ATOM     20  C   UNL     1      -1.730  -0.325  -0.061  0.00  0.00    +0.076 A 
ATOM     21  C   UNL     1      -2.900   0.012  -0.689  0.00  0.00    +0.167 A 
BRANCH  21  23
ATOM     23  C   UNL     1      -4.291  -0.179  -0.398  0.00  0.00    +0.020 A 
ATOM     25  C   UNL     1      -6.997  -0.548   0.170  0.00  0.00    -0.042 A 
ATOM     26  C   UNL     1      -4.675  -0.848   0.765  0.00  0.00    +0.012 A 
ATOM     27  C   UNL     1      -5.260   0.305  -1.276  0.00  0.00    +0.012 A 
ATOM     28  C   UNL     1      -6.028  -1.032   1.048  0.00  0.00    +0.005 A 
ATOM     29  C   UNL     1      -6.614   0.120  -0.993  0.00  0.00    +0.005 A 
BRANCH  25  24
ATOM     24  C   UNL     1      -8.444  -0.747   0.473  0.00  0.00    -0.013 C 
ATOM     30  C   UNL     1      -8.835  -0.075   1.826  0.00  0.00    +0.015 C 
ATOM     31  C   UNL     1      -8.797  -2.263   0.581  0.00  0.00    +0.015 C 
ATOM     32  C   UNL     1      -9.438  -0.162  -0.585  0.00  0.00    +0.015 C 
ENDBRANCH  25  24
ENDBRANCH  21  23
ENDBRANCH  13  15
ENDBRANCH   8  13
TORSDOF 6
