MODEL 1
REMARK VINA RESULT:      -7.3      0.000      0.000
REMARK  Name = 25389516
REMARK  8 active torsions:
REMARK  status: ('A' for Active; 'I' for Inactive)
REMARK    1  A    between atoms: O_2  and  C_36
REMARK    2  A    between atoms: O_2  and  C_37
REMARK    3  A    between atoms: N_4  and  C_19
REMARK    4  A    between atoms: N_5  and  C_16
REMARK    5  A    between atoms: N_7  and  C_26
REMARK    6  A    between atoms: C_9  and  C_15
REMARK    7  A    between atoms: C_10  and  C_16
REMARK    8  A    between atoms: C_18  and  C_21
REMARK                            x       y       z     vdW  Elec       q    Type
REMARK                         _______ _______ _______ _____ _____    ______ ____
ROOT
ATOM      3  N   UNL     1      14.224   5.181  -1.128  0.00  0.00    -0.297 NA
ATOM      8  C   UNL     1      12.393   3.631  -0.113  0.00  0.00    +0.002 C 
ATOM      9  C   UNL     1      11.861   5.084  -0.249  0.00  0.00    +0.055 C 
ATOM     10  C   UNL     1      14.788   4.402   0.005  0.00  0.00    +0.074 C 
ATOM     11  C   UNL     1      13.674   3.635   0.748  0.00  0.00    +0.024 C 
ATOM     12  C   UNL     1      12.801   3.172  -1.530  0.00  0.00    +0.019 C 
ATOM     13  C   UNL     1      13.062   5.980  -0.666  0.00  0.00    +0.094 C 
ATOM     14  C   UNL     1      13.745   4.217  -2.149  0.00  0.00    +0.085 C 
ENDROOT
BRANCH   9  15
ATOM      4  N   UNL     1      10.147   6.661   0.761  0.00  0.00    -0.270 N 
ATOM      6  N   UNL     1       9.567   7.044   1.910  0.00  0.00    -0.171 NA
ATOM     15  C   UNL     1      11.077   5.674   0.915  0.00  0.00    +0.044 A 
ATOM     17  C   UNL     1      11.106   5.392   2.258  0.00  0.00    +0.053 A 
ATOM     18  C   UNL     1      10.156   6.266   2.822  0.00  0.00    +0.093 A 
ATOM     19  C   UNL     1       9.756   7.299  -0.474  0.00  0.00    +0.172 C 
BRANCH  18  21
ATOM     21  C   UNL     1       9.803   6.371   4.213  0.00  0.00    +0.003 A 
ATOM     22  C   UNL     1      10.094   5.323   5.088  0.00  0.00    +0.018 A 
ATOM     23  C   UNL     1       9.172   7.518   4.687  0.00  0.00    +0.011 A 
ATOM     24  C   UNL     1       9.757   5.410   6.449  0.00  0.00    -0.017 A 
ATOM     25  C   UNL     1       8.830   7.621   6.035  0.00  0.00    +0.009 A 
ATOM     27  C   UNL     1       9.115   6.576   6.929  0.00  0.00    -0.018 A 
ATOM     28  C   UNL     1      10.042   4.366   7.342  0.00  0.00    +0.008 A 
ATOM     29  C   UNL     1       8.777   6.664   8.289  0.00  0.00    +0.008 A 
ATOM     32  C   UNL     1       9.700   4.469   8.691  0.00  0.00    +0.001 A 
ATOM     33  C   UNL     1       9.069   5.616   9.164  0.00  0.00    +0.001 A 
ENDBRANCH  18  21
ENDBRANCH   9  15
BRANCH  10  16
ATOM     16  C   UNL     1      15.614   5.271   0.955  0.00  0.00    +0.124 C 
BRANCH  16   5
ATOM      1  O   UNL     1      14.598   7.725   2.030  0.00  0.00    -0.253 OA
ATOM      5  N   UNL     1      14.940   5.443   2.205  0.00  0.00    -0.298 N 
ATOM      7  N   UNL     1      13.854   6.544   3.917  0.00  0.00    -0.269 N 
ATOM     20  C   UNL     1      14.467   6.684   2.670  0.00  0.00    +0.304 C 
ATOM     38  H   UNL     1      14.801   4.626   2.791  0.00  0.00    +0.150 HD
ATOM     39  H   UNL     1      13.830   5.608   4.312  0.00  0.00    +0.156 HD
BRANCH   7  26
ATOM     26  C   UNL     1      13.257   7.553   4.709  0.00  0.00    +0.035 A 
ATOM     30  C   UNL     1      13.123   7.373   6.085  0.00  0.00    +0.027 A 
ATOM     31  C   UNL     1      12.802   8.730   4.113  0.00  0.00    +0.027 A 
ATOM     34  C   UNL     1      12.535   8.367   6.866  0.00  0.00    +0.047 A 
ATOM     35  C   UNL     1      12.213   9.725   4.893  0.00  0.00    +0.047 A 
ATOM     36  C   UNL     1      12.080   9.544   6.270  0.00  0.00    +0.120 A 
BRANCH  36   2
ATOM      2  O   UNL     1      11.506  10.514   7.032  0.00  0.00    -0.495 OA
ATOM     37  C   UNL     1      10.130  10.801   6.789  0.00  0.00    +0.277 C 
ENDBRANCH  36   2
ENDBRANCH   7  26
ENDBRANCH  16   5
ENDBRANCH  10  16
TORSDOF 6
ENDMDL
MODEL 2
REMARK VINA RESULT:      -7.3     23.745     27.210
REMARK  Name = 25389516
REMARK  8 active torsions:
REMARK  status: ('A' for Active; 'I' for Inactive)
REMARK    1  A    between atoms: O_2  and  C_36
REMARK    2  A    between atoms: O_2  and  C_37
REMARK    3  A    between atoms: N_4  and  C_19
REMARK    4  A    between atoms: N_5  and  C_16
REMARK    5  A    between atoms: N_7  and  C_26
REMARK    6  A    between atoms: C_9  and  C_15
REMARK    7  A    between atoms: C_10  and  C_16
REMARK    8  A    between atoms: C_18  and  C_21
REMARK                            x       y       z     vdW  Elec       q    Type
REMARK                         _______ _______ _______ _____ _____    ______ ____
ROOT
ATOM      3  N   UNL     1      -6.220 -10.411  17.858  0.00  0.00    -0.297 NA
ATOM      8  C   UNL     1      -4.462 -12.145  17.033  0.00  0.00    +0.002 C 
ATOM      9  C   UNL     1      -4.164 -10.743  16.435  0.00  0.00    +0.055 C 
ATOM     10  C   UNL     1      -6.907 -11.620  17.334  0.00  0.00    +0.074 C 
ATOM     11  C   UNL     1      -5.896 -12.568  16.653  0.00  0.00    +0.024 C 
ATOM     12  C   UNL     1      -4.426 -11.991  18.569  0.00  0.00    +0.019 C 
ATOM     13  C   UNL     1      -5.359  -9.819  16.805  0.00  0.00    +0.094 C 
ATOM     14  C   UNL     1      -5.350 -10.833  18.983  0.00  0.00    +0.085 C 
ENDROOT
BRANCH   9  15
ATOM      4  N   UNL     1      -2.512 -10.608  14.512  0.00  0.00    -0.270 N 
ATOM      6  N   UNL     1      -2.404 -10.530  13.176  0.00  0.00    -0.171 NA
ATOM     15  C   UNL     1      -3.800 -10.653  14.960  0.00  0.00    +0.044 A 
ATOM     17  C   UNL     1      -4.589 -10.601  13.837  0.00  0.00    +0.053 A 
ATOM     18  C   UNL     1      -3.676 -10.525  12.768  0.00  0.00    +0.093 A 
ATOM     19  C   UNL     1      -1.313 -10.633  15.317  0.00  0.00    +0.172 C 
BRANCH  18  21
ATOM     21  C   UNL     1      -3.995 -10.449  11.367  0.00  0.00    +0.003 A 
ATOM     22  C   UNL     1      -4.452 -11.582  10.693  0.00  0.00    +0.018 A 
ATOM     23  C   UNL     1      -3.849  -9.244  10.684  0.00  0.00    +0.011 A 
ATOM     24  C   UNL     1      -4.769 -11.525   9.326  0.00  0.00    -0.017 A 
ATOM     25  C   UNL     1      -4.160  -9.169   9.326  0.00  0.00    +0.009 A 
ATOM     27  C   UNL     1      -4.620 -10.300   8.632  0.00  0.00    -0.018 A 
ATOM     28  C   UNL     1      -5.229 -12.655   8.632  0.00  0.00    +0.008 A 
ATOM     29  C   UNL     1      -4.936 -10.242   7.265  0.00  0.00    +0.008 A 
ATOM     32  C   UNL     1      -5.539 -12.580   7.274  0.00  0.00    +0.001 A 
ATOM     33  C   UNL     1      -5.393 -11.375   6.591  0.00  0.00    +0.001 A 
ENDBRANCH  18  21
ENDBRANCH   9  15
BRANCH  10  16
ATOM     16  C   UNL     1      -8.074 -11.272  16.409  0.00  0.00    +0.124 C 
BRANCH  16   5
ATOM      1  O   UNL     1      -8.805  -9.712  14.120  0.00  0.00    -0.253 OA
ATOM      5  N   UNL     1      -7.745 -11.549  15.044  0.00  0.00    -0.298 N 
ATOM      7  N   UNL     1      -7.674 -11.253  12.757  0.00  0.00    -0.269 N 
ATOM     20  C   UNL     1      -8.140 -10.734  13.968  0.00  0.00    +0.304 C 
ATOM     38  H   UNL     1      -7.200 -12.381  14.842  0.00  0.00    +0.150 HD
ATOM     39  H   UNL     1      -7.135 -12.113  12.806  0.00  0.00    +0.156 HD
BRANCH   7  26
ATOM     26  C   UNL     1      -7.862 -10.725  11.458  0.00  0.00    +0.035 A 
ATOM     30  C   UNL     1      -7.564  -9.387  11.199  0.00  0.00    +0.027 A 
ATOM     31  C   UNL     1      -8.343 -11.542  10.435  0.00  0.00    +0.027 A 
ATOM     34  C   UNL     1      -7.748  -8.866   9.918  0.00  0.00    +0.047 A 
ATOM     35  C   UNL     1      -8.528 -11.022   9.155  0.00  0.00    +0.047 A 
ATOM     36  C   UNL     1      -8.230  -9.684   8.896  0.00  0.00    +0.120 A 
BRANCH  36   2
ATOM      2  O   UNL     1      -8.410  -9.176   7.646  0.00  0.00    -0.495 OA
ATOM     37  C   UNL     1      -8.000  -7.827   7.430  0.00  0.00    +0.277 C 
ENDBRANCH  36   2
ENDBRANCH   7  26
ENDBRANCH  16   5
ENDBRANCH  10  16
TORSDOF 6
ENDMDL
MODEL 3
REMARK VINA RESULT:      -7.0      1.267      1.869
REMARK  Name = 25389516
REMARK  8 active torsions:
REMARK  status: ('A' for Active; 'I' for Inactive)
REMARK    1  A    between atoms: O_2  and  C_36
REMARK    2  A    between atoms: O_2  and  C_37
REMARK    3  A    between atoms: N_4  and  C_19
REMARK    4  A    between atoms: N_5  and  C_16
REMARK    5  A    between atoms: N_7  and  C_26
REMARK    6  A    between atoms: C_9  and  C_15
REMARK    7  A    between atoms: C_10  and  C_16
REMARK    8  A    between atoms: C_18  and  C_21
REMARK                            x       y       z     vdW  Elec       q    Type
REMARK                         _______ _______ _______ _____ _____    ______ ____
ROOT
ATOM      3  N   UNL     1      15.561   6.648  -1.293  0.00  0.00    -0.297 NA
ATOM      8  C   UNL     1      14.436   4.344  -0.837  0.00  0.00    +0.002 C 
ATOM      9  C   UNL     1      13.360   5.454  -0.981  0.00  0.00    +0.055 C 
ATOM     10  C   UNL     1      16.202   5.992  -0.124  0.00  0.00    +0.074 C 
ATOM     11  C   UNL     1      15.419   4.728   0.289  0.00  0.00    +0.024 C 
ATOM     12  C   UNL     1      15.240   4.329  -2.155  0.00  0.00    +0.019 C 
ATOM     13  C   UNL     1      14.107   6.817  -1.047  0.00  0.00    +0.094 C 
ATOM     14  C   UNL     1      15.730   5.754  -2.465  0.00  0.00    +0.085 C 
ENDROOT
BRANCH   9  15
ATOM      4  N   UNL     1      11.041   4.801  -0.182  0.00  0.00    -0.270 N 
ATOM      6  N   UNL     1      10.153   4.947   0.815  0.00  0.00    -0.171 NA
ATOM     15  C   UNL     1      12.210   5.475   0.016  0.00  0.00    +0.044 A 
ATOM     17  C   UNL     1      12.078   6.105   1.229  0.00  0.00    +0.053 A 
ATOM     18  C   UNL     1      10.792   5.745   1.675  0.00  0.00    +0.093 A 
ATOM     19  C   UNL     1      10.693   3.985  -1.322  0.00  0.00    +0.172 C 
BRANCH  18  21
ATOM     21  C   UNL     1      10.162   6.150   2.905  0.00  0.00    +0.003 A 
ATOM     22  C   UNL     1      10.499   5.516   4.101  0.00  0.00    +0.018 A 
ATOM     23  C   UNL     1       9.218   7.173   2.900  0.00  0.00    +0.011 A 
ATOM     24  C   UNL     1       9.895   5.899   5.310  0.00  0.00    -0.017 A 
ATOM     25  C   UNL     1       8.609   7.566   4.092  0.00  0.00    +0.009 A 
ATOM     27  C   UNL     1       8.935   6.939   5.305  0.00  0.00    -0.018 A 
ATOM     28  C   UNL     1      10.222   5.272   6.523  0.00  0.00    +0.008 A 
ATOM     29  C   UNL     1       8.331   7.323   6.513  0.00  0.00    +0.008 A 
ATOM     32  C   UNL     1       9.612   5.665   7.715  0.00  0.00    +0.001 A 
ATOM     33  C   UNL     1       8.668   6.689   7.710  0.00  0.00    +0.001 A 
ENDBRANCH  18  21
ENDBRANCH   9  15
BRANCH  10  16
ATOM     16  C   UNL     1      16.393   6.954   1.050  0.00  0.00    +0.124 C 
BRANCH  16   5
ATOM      1  O   UNL     1      15.093   8.803   2.810  0.00  0.00    -0.253 OA
ATOM      5  N   UNL     1      15.503   6.632   2.123  0.00  0.00    -0.298 N 
ATOM      7  N   UNL     1      14.084   6.990   3.907  0.00  0.00    -0.269 N 
ATOM     20  C   UNL     1      14.900   7.598   2.949  0.00  0.00    +0.304 C 
ATOM     38  H   UNL     1      15.300   5.653   2.301  0.00  0.00    +0.150 HD
ATOM     39  H   UNL     1      14.033   5.975   3.886  0.00  0.00    +0.156 HD
BRANCH   7  26
ATOM     26  C   UNL     1      13.311   7.617   4.913  0.00  0.00    +0.035 A 
ATOM     30  C   UNL     1      12.388   8.604   4.570  0.00  0.00    +0.027 A 
ATOM     31  C   UNL     1      13.472   7.247   6.249  0.00  0.00    +0.027 A 
ATOM     34  C   UNL     1      11.626   9.222   5.561  0.00  0.00    +0.047 A 
ATOM     35  C   UNL     1      12.711   7.866   7.240  0.00  0.00    +0.047 A 
ATOM     36  C   UNL     1      11.787   8.853   6.897  0.00  0.00    +0.120 A 
BRANCH  36   2
ATOM      2  O   UNL     1      11.043   9.456   7.863  0.00  0.00    -0.495 OA
ATOM     37  C   UNL     1      10.038  10.372   7.432  0.00  0.00    +0.277 C 
ENDBRANCH  36   2
ENDBRANCH   7  26
ENDBRANCH  16   5
ENDBRANCH  10  16
TORSDOF 6
ENDMDL
MODEL 4
REMARK VINA RESULT:      -6.9     24.329     27.798
REMARK  Name = 25389516
REMARK  8 active torsions:
REMARK  status: ('A' for Active; 'I' for Inactive)
REMARK    1  A    between atoms: O_2  and  C_36
REMARK    2  A    between atoms: O_2  and  C_37
REMARK    3  A    between atoms: N_4  and  C_19
REMARK    4  A    between atoms: N_5  and  C_16
REMARK    5  A    between atoms: N_7  and  C_26
REMARK    6  A    between atoms: C_9  and  C_15
REMARK    7  A    between atoms: C_10  and  C_16
REMARK    8  A    between atoms: C_18  and  C_21
REMARK                            x       y       z     vdW  Elec       q    Type
REMARK                         _______ _______ _______ _____ _____    ______ ____
ROOT
ATOM      3  N   UNL     1      -5.994 -10.482   9.283  0.00  0.00    -0.297 NA
ATOM      8  C   UNL     1      -4.210  -9.023  10.496  0.00  0.00    +0.002 C 
ATOM      9  C   UNL     1      -4.222 -10.462  11.079  0.00  0.00    +0.055 C 
ATOM     10  C   UNL     1      -6.600  -9.198   9.720  0.00  0.00    +0.074 C 
ATOM     11  C   UNL     1      -5.621  -8.411  10.617  0.00  0.00    +0.024 C 
ATOM     12  C   UNL     1      -3.902  -9.156   8.989  0.00  0.00    +0.019 C 
ATOM     13  C   UNL     1      -5.437 -11.206  10.453  0.00  0.00    +0.094 C 
ATOM     14  C   UNL     1      -4.876 -10.167   8.360  0.00  0.00    +0.085 C 
ENDROOT
BRANCH   9  15
ATOM      4  N   UNL     1      -3.001 -10.556  13.303  0.00  0.00    -0.270 N 
ATOM      6  N   UNL     1      -3.163 -10.726  14.625  0.00  0.00    -0.171 NA
ATOM     15  C   UNL     1      -4.163 -10.626  12.591  0.00  0.00    +0.044 A 
ATOM     17  C   UNL     1      -5.154 -10.858  13.514  0.00  0.00    +0.053 A 
ATOM     18  C   UNL     1      -4.480 -10.911  14.749  0.00  0.00    +0.093 A 
ATOM     19  C   UNL     1      -1.675 -10.328  12.777  0.00  0.00    +0.172 C 
BRANCH  18  21
ATOM     21  C   UNL     1      -5.070 -11.135  16.042  0.00  0.00    +0.003 A 
ATOM     22  C   UNL     1      -6.128 -12.035  16.180  0.00  0.00    +0.018 A 
ATOM     23  C   UNL     1      -4.585 -10.455  17.156  0.00  0.00    +0.011 A 
ATOM     24  C   UNL     1      -6.715 -12.265  17.435  0.00  0.00    -0.017 A 
ATOM     25  C   UNL     1      -5.156 -10.672  18.410  0.00  0.00    +0.009 A 
ATOM     27  C   UNL     1      -6.222 -11.573  18.567  0.00  0.00    -0.018 A 
ATOM     28  C   UNL     1      -7.780 -13.166  17.591  0.00  0.00    +0.008 A 
ATOM     29  C   UNL     1      -6.808 -11.803  19.822  0.00  0.00    +0.008 A 
ATOM     32  C   UNL     1      -8.351 -13.383  18.845  0.00  0.00    +0.001 A 
ATOM     33  C   UNL     1      -7.866 -12.703  19.959  0.00  0.00    +0.001 A 
ENDBRANCH  18  21
ENDBRANCH   9  15
BRANCH  10  16
ATOM     16  C   UNL     1      -7.959  -9.395  10.394  0.00  0.00    +0.124 C 
BRANCH  16   5
ATOM      1  O   UNL     1      -9.589 -10.556  12.444  0.00  0.00    -0.253 OA
ATOM      5  N   UNL     1      -7.873  -9.145  11.800  0.00  0.00    -0.298 N 
ATOM      7  N   UNL     1      -8.395  -9.318  14.041  0.00  0.00    -0.269 N 
ATOM     20  C   UNL     1      -8.711  -9.754  12.751  0.00  0.00    +0.304 C 
ATOM     38  H   UNL     1      -7.172  -8.488  12.128  0.00  0.00    +0.150 HD
ATOM     39  H   UNL     1      -7.635  -8.648  14.123  0.00  0.00    +0.156 HD
BRANCH   7  26
ATOM     26  C   UNL     1      -9.005  -9.698  15.259  0.00  0.00    +0.035 A 
ATOM     30  C   UNL     1     -10.032 -10.642  15.260  0.00  0.00    +0.027 A 
ATOM     31  C   UNL     1      -8.581  -9.129  16.460  0.00  0.00    +0.027 A 
ATOM     34  C   UNL     1     -10.634 -11.018  16.460  0.00  0.00    +0.047 A 
ATOM     35  C   UNL     1      -9.184  -9.503  17.661  0.00  0.00    +0.047 A 
ATOM     36  C   UNL     1     -10.210 -10.448  17.661  0.00  0.00    +0.120 A 
BRANCH  36   2
ATOM      2  O   UNL     1     -10.799 -10.814  18.833  0.00  0.00    -0.495 OA
ATOM     37  C   UNL     1     -12.194 -10.549  18.968  0.00  0.00    +0.277 C 
ENDBRANCH  36   2
ENDBRANCH   7  26
ENDBRANCH  16   5
ENDBRANCH  10  16
TORSDOF 6
ENDMDL
MODEL 5
REMARK VINA RESULT:      -6.7     23.707     27.257
REMARK  Name = 25389516
REMARK  8 active torsions:
REMARK  status: ('A' for Active; 'I' for Inactive)
REMARK    1  A    between atoms: O_2  and  C_36
REMARK    2  A    between atoms: O_2  and  C_37
REMARK    3  A    between atoms: N_4  and  C_19
REMARK    4  A    between atoms: N_5  and  C_16
REMARK    5  A    between atoms: N_7  and  C_26
REMARK    6  A    between atoms: C_9  and  C_15
REMARK    7  A    between atoms: C_10  and  C_16
REMARK    8  A    between atoms: C_18  and  C_21
REMARK                            x       y       z     vdW  Elec       q    Type
REMARK                         _______ _______ _______ _____ _____    ______ ____
ROOT
ATOM      3  N   UNL     1      -4.427 -12.284  17.382  0.00  0.00    -0.297 NA
ATOM      8  C   UNL     1      -6.174 -10.360  17.546  0.00  0.00    +0.002 C 
ATOM      9  C   UNL     1      -6.717 -11.512  16.657  0.00  0.00    +0.055 C 
ATOM     10  C   UNL     1      -3.778 -10.981  17.082  0.00  0.00    +0.074 C 
ATOM     11  C   UNL     1      -4.832  -9.860  16.970  0.00  0.00    +0.024 C 
ATOM     12  C   UNL     1      -5.874 -10.970  18.932  0.00  0.00    +0.019 C 
ATOM     13  C   UNL     1      -5.552 -12.520  16.443  0.00  0.00    +0.094 C 
ATOM     14  C   UNL     1      -4.981 -12.210  18.757  0.00  0.00    +0.085 C 
ENDROOT
BRANCH   9  15
ATOM      4  N   UNL     1      -8.671 -10.626  15.300  0.00  0.00    -0.270 N 
ATOM      6  N   UNL     1      -9.103 -10.373  14.054  0.00  0.00    -0.171 NA
ATOM     15  C   UNL     1      -7.412 -11.148  15.352  0.00  0.00    +0.044 A 
ATOM     17  C   UNL     1      -6.991 -11.243  14.048  0.00  0.00    +0.053 A 
ATOM     18  C   UNL     1      -8.073 -10.753  13.293  0.00  0.00    +0.093 A 
ATOM     19  C   UNL     1      -9.538 -10.338  16.420  0.00  0.00    +0.172 C 
BRANCH  18  21
ATOM     21  C   UNL     1      -8.141 -10.641  11.859  0.00  0.00    +0.003 A 
ATOM     22  C   UNL     1      -7.922  -9.407  11.245  0.00  0.00    +0.018 A 
ATOM     23  C   UNL     1      -8.425 -11.763  11.086  0.00  0.00    +0.011 A 
ATOM     24  C   UNL     1      -7.984  -9.280   9.848  0.00  0.00    -0.017 A 
ATOM     25  C   UNL     1      -8.490 -11.655   9.697  0.00  0.00    +0.009 A 
ATOM     27  C   UNL     1      -8.273 -10.421   9.062  0.00  0.00    -0.018 A 
ATOM     28  C   UNL     1      -7.767  -8.047   9.214  0.00  0.00    +0.008 A 
ATOM     29  C   UNL     1      -8.335 -10.295   7.665  0.00  0.00    +0.008 A 
ATOM     32  C   UNL     1      -7.832  -7.939   7.824  0.00  0.00    +0.001 A 
ATOM     33  C   UNL     1      -8.116  -9.061   7.051  0.00  0.00    +0.001 A 
ENDBRANCH  18  21
ENDBRANCH   9  15
BRANCH  10  16
ATOM     16  C   UNL     1      -2.884 -11.049  15.843  0.00  0.00    +0.124 C 
BRANCH  16   5
ATOM      1  O   UNL     1      -2.875 -11.906  13.109  0.00  0.00    -0.253 OA
ATOM      5  N   UNL     1      -3.495 -10.381  14.735  0.00  0.00    -0.298 N 
ATOM      7  N   UNL     1      -4.132 -10.004  12.549  0.00  0.00    -0.269 N 
ATOM     20  C   UNL     1      -3.450 -10.863  13.415  0.00  0.00    +0.304 C 
ATOM     38  H   UNL     1      -3.984  -9.509  14.911  0.00  0.00    +0.150 HD
ATOM     39  H   UNL     1      -4.554  -9.178  12.965  0.00  0.00    +0.156 HD
BRANCH   7  26
ATOM     26  C   UNL     1      -4.311 -10.140  11.153  0.00  0.00    +0.035 A 
ATOM     30  C   UNL     1      -4.142  -9.036  10.317  0.00  0.00    +0.027 A 
ATOM     31  C   UNL     1      -4.654 -11.379  10.610  0.00  0.00    +0.027 A 
ATOM     34  C   UNL     1      -4.317  -9.170   8.940  0.00  0.00    +0.047 A 
ATOM     35  C   UNL     1      -4.830 -11.513   9.234  0.00  0.00    +0.047 A 
ATOM     36  C   UNL     1      -4.661 -10.409   8.398  0.00  0.00    +0.120 A 
BRANCH  36   2
ATOM      2  O   UNL     1      -4.832 -10.540   7.054  0.00  0.00    -0.495 OA
ATOM     37  C   UNL     1      -5.052 -11.857   6.553  0.00  0.00    +0.277 C 
ENDBRANCH  36   2
ENDBRANCH   7  26
ENDBRANCH  16   5
ENDBRANCH  10  16
TORSDOF 6
ENDMDL
MODEL 6
REMARK VINA RESULT:      -6.7     24.201     27.963
REMARK  Name = 25389516
REMARK  8 active torsions:
REMARK  status: ('A' for Active; 'I' for Inactive)
REMARK    1  A    between atoms: O_2  and  C_36
REMARK    2  A    between atoms: O_2  and  C_37
REMARK    3  A    between atoms: N_4  and  C_19
REMARK    4  A    between atoms: N_5  and  C_16
REMARK    5  A    between atoms: N_7  and  C_26
REMARK    6  A    between atoms: C_9  and  C_15
REMARK    7  A    between atoms: C_10  and  C_16
REMARK    8  A    between atoms: C_18  and  C_21
REMARK                            x       y       z     vdW  Elec       q    Type
REMARK                         _______ _______ _______ _____ _____    ______ ____
ROOT
ATOM      3  N   UNL     1      -6.425 -10.710  17.829  0.00  0.00    -0.297 NA
ATOM      8  C   UNL     1      -4.220 -11.982  17.283  0.00  0.00    +0.002 C 
ATOM      9  C   UNL     1      -4.268 -10.629  16.524  0.00  0.00    +0.055 C 
ATOM     10  C   UNL     1      -6.730 -12.112  17.440  0.00  0.00    +0.074 C 
ATOM     11  C   UNL     1      -5.463 -12.820  16.915  0.00  0.00    +0.024 C 
ATOM     12  C   UNL     1      -4.325 -11.652  18.788  0.00  0.00    +0.019 C 
ATOM     13  C   UNL     1      -5.687 -10.028  16.737  0.00  0.00    +0.094 C 
ATOM     14  C   UNL     1      -5.548 -10.751  19.025  0.00  0.00    +0.085 C 
ENDROOT
BRANCH   9  15
ATOM      4  N   UNL     1      -2.547 -10.518  14.661  0.00  0.00    -0.270 N 
ATOM      6  N   UNL     1      -2.387 -10.517  13.328  0.00  0.00    -0.171 NA
ATOM     15  C   UNL     1      -3.848 -10.610  15.061  0.00  0.00    +0.044 A 
ATOM     17  C   UNL     1      -4.591 -10.674  13.907  0.00  0.00    +0.053 A 
ATOM     18  C   UNL     1      -3.639 -10.612  12.872  0.00  0.00    +0.093 A 
ATOM     19  C   UNL     1      -1.383 -10.423  15.512  0.00  0.00    +0.172 C 
BRANCH  18  21
ATOM     21  C   UNL     1      -3.903 -10.641  11.457  0.00  0.00    +0.003 A 
ATOM     22  C   UNL     1      -3.943 -11.861  10.780  0.00  0.00    +0.018 A 
ATOM     23  C   UNL     1      -4.118  -9.453  10.764  0.00  0.00    +0.011 A 
ATOM     24  C   UNL     1      -4.200 -11.908   9.400  0.00  0.00    -0.017 A 
ATOM     25  C   UNL     1      -4.375  -9.481   9.393  0.00  0.00    +0.009 A 
ATOM     27  C   UNL     1      -4.418 -10.699   8.696  0.00  0.00    -0.018 A 
ATOM     28  C   UNL     1      -4.243 -13.125   8.704  0.00  0.00    +0.008 A 
ATOM     29  C   UNL     1      -4.675 -10.745   7.316  0.00  0.00    +0.008 A 
ATOM     32  C   UNL     1      -4.500 -13.153   7.333  0.00  0.00    +0.001 A 
ATOM     33  C   UNL     1      -4.715 -11.965   6.640  0.00  0.00    +0.001 A 
ENDBRANCH  18  21
ENDBRANCH   9  15
BRANCH  10  16
ATOM     16  C   UNL     1      -7.887 -12.200  16.443  0.00  0.00    +0.124 C 
BRANCH  16   5
ATOM      1  O   UNL     1      -8.793 -10.058  14.769  0.00  0.00    -0.253 OA
ATOM      5  N   UNL     1      -8.904 -11.243  16.754  0.00  0.00    -0.298 N 
ATOM      7  N   UNL     1     -10.308  -9.437  16.452  0.00  0.00    -0.269 N 
ATOM     20  C   UNL     1      -9.297 -10.214  15.879  0.00  0.00    +0.304 C 
ATOM     38  H   UNL     1      -9.362 -11.307  17.658  0.00  0.00    +0.150 HD
ATOM     39  H   UNL     1     -10.614  -9.702  17.384  0.00  0.00    +0.156 HD
BRANCH   7  26
ATOM     26  C   UNL     1     -10.964  -8.316  15.890  0.00  0.00    +0.035 A 
ATOM     30  C   UNL     1     -11.903  -8.495  14.875  0.00  0.00    +0.027 A 
ATOM     31  C   UNL     1     -10.673  -7.033  16.353  0.00  0.00    +0.027 A 
ATOM     34  C   UNL     1     -12.551  -7.391  14.321  0.00  0.00    +0.047 A 
ATOM     35  C   UNL     1     -11.320  -5.928  15.799  0.00  0.00    +0.047 A 
ATOM     36  C   UNL     1     -12.259  -6.107  14.784  0.00  0.00    +0.120 A 
BRANCH  36   2
ATOM      2  O   UNL     1     -12.891  -5.029  14.243  0.00  0.00    -0.495 OA
ATOM     37  C   UNL     1     -13.847  -5.286  13.216  0.00  0.00    +0.277 C 
ENDBRANCH  36   2
ENDBRANCH   7  26
ENDBRANCH  16   5
ENDBRANCH  10  16
TORSDOF 6
ENDMDL
MODEL 7
REMARK VINA RESULT:      -6.7     29.663     34.260
REMARK  Name = 25389516
REMARK  8 active torsions:
REMARK  status: ('A' for Active; 'I' for Inactive)
REMARK    1  A    between atoms: O_2  and  C_36
REMARK    2  A    between atoms: O_2  and  C_37
REMARK    3  A    between atoms: N_4  and  C_19
REMARK    4  A    between atoms: N_5  and  C_16
REMARK    5  A    between atoms: N_7  and  C_26
REMARK    6  A    between atoms: C_9  and  C_15
REMARK    7  A    between atoms: C_10  and  C_16
REMARK    8  A    between atoms: C_18  and  C_21
REMARK                            x       y       z     vdW  Elec       q    Type
REMARK                         _______ _______ _______ _____ _____    ______ ____
ROOT
ATOM      3  N   UNL     1     -16.080   6.226  22.419  0.00  0.00    -0.297 NA
ATOM      8  C   UNL     1     -17.255   4.085  23.322  0.00  0.00    +0.002 C 
ATOM      9  C   UNL     1     -17.407   5.254  24.332  0.00  0.00    +0.055 C 
ATOM     10  C   UNL     1     -15.156   5.065  22.333  0.00  0.00    +0.074 C 
ATOM     11  C   UNL     1     -15.756   3.837  23.050  0.00  0.00    +0.024 C 
ATOM     12  C   UNL     1     -17.884   4.558  21.994  0.00  0.00    +0.019 C 
ATOM     13  C   UNL     1     -16.517   6.424  23.823  0.00  0.00    +0.094 C 
ATOM     14  C   UNL     1     -17.278   5.916  21.601  0.00  0.00    +0.085 C 
ENDROOT
BRANCH   9  15
ATOM      4  N   UNL     1     -17.593   5.804  26.803  0.00  0.00    -0.270 N 
ATOM      6  N   UNL     1     -17.305   5.365  28.039  0.00  0.00    -0.171 NA
ATOM     15  C   UNL     1     -17.187   4.962  25.810  0.00  0.00    +0.044 A 
ATOM     17  C   UNL     1     -16.592   3.898  26.440  0.00  0.00    +0.053 A 
ATOM     18  C   UNL     1     -16.693   4.200  27.812  0.00  0.00    +0.093 A 
ATOM     19  C   UNL     1     -18.273   7.070  26.645  0.00  0.00    +0.172 C 
BRANCH  18  21
ATOM     21  C   UNL     1     -16.215   3.397  28.907  0.00  0.00    +0.003 A 
ATOM     22  C   UNL     1     -15.962   3.988  30.146  0.00  0.00    +0.018 A 
ATOM     23  C   UNL     1     -16.006   2.032  28.731  0.00  0.00    +0.011 A 
ATOM     24  C   UNL     1     -15.496   3.220  31.226  0.00  0.00    -0.017 A 
ATOM     25  C   UNL     1     -15.544   1.254  29.793  0.00  0.00    +0.009 A 
ATOM     27  C   UNL     1     -15.284   1.832  31.046  0.00  0.00    -0.018 A 
ATOM     28  C   UNL     1     -15.236   3.798  32.478  0.00  0.00    +0.008 A 
ATOM     29  C   UNL     1     -14.818   1.063  32.125  0.00  0.00    +0.008 A 
ATOM     32  C   UNL     1     -14.774   3.019  33.539  0.00  0.00    +0.001 A 
ATOM     33  C   UNL     1     -14.565   1.654  33.363  0.00  0.00    +0.001 A 
ENDBRANCH  18  21
ENDBRANCH   9  15
BRANCH  10  16
ATOM     16  C   UNL     1     -13.754   5.398  22.847  0.00  0.00    +0.124 C 
BRANCH  16   5
ATOM      1  O   UNL     1     -13.198   7.851  21.475  0.00  0.00    -0.253 OA
ATOM      5  N   UNL     1     -12.842   5.582  21.760  0.00  0.00    -0.298 N 
ATOM      7  N   UNL     1     -11.680   6.696  20.107  0.00  0.00    -0.269 N 
ATOM     20  C   UNL     1     -12.621   6.822  21.133  0.00  0.00    +0.304 C 
ATOM     38  H   UNL     1     -12.332   4.773  21.419  0.00  0.00    +0.150 HD
ATOM     39  H   UNL     1     -11.295   5.769  19.951  0.00  0.00    +0.156 HD
BRANCH   7  26
ATOM     26  C   UNL     1     -11.192   7.709  19.248  0.00  0.00    +0.035 A 
ATOM     30  C   UNL     1     -10.681   8.891  19.784  0.00  0.00    +0.027 A 
ATOM     31  C   UNL     1     -11.220   7.526  17.866  0.00  0.00    +0.027 A 
ATOM     34  C   UNL     1     -10.199   9.890  18.939  0.00  0.00    +0.047 A 
ATOM     35  C   UNL     1     -10.738   8.525  17.020  0.00  0.00    +0.047 A 
ATOM     36  C   UNL     1     -10.228   9.707  17.556  0.00  0.00    +0.120 A 
BRANCH  36   2
ATOM      2  O   UNL     1      -9.758  10.682  16.731  0.00  0.00    -0.495 OA
ATOM     37  C   UNL     1     -10.708  11.336  15.892  0.00  0.00    +0.277 C 
ENDBRANCH  36   2
ENDBRANCH   7  26
ENDBRANCH  16   5
ENDBRANCH  10  16
TORSDOF 6
ENDMDL
MODEL 8
REMARK VINA RESULT:      -6.6     24.628     28.566
REMARK  Name = 25389516
REMARK  8 active torsions:
REMARK  status: ('A' for Active; 'I' for Inactive)
REMARK    1  A    between atoms: O_2  and  C_36
REMARK    2  A    between atoms: O_2  and  C_37
REMARK    3  A    between atoms: N_4  and  C_19
REMARK    4  A    between atoms: N_5  and  C_16
REMARK    5  A    between atoms: N_7  and  C_26
REMARK    6  A    between atoms: C_9  and  C_15
REMARK    7  A    between atoms: C_10  and  C_16
REMARK    8  A    between atoms: C_18  and  C_21
REMARK                            x       y       z     vdW  Elec       q    Type
REMARK                         _______ _______ _______ _____ _____    ______ ____
ROOT
ATOM      3  N   UNL     1     -12.735  -9.254  16.892  0.00  0.00    -0.297 NA
ATOM      8  C   UNL     1     -12.191  -7.369  15.180  0.00  0.00    +0.002 C 
ATOM      9  C   UNL     1     -12.272  -8.745  14.465  0.00  0.00    +0.055 C 
ATOM     10  C   UNL     1     -11.605  -8.426  17.389  0.00  0.00    +0.074 C 
ATOM     11  C   UNL     1     -11.134  -7.437  16.302  0.00  0.00    +0.024 C 
ATOM     12  C   UNL     1     -13.558  -7.139  15.859  0.00  0.00    +0.019 C 
ATOM     13  C   UNL     1     -12.396  -9.834  15.569  0.00  0.00    +0.094 C 
ATOM     14  C   UNL     1     -13.909  -8.364  16.719  0.00  0.00    +0.085 C 
ENDROOT
BRANCH   9  15
ATOM      4  N   UNL     1     -11.388  -8.937  12.093  0.00  0.00    -0.270 N 
ATOM      6  N   UNL     1     -10.323  -9.292  11.355  0.00  0.00    -0.171 NA
ATOM     15  C   UNL     1     -11.202  -9.085  13.437  0.00  0.00    +0.044 A 
ATOM     17  C   UNL     1      -9.926  -9.571  13.588  0.00  0.00    +0.053 A 
ATOM     18  C   UNL     1      -9.433  -9.679  12.273  0.00  0.00    +0.093 A 
ATOM     19  C   UNL     1     -12.577  -8.456  11.429  0.00  0.00    +0.172 C 
BRANCH  18  21
ATOM     21  C   UNL     1      -8.130 -10.145  11.879  0.00  0.00    +0.003 A 
ATOM     22  C   UNL     1      -7.161  -9.233  11.459  0.00  0.00    +0.018 A 
ATOM     23  C   UNL     1      -7.835 -11.505  11.918  0.00  0.00    +0.011 A 
ATOM     24  C   UNL     1      -5.884  -9.670  11.071  0.00  0.00    -0.017 A 
ATOM     25  C   UNL     1      -6.572 -11.957  11.536  0.00  0.00    +0.009 A 
ATOM     27  C   UNL     1      -5.585 -11.053  11.110  0.00  0.00    -0.018 A 
ATOM     28  C   UNL     1      -4.897  -8.767  10.645  0.00  0.00    +0.008 A 
ATOM     29  C   UNL     1      -4.308 -11.492  10.723  0.00  0.00    +0.008 A 
ATOM     32  C   UNL     1      -3.634  -9.219  10.264  0.00  0.00    +0.001 A 
ATOM     33  C   UNL     1      -3.340 -10.579  10.302  0.00  0.00    +0.001 A 
ENDBRANCH  18  21
ENDBRANCH   9  15
BRANCH  10  16
ATOM     16  C   UNL     1     -10.452  -9.276  17.926  0.00  0.00    +0.124 C 
BRANCH  16   5
ATOM      1  O   UNL     1      -8.208 -10.999  17.474  0.00  0.00    -0.253 OA
ATOM      5  N   UNL     1      -9.220  -8.927  17.287  0.00  0.00    -0.298 N 
ATOM      7  N   UNL     1      -7.088  -9.208  16.450  0.00  0.00    -0.269 N 
ATOM     20  C   UNL     1      -8.158  -9.829  17.100  0.00  0.00    +0.304 C 
ATOM     38  H   UNL     1      -9.105  -7.974  16.956  0.00  0.00    +0.150 HD
ATOM     39  H   UNL     1      -7.209  -8.228  16.207  0.00  0.00    +0.156 HD
BRANCH   7  26
ATOM     26  C   UNL     1      -5.846  -9.777  16.083  0.00  0.00    +0.035 A 
ATOM     30  C   UNL     1      -4.885 -10.040  17.059  0.00  0.00    +0.027 A 
ATOM     31  C   UNL     1      -5.583 -10.077  14.747  0.00  0.00    +0.027 A 
ATOM     34  C   UNL     1      -3.660 -10.602  16.699  0.00  0.00    +0.047 A 
ATOM     35  C   UNL     1      -4.358 -10.638  14.386  0.00  0.00    +0.047 A 
ATOM     36  C   UNL     1      -3.396 -10.901  15.362  0.00  0.00    +0.120 A 
BRANCH  36   2
ATOM      2  O   UNL     1      -2.201 -11.449  15.011  0.00  0.00    -0.495 OA
ATOM     37  C   UNL     1      -1.027 -10.845  15.552  0.00  0.00    +0.277 C 
ENDBRANCH  36   2
ENDBRANCH   7  26
ENDBRANCH  16   5
ENDBRANCH  10  16
TORSDOF 6
ENDMDL
MODEL 9
REMARK VINA RESULT:      -6.5      2.206      7.638
REMARK  Name = 25389516
REMARK  8 active torsions:
REMARK  status: ('A' for Active; 'I' for Inactive)
REMARK    1  A    between atoms: O_2  and  C_36
REMARK    2  A    between atoms: O_2  and  C_37
REMARK    3  A    between atoms: N_4  and  C_19
REMARK    4  A    between atoms: N_5  and  C_16
REMARK    5  A    between atoms: N_7  and  C_26
REMARK    6  A    between atoms: C_9  and  C_15
REMARK    7  A    between atoms: C_10  and  C_16
REMARK    8  A    between atoms: C_18  and  C_21
REMARK                            x       y       z     vdW  Elec       q    Type
REMARK                         _______ _______ _______ _____ _____    ______ ____
ROOT
ATOM      3  N   UNL     1      13.416   8.147   6.908  0.00  0.00    -0.297 NA
ATOM      8  C   UNL     1      11.764   8.768   4.993  0.00  0.00    +0.002 C 
ATOM      9  C   UNL     1      11.535   7.303   5.455  0.00  0.00    +0.055 C 
ATOM     10  C   UNL     1      14.159   8.756   5.773  0.00  0.00    +0.074 C 
ATOM     11  C   UNL     1      13.232   8.940   4.552  0.00  0.00    +0.024 C 
ATOM     12  C   UNL     1      11.554   9.663   6.233  0.00  0.00    +0.019 C 
ATOM     13  C   UNL     1      12.679   6.945   6.446  0.00  0.00    +0.094 C 
ATOM     14  C   UNL     1      12.425   9.141   7.389  0.00  0.00    +0.085 C 
ENDROOT
BRANCH   9  15
ATOM      4  N   UNL     1      10.543   5.142   4.566  0.00  0.00    -0.270 N 
ATOM      6  N   UNL     1      10.505   4.319   3.506  0.00  0.00    -0.171 NA
ATOM     15  C   UNL     1      11.340   6.234   4.389  0.00  0.00    +0.044 A 
ATOM     17  C   UNL     1      11.860   6.117   3.123  0.00  0.00    +0.053 A 
ATOM     18  C   UNL     1      11.312   4.919   2.627  0.00  0.00    +0.093 A 
ATOM     19  C   UNL     1       9.774   4.811   5.744  0.00  0.00    +0.172 C 
BRANCH  18  21
ATOM     21  C   UNL     1      11.545   4.337   1.331  0.00  0.00    +0.003 A 
ATOM     22  C   UNL     1      10.821   4.785   0.225  0.00  0.00    +0.018 A 
ATOM     23  C   UNL     1      12.493   3.329   1.180  0.00  0.00    +0.011 A 
ATOM     24  C   UNL     1      11.036   4.229  -1.047  0.00  0.00    -0.017 A 
ATOM     25  C   UNL     1      12.720   2.765  -0.075  0.00  0.00    +0.009 A 
ATOM     27  C   UNL     1      12.000   3.204  -1.199  0.00  0.00    -0.018 A 
ATOM     28  C   UNL     1      10.317   4.668  -2.169  0.00  0.00    +0.008 A 
ATOM     29  C   UNL     1      12.216   2.647  -2.470  0.00  0.00    +0.008 A 
ATOM     32  C   UNL     1      10.544   4.104  -3.425  0.00  0.00    +0.001 A 
ATOM     33  C   UNL     1      11.492   3.095  -3.576  0.00  0.00    +0.001 A 
ENDBRANCH  18  21
ENDBRANCH   9  15
BRANCH  10  16
ATOM     16  C   UNL     1      15.423   7.973   5.417  0.00  0.00    +0.124 C 
BRANCH  16   5
ATOM      1  O   UNL     1      15.870   8.054   2.588  0.00  0.00    -0.253 OA
ATOM      5  N   UNL     1      15.133   6.936   4.475  0.00  0.00    -0.298 N 
ATOM      7  N   UNL     1      14.996   5.881   2.427  0.00  0.00    -0.269 N 
ATOM     20  C   UNL     1      15.380   7.047   3.095  0.00  0.00    +0.304 C 
ATOM     38  H   UNL     1      14.721   6.075   4.821  0.00  0.00    +0.150 HD
ATOM     39  H   UNL     1      14.605   5.137   2.997  0.00  0.00    +0.156 HD
BRANCH   7  26
ATOM     26  C   UNL     1      15.085   5.605   1.042  0.00  0.00    +0.035 A 
ATOM     30  C   UNL     1      15.888   4.557   0.590  0.00  0.00    +0.027 A 
ATOM     31  C   UNL     1      14.370   6.379   0.129  0.00  0.00    +0.027 A 
ATOM     34  C   UNL     1      15.975   4.284  -0.774  0.00  0.00    +0.047 A 
ATOM     35  C   UNL     1      14.457   6.106  -1.236  0.00  0.00    +0.047 A 
ATOM     36  C   UNL     1      15.260   5.058  -1.688  0.00  0.00    +0.120 A 
BRANCH  36   2
ATOM      2  O   UNL     1      15.345   4.791  -3.020  0.00  0.00    -0.495 OA
ATOM     37  C   UNL     1      14.362   5.385  -3.865  0.00  0.00    +0.277 C 
ENDBRANCH  36   2
ENDBRANCH   7  26
ENDBRANCH  16   5
ENDBRANCH  10  16
TORSDOF 6
ENDMDL
MODEL 10
REMARK VINA RESULT:      -6.5     26.357     30.583
REMARK  Name = 25389516
REMARK  8 active torsions:
REMARK  status: ('A' for Active; 'I' for Inactive)
REMARK    1  A    between atoms: O_2  and  C_36
REMARK    2  A    between atoms: O_2  and  C_37
REMARK    3  A    between atoms: N_4  and  C_19
REMARK    4  A    between atoms: N_5  and  C_16
REMARK    5  A    between atoms: N_7  and  C_26
REMARK    6  A    between atoms: C_9  and  C_15
REMARK    7  A    between atoms: C_10  and  C_16
REMARK    8  A    between atoms: C_18  and  C_21
REMARK                            x       y       z     vdW  Elec       q    Type
REMARK                         _______ _______ _______ _____ _____    ______ ____
ROOT
ATOM      3  N   UNL     1     -12.421 -12.131  18.869  0.00  0.00    -0.297 NA
ATOM      8  C   UNL     1     -10.866 -10.426  20.076  0.00  0.00    +0.002 C 
ATOM      9  C   UNL     1     -10.866 -10.172  18.544  0.00  0.00    +0.055 C 
ATOM     10  C   UNL     1     -11.496 -12.847  19.786  0.00  0.00    +0.074 C 
ATOM     11  C   UNL     1     -10.434 -11.881  20.352  0.00  0.00    +0.024 C 
ATOM     12  C   UNL     1     -12.329 -10.290  20.549  0.00  0.00    +0.019 C 
ATOM     13  C   UNL     1     -11.646 -11.342  17.880  0.00  0.00    +0.094 C 
ATOM     14  C   UNL     1     -13.228 -11.188  19.683  0.00  0.00    +0.085 C 
ENDROOT
BRANCH   9  15
ATOM      4  N   UNL     1      -9.273  -8.768  17.153  0.00  0.00    -0.270 N 
ATOM      6  N   UNL     1      -8.038  -8.725  16.627  0.00  0.00    -0.171 NA
ATOM     15  C   UNL     1      -9.533  -9.906  17.859  0.00  0.00    +0.044 A 
ATOM     17  C   UNL     1      -8.387 -10.660  17.790  0.00  0.00    +0.053 A 
ATOM     18  C   UNL     1      -7.501  -9.884  17.018  0.00  0.00    +0.093 A 
ATOM     19  C   UNL     1     -10.172  -7.659  16.933  0.00  0.00    +0.172 C 
BRANCH  18  21
ATOM     21  C   UNL     1      -6.154 -10.229  16.648  0.00  0.00    +0.003 A 
ATOM     22  C   UNL     1      -5.772 -10.207  15.306  0.00  0.00    +0.018 A 
ATOM     23  C   UNL     1      -5.231 -10.585  17.629  0.00  0.00    +0.011 A 
ATOM     24  C   UNL     1      -4.461 -10.540  14.928  0.00  0.00    -0.017 A 
ATOM     25  C   UNL     1      -3.925 -10.919  17.271  0.00  0.00    +0.009 A 
ATOM     27  C   UNL     1      -3.524 -10.902  15.925  0.00  0.00    -0.018 A 
ATOM     28  C   UNL     1      -4.059 -10.524  13.583  0.00  0.00    +0.008 A 
ATOM     29  C   UNL     1      -2.213 -11.235  15.548  0.00  0.00    +0.008 A 
ATOM     32  C   UNL     1      -2.753 -10.857  13.225  0.00  0.00    +0.001 A 
ATOM     33  C   UNL     1      -1.831 -11.213  14.205  0.00  0.00    +0.001 A 
ENDBRANCH  18  21
ENDBRANCH   9  15
BRANCH  10  16
ATOM     16  C   UNL     1     -10.860 -14.074  19.130  0.00  0.00    +0.124 C 
BRANCH  16   5
ATOM      1  O   UNL     1      -9.471 -14.593  16.679  0.00  0.00    -0.253 OA
ATOM      5  N   UNL     1      -9.471 -13.851  18.871  0.00  0.00    -0.298 N 
ATOM      7  N   UNL     1      -7.495 -13.814  17.679  0.00  0.00    -0.269 N 
ATOM     20  C   UNL     1      -8.855 -14.131  17.637  0.00  0.00    +0.304 C 
ATOM     38  H   UNL     1      -8.898 -13.476  19.619  0.00  0.00    +0.150 HD
ATOM     39  H   UNL     1      -7.141 -13.439  18.555  0.00  0.00    +0.156 HD
BRANCH   7  26
ATOM     26  C   UNL     1      -6.540 -13.950  16.645  0.00  0.00    +0.035 A 
ATOM     30  C   UNL     1      -6.888 -13.645  15.329  0.00  0.00    +0.027 A 
ATOM     31  C   UNL     1      -5.249 -14.389  16.940  0.00  0.00    +0.027 A 
ATOM     34  C   UNL     1      -5.947 -13.778  14.309  0.00  0.00    +0.047 A 
ATOM     35  C   UNL     1      -4.307 -14.523  15.920  0.00  0.00    +0.047 A 
ATOM     36  C   UNL     1      -4.656 -14.218  14.604  0.00  0.00    +0.120 A 
BRANCH  36   2
ATOM      2  O   UNL     1      -3.738 -14.348  13.608  0.00  0.00    -0.495 OA
ATOM     37  C   UNL     1      -4.208 -14.205  12.269  0.00  0.00    +0.277 C 
ENDBRANCH  36   2
ENDBRANCH   7  26
ENDBRANCH  16   5
ENDBRANCH  10  16
TORSDOF 6
ENDMDL
