MODEL 1
REMARK VINA RESULT:      -7.9      0.000      0.000
REMARK  Name = 40777592
REMARK  9 active torsions:
REMARK  status: ('A' for Active; 'I' for Inactive)
REMARK    1  A    between atoms: O_4  and  C_32
REMARK    2  A    between atoms: O_4  and  C_33
REMARK    3  A    between atoms: N_5  and  C_12
REMARK    4  A    between atoms: N_6  and  C_20
REMARK    5  A    between atoms: N_8  and  C_26
REMARK    6  A    between atoms: N_9  and  C_22
REMARK    7  A    between atoms: C_10  and  C_13
REMARK    8  A    between atoms: C_16  and  C_18
REMARK    9  A    between atoms: C_17  and  C_19
REMARK                            x       y       z     vdW  Elec       q    Type
REMARK                         _______ _______ _______ _____ _____    ______ ____
ROOT
ATOM     10  C   UNL     1      13.604   9.256  20.413  0.00  0.00    +0.047 C 
ATOM     11  C   UNL     1      13.934   7.847  20.946  0.00  0.00    +0.039 C 
ATOM     12  C   UNL     1      14.277   7.001  19.714  0.00  0.00    +0.098 C 
ATOM     14  C   UNL     1      13.253   8.983  18.979  0.00  0.00    -0.021 C 
ATOM     15  C   UNL     1      13.625   7.756  18.603  0.00  0.00    -0.009 C 
ENDROOT
BRANCH  10  13
ATOM      6  N   UNL     1      11.347  11.417  22.325  0.00  0.00    -0.234 N 
ATOM      7  N   UNL     1      10.560  10.327  22.308  0.00  0.00    -0.171 NA
ATOM     13  C   UNL     1      12.525   9.958  21.205  0.00  0.00    +0.003 A 
ATOM     16  C   UNL     1      12.536  11.248  21.678  0.00  0.00    +0.046 A 
ATOM     17  C   UNL     1      11.285   9.440  21.623  0.00  0.00    +0.064 A 
ATOM     18  C   UNL     1      13.557  12.309  21.569  0.00  0.00    +0.066 C 
ATOM     19  C   UNL     1      10.744   8.090  21.386  0.00  0.00    +0.068 C 
BRANCH   6  20
ATOM     20  C   UNL     1      10.912  12.575  22.970  0.00  0.00    +0.096 A 
ATOM     22  C   UNL     1      11.033  12.726  24.351  0.00  0.00    +0.151 A 
ATOM     23  C   UNL     1      10.345  13.594  22.204  0.00  0.00    +0.030 A 
ATOM     24  C   UNL     1      10.587  13.895  24.967  0.00  0.00    +0.035 A 
ATOM     25  C   UNL     1       9.897  14.763  22.821  0.00  0.00    +0.002 A 
ATOM     27  C   UNL     1      10.019  14.914  24.202  0.00  0.00    +0.002 A 
BRANCH  22   9
ATOM      2  O   UNL     1      10.872  10.777  25.575  0.00  0.00    -0.126 OA
ATOM      3  O   UNL     1      12.828  11.763  25.433  0.00  0.00    -0.126 OA
ATOM      9  N   UNL     1      11.607  11.704  25.161  0.00  0.00    +0.059 N 
ENDBRANCH  22   9
ENDBRANCH   6  20
ENDBRANCH  10  13
BRANCH  12   5
ATOM      1  O   UNL     1      16.286   6.066  21.530  0.00  0.00    -0.252 OA
ATOM      5  N   UNL     1      15.693   6.928  19.467  0.00  0.00    -0.293 N 
ATOM      8  N   UNL     1      17.913   6.500  19.895  0.00  0.00    -0.269 N 
ATOM     21  C   UNL     1      16.616   6.456  20.412  0.00  0.00    +0.304 C 
ATOM     34  H   UNL     1      16.054   7.276  18.584  0.00  0.00    +0.151 HD
ATOM     35  H   UNL     1      18.015   6.851  18.946  0.00  0.00    +0.156 HD
BRANCH   8  26
ATOM     26  C   UNL     1      19.115   6.113  20.531  0.00  0.00    +0.035 A 
ATOM     28  C   UNL     1      19.608   6.858  21.604  0.00  0.00    +0.027 A 
ATOM     29  C   UNL     1      19.808   4.986  20.088  0.00  0.00    +0.027 A 
ATOM     30  C   UNL     1      20.792   6.476  22.233  0.00  0.00    +0.047 A 
ATOM     31  C   UNL     1      20.993   4.604  20.717  0.00  0.00    +0.047 A 
ATOM     32  C   UNL     1      21.486   5.349  21.789  0.00  0.00    +0.120 A 
BRANCH  32   4
ATOM      4  O   UNL     1      22.641   4.976  22.404  0.00  0.00    -0.495 OA
ATOM     33  C   UNL     1      22.614   3.766  23.160  0.00  0.00    +0.277 C 
ENDBRANCH  32   4
ENDBRANCH   8  26
ENDBRANCH  12   5
TORSDOF 6
ENDMDL
MODEL 2
REMARK VINA RESULT:      -7.7     25.881     29.571
REMARK  Name = 40777592
REMARK  9 active torsions:
REMARK  status: ('A' for Active; 'I' for Inactive)
REMARK    1  A    between atoms: O_4  and  C_32
REMARK    2  A    between atoms: O_4  and  C_33
REMARK    3  A    between atoms: N_5  and  C_12
REMARK    4  A    between atoms: N_6  and  C_20
REMARK    5  A    between atoms: N_8  and  C_26
REMARK    6  A    between atoms: N_9  and  C_22
REMARK    7  A    between atoms: C_10  and  C_13
REMARK    8  A    between atoms: C_16  and  C_18
REMARK    9  A    between atoms: C_17  and  C_19
REMARK                            x       y       z     vdW  Elec       q    Type
REMARK                         _______ _______ _______ _____ _____    ______ ____
ROOT
ATOM     10  C   UNL     1      16.392  -4.341  -3.135  0.00  0.00    +0.047 C 
ATOM     11  C   UNL     1      17.878  -4.755  -3.120  0.00  0.00    +0.039 C 
ATOM     12  C   UNL     1      18.593  -3.722  -2.242  0.00  0.00    +0.098 C 
ATOM     14  C   UNL     1      16.460  -2.889  -2.763  0.00  0.00    -0.021 C 
ATOM     15  C   UNL     1      17.659  -2.557  -2.273  0.00  0.00    -0.009 C 
ENDROOT
BRANCH  10  13
ATOM      6  N   UNL     1      14.306  -5.265  -6.001  0.00  0.00    -0.234 N 
ATOM      7  N   UNL     1      15.306  -4.700  -6.699  0.00  0.00    -0.171 NA
ATOM     13  C   UNL     1      15.705  -4.624  -4.451  0.00  0.00    +0.003 A 
ATOM     16  C   UNL     1      14.496  -5.246  -4.651  0.00  0.00    +0.046 A 
ATOM     17  C   UNL     1      16.158  -4.311  -5.747  0.00  0.00    +0.064 A 
ATOM     18  C   UNL     1      13.529  -5.808  -3.688  0.00  0.00    +0.066 C 
ATOM     19  C   UNL     1      17.408  -3.631  -6.127  0.00  0.00    +0.068 C 
BRANCH   6  20
ATOM     20  C   UNL     1      13.208  -5.801  -6.676  0.00  0.00    +0.096 A 
ATOM     22  C   UNL     1      13.144  -7.158  -6.995  0.00  0.00    +0.151 A 
ATOM     23  C   UNL     1      12.162  -4.950  -7.034  0.00  0.00    +0.030 A 
ATOM     24  C   UNL     1      12.034  -7.663  -7.671  0.00  0.00    +0.035 A 
ATOM     25  C   UNL     1      11.053  -5.456  -7.712  0.00  0.00    +0.002 A 
ATOM     27  C   UNL     1      10.988  -6.812  -8.030  0.00  0.00    +0.002 A 
BRANCH  22   9
ATOM      2  O   UNL     1      14.083  -8.736  -5.600  0.00  0.00    -0.126 OA
ATOM      3  O   UNL     1      15.199  -8.126  -7.389  0.00  0.00    -0.126 OA
ATOM      9  N   UNL     1      14.196  -8.052  -6.644  0.00  0.00    +0.059 N 
ENDBRANCH  22   9
ENDBRANCH   6  20
ENDBRANCH  10  13
BRANCH  12   5
ATOM      1  O   UNL     1      20.880  -5.036  -1.124  0.00  0.00    -0.252 OA
ATOM      5  N   UNL     1      18.752  -4.163  -0.882  0.00  0.00    -0.293 N 
ATOM      8  N   UNL     1      19.776  -5.114   0.947  0.00  0.00    -0.269 N 
ATOM     21  C   UNL     1      19.907  -4.802  -0.410  0.00  0.00    +0.304 C 
ATOM     34  H   UNL     1      17.974  -4.051  -0.238  0.00  0.00    +0.151 HD
ATOM     35  H   UNL     1      18.902  -4.849   1.393  0.00  0.00    +0.156 HD
BRANCH   8  26
ATOM     26  C   UNL     1      20.717  -5.757   1.784  0.00  0.00    +0.035 A 
ATOM     28  C   UNL     1      20.680  -7.144   1.938  0.00  0.00    +0.027 A 
ATOM     29  C   UNL     1      21.681  -5.007   2.456  0.00  0.00    +0.027 A 
ATOM     30  C   UNL     1      21.608  -7.779   2.763  0.00  0.00    +0.047 A 
ATOM     31  C   UNL     1      22.609  -5.642   3.281  0.00  0.00    +0.047 A 
ATOM     32  C   UNL     1      22.573  -7.028   3.435  0.00  0.00    +0.120 A 
BRANCH  32   4
ATOM      4  O   UNL     1      23.479  -7.648   4.240  0.00  0.00    -0.495 OA
ATOM     33  C   UNL     1      22.978  -8.635   5.141  0.00  0.00    +0.277 C 
ENDBRANCH  32   4
ENDBRANCH   8  26
ENDBRANCH  12   5
TORSDOF 6
ENDMDL
MODEL 3
REMARK VINA RESULT:      -7.2      3.891      6.433
REMARK  Name = 40777592
REMARK  9 active torsions:
REMARK  status: ('A' for Active; 'I' for Inactive)
REMARK    1  A    between atoms: O_4  and  C_32
REMARK    2  A    between atoms: O_4  and  C_33
REMARK    3  A    between atoms: N_5  and  C_12
REMARK    4  A    between atoms: N_6  and  C_20
REMARK    5  A    between atoms: N_8  and  C_26
REMARK    6  A    between atoms: N_9  and  C_22
REMARK    7  A    between atoms: C_10  and  C_13
REMARK    8  A    between atoms: C_16  and  C_18
REMARK    9  A    between atoms: C_17  and  C_19
REMARK                            x       y       z     vdW  Elec       q    Type
REMARK                         _______ _______ _______ _____ _____    ______ ____
ROOT
ATOM     10  C   UNL     1      18.356   7.149  21.445  0.00  0.00    +0.047 C 
ATOM     11  C   UNL     1      19.144   6.389  20.358  0.00  0.00    +0.039 C 
ATOM     12  C   UNL     1      20.600   6.360  20.838  0.00  0.00    +0.098 C 
ATOM     14  C   UNL     1      19.434   7.935  22.133  0.00  0.00    -0.021 C 
ATOM     15  C   UNL     1      20.654   7.499  21.802  0.00  0.00    -0.009 C 
ENDROOT
BRANCH  10  13
ATOM      6  N   UNL     1      15.409   8.664  19.882  0.00  0.00    -0.234 N 
ATOM      7  N   UNL     1      15.915   9.791  20.412  0.00  0.00    -0.171 NA
ATOM     13  C   UNL     1      17.223   7.981  20.890  0.00  0.00    +0.003 A 
ATOM     16  C   UNL     1      16.156   7.551  20.140  0.00  0.00    +0.046 A 
ATOM     17  C   UNL     1      17.022   9.368  21.027  0.00  0.00    +0.064 A 
ATOM     18  C   UNL     1      15.793   6.203  19.659  0.00  0.00    +0.066 C 
ATOM     19  C   UNL     1      17.870  10.337  21.743  0.00  0.00    +0.068 C 
BRANCH   6  20
ATOM     20  C   UNL     1      14.224   8.715  19.148  0.00  0.00    +0.096 A 
ATOM     22  C   UNL     1      12.989   8.469  19.746  0.00  0.00    +0.151 A 
ATOM     23  C   UNL     1      14.293   9.018  17.788  0.00  0.00    +0.030 A 
ATOM     24  C   UNL     1      11.822   8.525  18.984  0.00  0.00    +0.035 A 
ATOM     25  C   UNL     1      13.125   9.074  17.027  0.00  0.00    +0.002 A 
ATOM     27  C   UNL     1      11.890   8.828  17.624  0.00  0.00    +0.002 A 
BRANCH  22   9
ATOM      2  O   UNL     1      12.808   6.953  21.475  0.00  0.00    -0.126 OA
ATOM      3  O   UNL     1      12.876   9.093  21.963  0.00  0.00    -0.126 OA
ATOM      9  N   UNL     1      12.885   8.156  21.132  0.00  0.00    +0.059 N 
ENDBRANCH  22   9
ENDBRANCH   6  20
ENDBRANCH  10  13
BRANCH  12   5
ATOM      1  O   UNL     1      23.137   5.029  20.831  0.00  0.00    -0.252 OA
ATOM      5  N   UNL     1      20.934   5.143  21.528  0.00  0.00    -0.293 N 
ATOM      8  N   UNL     1      22.235   3.382  22.239  0.00  0.00    -0.269 N 
ATOM     21  C   UNL     1      22.205   4.551  21.474  0.00  0.00    +0.304 C 
ATOM     34  H   UNL     1      20.206   4.657  22.043  0.00  0.00    +0.151 HD
ATOM     35  H   UNL     1      21.373   3.124  22.712  0.00  0.00    +0.156 HD
BRANCH   8  26
ATOM     26  C   UNL     1      23.324   2.503  22.439  0.00  0.00    +0.035 A 
ATOM     28  C   UNL     1      23.944   2.434  23.688  0.00  0.00    +0.027 A 
ATOM     29  C   UNL     1      23.780   1.705  21.390  0.00  0.00    +0.027 A 
ATOM     30  C   UNL     1      25.019   1.567  23.886  0.00  0.00    +0.047 A 
ATOM     31  C   UNL     1      24.854   0.838  21.589  0.00  0.00    +0.047 A 
ATOM     32  C   UNL     1      25.474   0.769  22.836  0.00  0.00    +0.120 A 
BRANCH  32   4
ATOM      4  O   UNL     1      26.522  -0.077  23.031  0.00  0.00    -0.495 OA
ATOM     33  C   UNL     1      26.486  -1.325  22.339  0.00  0.00    +0.277 C 
ENDBRANCH  32   4
ENDBRANCH   8  26
ENDBRANCH  12   5
TORSDOF 6
ENDMDL
MODEL 4
REMARK VINA RESULT:      -7.1      4.074      6.523
REMARK  Name = 40777592
REMARK  9 active torsions:
REMARK  status: ('A' for Active; 'I' for Inactive)
REMARK    1  A    between atoms: O_4  and  C_32
REMARK    2  A    between atoms: O_4  and  C_33
REMARK    3  A    between atoms: N_5  and  C_12
REMARK    4  A    between atoms: N_6  and  C_20
REMARK    5  A    between atoms: N_8  and  C_26
REMARK    6  A    between atoms: N_9  and  C_22
REMARK    7  A    between atoms: C_10  and  C_13
REMARK    8  A    between atoms: C_16  and  C_18
REMARK    9  A    between atoms: C_17  and  C_19
REMARK                            x       y       z     vdW  Elec       q    Type
REMARK                         _______ _______ _______ _____ _____    ______ ____
ROOT
ATOM     10  C   UNL     1      18.233   6.639  21.287  0.00  0.00    +0.047 C 
ATOM     11  C   UNL     1      19.253   5.728  20.572  0.00  0.00    +0.039 C 
ATOM     12  C   UNL     1      20.629   6.352  20.834  0.00  0.00    +0.098 C 
ATOM     14  C   UNL     1      18.988   7.930  21.410  0.00  0.00    -0.021 C 
ATOM     15  C   UNL     1      20.293   7.768  21.167  0.00  0.00    -0.009 C 
ENDROOT
BRANCH  10  13
ATOM      6  N   UNL     1      14.859   7.211  19.980  0.00  0.00    -0.234 N 
ATOM      7  N   UNL     1      15.318   6.485  18.945  0.00  0.00    -0.171 NA
ATOM     13  C   UNL     1      16.914   6.745  20.558  0.00  0.00    +0.003 A 
ATOM     16  C   UNL     1      15.776   7.395  20.973  0.00  0.00    +0.046 A 
ATOM     17  C   UNL     1      16.573   6.204  19.304  0.00  0.00    +0.064 A 
ATOM     18  C   UNL     1      15.495   8.160  22.204  0.00  0.00    +0.066 C 
ATOM     19  C   UNL     1      17.423   5.406  18.404  0.00  0.00    +0.068 C 
BRANCH   6  20
ATOM     20  C   UNL     1      13.550   7.693  19.961  0.00  0.00    +0.096 A 
ATOM     22  C   UNL     1      13.218   8.864  19.280  0.00  0.00    +0.151 A 
ATOM     23  C   UNL     1      12.565   6.979  20.643  0.00  0.00    +0.030 A 
ATOM     24  C   UNL     1      11.900   9.321  19.282  0.00  0.00    +0.035 A 
ATOM     25  C   UNL     1      11.247   7.437  20.645  0.00  0.00    +0.002 A 
ATOM     27  C   UNL     1      10.914   8.608  19.964  0.00  0.00    +0.002 A 
BRANCH  22   9
ATOM      2  O   UNL     1      14.847  10.494  19.192  0.00  0.00    -0.126 OA
ATOM      3  O   UNL     1      14.389   9.374  17.360  0.00  0.00    -0.126 OA
ATOM      9  N   UNL     1      14.201   9.615  18.575  0.00  0.00    +0.059 N 
ENDBRANCH  22   9
ENDBRANCH   6  20
ENDBRANCH  10  13
BRANCH  12   5
ATOM      1  O   UNL     1      21.754   3.719  20.944  0.00  0.00    -0.252 OA
ATOM      5  N   UNL     1      21.308   5.753  21.952  0.00  0.00    -0.293 N 
ATOM      8  N   UNL     1      22.434   4.143  23.151  0.00  0.00    -0.269 N 
ATOM     21  C   UNL     1      21.833   4.453  21.928  0.00  0.00    +0.304 C 
ATOM     34  H   UNL     1      21.373   6.275  22.821  0.00  0.00    +0.151 HD
ATOM     35  H   UNL     1      22.413   4.866  23.865  0.00  0.00    +0.156 HD
BRANCH   8  26
ATOM     26  C   UNL     1      23.073   2.938  23.524  0.00  0.00    +0.035 A 
ATOM     28  C   UNL     1      24.338   2.635  23.018  0.00  0.00    +0.027 A 
ATOM     29  C   UNL     1      22.441   2.053  24.397  0.00  0.00    +0.027 A 
ATOM     30  C   UNL     1      24.970   1.447  23.386  0.00  0.00    +0.047 A 
ATOM     31  C   UNL     1      23.072   0.866  24.765  0.00  0.00    +0.047 A 
ATOM     32  C   UNL     1      24.337   0.561  24.260  0.00  0.00    +0.120 A 
BRANCH  32   4
ATOM      4  O   UNL     1      24.954  -0.597  24.619  0.00  0.00    -0.495 OA
ATOM     33  C   UNL     1      25.174  -0.810  26.013  0.00  0.00    +0.277 C 
ENDBRANCH  32   4
ENDBRANCH   8  26
ENDBRANCH  12   5
TORSDOF 6
ENDMDL
MODEL 5
REMARK VINA RESULT:      -6.9     28.317     31.214
REMARK  Name = 40777592
REMARK  9 active torsions:
REMARK  status: ('A' for Active; 'I' for Inactive)
REMARK    1  A    between atoms: O_4  and  C_32
REMARK    2  A    between atoms: O_4  and  C_33
REMARK    3  A    between atoms: N_5  and  C_12
REMARK    4  A    between atoms: N_6  and  C_20
REMARK    5  A    between atoms: N_8  and  C_26
REMARK    6  A    between atoms: N_9  and  C_22
REMARK    7  A    between atoms: C_10  and  C_13
REMARK    8  A    between atoms: C_16  and  C_18
REMARK    9  A    between atoms: C_17  and  C_19
REMARK                            x       y       z     vdW  Elec       q    Type
REMARK                         _______ _______ _______ _____ _____    ______ ____
ROOT
ATOM     10  C   UNL     1      -4.606  -9.715  10.315  0.00  0.00    +0.047 C 
ATOM     11  C   UNL     1      -4.447 -11.007  11.144  0.00  0.00    +0.039 C 
ATOM     12  C   UNL     1      -3.123 -10.859  11.903  0.00  0.00    +0.098 C 
ATOM     14  C   UNL     1      -3.193  -9.216  10.225  0.00  0.00    -0.021 C 
ATOM     15  C   UNL     1      -2.391  -9.839  11.094  0.00  0.00    -0.009 C 
ENDROOT
BRANCH  10  13
ATOM      6  N   UNL     1      -6.548  -9.777   7.209  0.00  0.00    -0.234 N 
ATOM      7  N   UNL     1      -5.817 -10.880   6.970  0.00  0.00    -0.171 NA
ATOM     13  C   UNL     1      -5.282  -9.939   8.982  0.00  0.00    +0.003 A 
ATOM     16  C   UNL     1      -6.266  -9.177   8.401  0.00  0.00    +0.046 A 
ATOM     17  C   UNL     1      -5.046 -10.974   8.056  0.00  0.00    +0.064 A 
ATOM     18  C   UNL     1      -6.944  -7.953   8.872  0.00  0.00    +0.066 C 
ATOM     19  C   UNL     1      -4.083 -12.083   8.168  0.00  0.00    +0.068 C 
BRANCH   6  20
ATOM     20  C   UNL     1      -7.490  -9.354   6.271  0.00  0.00    +0.096 A 
ATOM     22  C   UNL     1      -8.815  -9.785   6.328  0.00  0.00    +0.151 A 
ATOM     23  C   UNL     1      -7.082  -8.484   5.259  0.00  0.00    +0.030 A 
ATOM     24  C   UNL     1      -9.733  -9.346   5.374  0.00  0.00    +0.035 A 
ATOM     25  C   UNL     1      -8.001  -8.047   4.305  0.00  0.00    +0.002 A 
ATOM     27  C   UNL     1      -9.326  -8.477   4.362  0.00  0.00    +0.002 A 
BRANCH  22   9
ATOM      2  O   UNL     1      -9.223 -11.907   7.133  0.00  0.00    -0.126 OA
ATOM      3  O   UNL     1      -9.680 -10.193   8.427  0.00  0.00    -0.126 OA
ATOM      9  N   UNL     1      -9.262 -10.673   7.348  0.00  0.00    +0.059 N 
ENDBRANCH  22   9
ENDBRANCH   6  20
ENDBRANCH  10  13
BRANCH  12   5
ATOM      1  O   UNL     1      -4.692 -12.056  13.980  0.00  0.00    -0.252 OA
ATOM      5  N   UNL     1      -3.301 -10.362  13.240  0.00  0.00    -0.293 N 
ATOM      8  N   UNL     1      -4.076 -10.297  15.407  0.00  0.00    -0.269 N 
ATOM     21  C   UNL     1      -4.089 -11.008  14.204  0.00  0.00    +0.304 C 
ATOM     34  H   UNL     1      -2.876  -9.474  13.493  0.00  0.00    +0.151 HD
ATOM     35  H   UNL     1      -3.523  -9.444  15.426  0.00  0.00    +0.156 HD
BRANCH   8  26
ATOM     26  C   UNL     1      -4.741 -10.618  16.613  0.00  0.00    +0.035 A 
ATOM     28  C   UNL     1      -4.090 -11.374  17.589  0.00  0.00    +0.027 A 
ATOM     29  C   UNL     1      -6.047 -10.179  16.828  0.00  0.00    +0.027 A 
ATOM     30  C   UNL     1      -4.745 -11.690  18.779  0.00  0.00    +0.047 A 
ATOM     31  C   UNL     1      -6.702 -10.495  18.018  0.00  0.00    +0.047 A 
ATOM     32  C   UNL     1      -6.052 -11.251  18.993  0.00  0.00    +0.120 A 
BRANCH  32   4
ATOM      4  O   UNL     1      -6.690 -11.559  20.155  0.00  0.00    -0.495 OA
ATOM     33  C   UNL     1      -7.719 -12.546  20.088  0.00  0.00    +0.277 C 
ENDBRANCH  32   4
ENDBRANCH   8  26
ENDBRANCH  12   5
TORSDOF 6
ENDMDL
MODEL 6
REMARK VINA RESULT:      -6.9     26.623     30.032
REMARK  Name = 40777592
REMARK  9 active torsions:
REMARK  status: ('A' for Active; 'I' for Inactive)
REMARK    1  A    between atoms: O_4  and  C_32
REMARK    2  A    between atoms: O_4  and  C_33
REMARK    3  A    between atoms: N_5  and  C_12
REMARK    4  A    between atoms: N_6  and  C_20
REMARK    5  A    between atoms: N_8  and  C_26
REMARK    6  A    between atoms: N_9  and  C_22
REMARK    7  A    between atoms: C_10  and  C_13
REMARK    8  A    between atoms: C_16  and  C_18
REMARK    9  A    between atoms: C_17  and  C_19
REMARK                            x       y       z     vdW  Elec       q    Type
REMARK                         _______ _______ _______ _____ _____    ______ ____
ROOT
ATOM     10  C   UNL     1     -14.459   7.128  22.401  0.00  0.00    +0.047 C 
ATOM     11  C   UNL     1     -15.930   6.694  22.566  0.00  0.00    +0.039 C 
ATOM     12  C   UNL     1     -15.889   5.220  22.989  0.00  0.00    +0.098 C 
ATOM     14  C   UNL     1     -13.758   5.815  22.198  0.00  0.00    -0.021 C 
ATOM     15  C   UNL     1     -14.539   4.780  22.523  0.00  0.00    -0.009 C 
ENDROOT
BRANCH  10  13
ATOM      6  N   UNL     1     -13.631   9.850  20.094  0.00  0.00    -0.234 N 
ATOM      7  N   UNL     1     -14.395   9.140  19.246  0.00  0.00    -0.171 NA
ATOM     13  C   UNL     1     -14.253   8.132  21.290  0.00  0.00    +0.003 A 
ATOM     16  C   UNL     1     -13.514   9.289  21.332  0.00  0.00    +0.046 A 
ATOM     17  C   UNL     1     -14.772   8.092  19.982  0.00  0.00    +0.064 A 
ATOM     18  C   UNL     1     -12.723   9.892  22.423  0.00  0.00    +0.066 C 
ATOM     19  C   UNL     1     -15.639   7.061  19.385  0.00  0.00    +0.068 C 
BRANCH   6  20
ATOM     20  C   UNL     1     -13.048  11.044  19.667  0.00  0.00    +0.096 A 
ATOM     22  C   UNL     1     -11.807  11.058  19.031  0.00  0.00    +0.151 A 
ATOM     23  C   UNL     1     -13.732  12.239  19.889  0.00  0.00    +0.030 A 
ATOM     24  C   UNL     1     -11.250  12.268  18.617  0.00  0.00    +0.035 A 
ATOM     25  C   UNL     1     -13.173  13.449  19.476  0.00  0.00    +0.002 A 
ATOM     27  C   UNL     1     -11.933  13.464  18.839  0.00  0.00    +0.002 A 
BRANCH  22   9
ATOM      2  O   UNL     1     -10.269   9.457  19.654  0.00  0.00    -0.126 OA
ATOM      3  O   UNL     1     -11.285   9.233  17.722  0.00  0.00    -0.126 OA
ATOM      9  N   UNL     1     -11.084   9.855  18.790  0.00  0.00    +0.059 N 
ENDBRANCH  22   9
ENDBRANCH   6  20
ENDBRANCH  10  13
BRANCH  12   5
ATOM      1  O   UNL     1     -15.900   2.735  24.414  0.00  0.00    -0.252 OA
ATOM      5  N   UNL     1     -15.975   5.048  24.414  0.00  0.00    -0.293 N 
ATOM      8  N   UNL     1     -16.069   3.934  26.426  0.00  0.00    -0.269 N 
ATOM     21  C   UNL     1     -15.975   3.792  25.039  0.00  0.00    +0.304 C 
ATOM     34  H   UNL     1     -16.090   5.869  25.000  0.00  0.00    +0.151 HD
ATOM     35  H   UNL     1     -16.123   4.883  26.785  0.00  0.00    +0.156 HD
BRANCH   8  26
ATOM     26  C   UNL     1     -16.099   2.912  27.403  0.00  0.00    +0.035 A 
ATOM     28  C   UNL     1     -15.311   3.020  28.550  0.00  0.00    +0.027 A 
ATOM     29  C   UNL     1     -16.916   1.796  27.221  0.00  0.00    +0.027 A 
ATOM     30  C   UNL     1     -15.341   2.013  29.514  0.00  0.00    +0.047 A 
ATOM     31  C   UNL     1     -16.945   0.789  28.186  0.00  0.00    +0.047 A 
ATOM     32  C   UNL     1     -16.158   0.896  29.332  0.00  0.00    +0.120 A 
BRANCH  32   4
ATOM      4  O   UNL     1     -16.187  -0.085  30.274  0.00  0.00    -0.495 OA
ATOM     33  C   UNL     1     -14.957  -0.394  30.928  0.00  0.00    +0.277 C 
ENDBRANCH  32   4
ENDBRANCH   8  26
ENDBRANCH  12   5
TORSDOF 6
ENDMDL
MODEL 7
REMARK VINA RESULT:      -6.7     23.812     27.388
REMARK  Name = 40777592
REMARK  9 active torsions:
REMARK  status: ('A' for Active; 'I' for Inactive)
REMARK    1  A    between atoms: O_4  and  C_32
REMARK    2  A    between atoms: O_4  and  C_33
REMARK    3  A    between atoms: N_5  and  C_12
REMARK    4  A    between atoms: N_6  and  C_20
REMARK    5  A    between atoms: N_8  and  C_26
REMARK    6  A    between atoms: N_9  and  C_22
REMARK    7  A    between atoms: C_10  and  C_13
REMARK    8  A    between atoms: C_16  and  C_18
REMARK    9  A    between atoms: C_17  and  C_19
REMARK                            x       y       z     vdW  Elec       q    Type
REMARK                         _______ _______ _______ _____ _____    ______ ____
ROOT
ATOM     10  C   UNL     1      -2.488   7.568  38.597  0.00  0.00    +0.047 C 
ATOM     11  C   UNL     1      -3.623   8.466  39.131  0.00  0.00    +0.039 C 
ATOM     12  C   UNL     1      -4.170   9.221  37.914  0.00  0.00    +0.098 C 
ATOM     14  C   UNL     1      -2.117   8.250  37.312  0.00  0.00    -0.021 C 
ATOM     15  C   UNL     1      -3.038   9.146  36.942  0.00  0.00    -0.009 C 
ENDROOT
BRANCH  10  13
ATOM      6  N   UNL     1       0.186   6.591  40.903  0.00  0.00    -0.234 N 
ATOM      7  N   UNL     1       0.353   7.920  41.009  0.00  0.00    -0.171 NA
ATOM     13  C   UNL     1      -1.347   7.401  39.575  0.00  0.00    +0.003 A 
ATOM     16  C   UNL     1      -0.821   6.228  40.056  0.00  0.00    +0.046 A 
ATOM     17  C   UNL     1      -0.586   8.410  40.195  0.00  0.00    +0.064 A 
ATOM     18  C   UNL     1      -1.183   4.822  39.785  0.00  0.00    +0.066 C 
ATOM     19  C   UNL     1      -0.720   9.868  40.038  0.00  0.00    +0.068 C 
BRANCH   6  20
ATOM     20  C   UNL     1       1.009   5.730  41.629  0.00  0.00    +0.096 A 
ATOM     22  C   UNL     1       0.621   5.233  42.874  0.00  0.00    +0.151 A 
ATOM     23  C   UNL     1       2.243   5.369  41.088  0.00  0.00    +0.030 A 
ATOM     24  C   UNL     1       1.467   4.376  43.577  0.00  0.00    +0.035 A 
ATOM     25  C   UNL     1       3.089   4.512  41.792  0.00  0.00    +0.002 A 
ATOM     27  C   UNL     1       2.701   4.015  43.036  0.00  0.00    +0.002 A 
BRANCH  22   9
ATOM      2  O   UNL     1      -0.723   6.660  44.088  0.00  0.00    -0.126 OA
ATOM      3  O   UNL     1      -1.602   4.805  43.311  0.00  0.00    -0.126 OA
ATOM      9  N   UNL     1      -0.632   5.583  43.454  0.00  0.00    +0.059 N 
ENDBRANCH  22   9
ENDBRANCH   6  20
ENDBRANCH  10  13
BRANCH  12   5
ATOM      1  O   UNL     1      -6.856  10.217  37.940  0.00  0.00    -0.252 OA
ATOM      5  N   UNL     1      -5.327   8.588  37.340  0.00  0.00    -0.293 N 
ATOM      8  N   UNL     1      -7.535   8.307  36.756  0.00  0.00    -0.269 N 
ATOM     21  C   UNL     1      -6.614   9.141  37.395  0.00  0.00    +0.304 C 
ATOM     34  H   UNL     1      -5.222   7.672  36.913  0.00  0.00    +0.151 HD
ATOM     35  H   UNL     1      -7.170   7.448  36.353  0.00  0.00    +0.156 HD
BRANCH   8  26
ATOM     26  C   UNL     1      -8.926   8.509  36.597  0.00  0.00    +0.035 A 
ATOM     28  C   UNL     1      -9.830   7.764  37.355  0.00  0.00    +0.027 A 
ATOM     29  C   UNL     1      -9.394   9.453  35.684  0.00  0.00    +0.027 A 
ATOM     30  C   UNL     1     -11.202   7.964  37.199  0.00  0.00    +0.047 A 
ATOM     31  C   UNL     1     -10.765   9.653  35.528  0.00  0.00    +0.047 A 
ATOM     32  C   UNL     1     -11.670   8.909  36.285  0.00  0.00    +0.120 A 
BRANCH  32   4
ATOM      4  O   UNL     1     -13.008   9.104  36.134  0.00  0.00    -0.495 OA
ATOM     33  C   UNL     1     -13.471   9.444  34.828  0.00  0.00    +0.277 C 
ENDBRANCH  32   4
ENDBRANCH   8  26
ENDBRANCH  12   5
TORSDOF 6
ENDMDL
MODEL 8
REMARK VINA RESULT:      -6.7     26.692     29.791
REMARK  Name = 40777592
REMARK  9 active torsions:
REMARK  status: ('A' for Active; 'I' for Inactive)
REMARK    1  A    between atoms: O_4  and  C_32
REMARK    2  A    between atoms: O_4  and  C_33
REMARK    3  A    between atoms: N_5  and  C_12
REMARK    4  A    between atoms: N_6  and  C_20
REMARK    5  A    between atoms: N_8  and  C_26
REMARK    6  A    between atoms: N_9  and  C_22
REMARK    7  A    between atoms: C_10  and  C_13
REMARK    8  A    between atoms: C_16  and  C_18
REMARK    9  A    between atoms: C_17  and  C_19
REMARK                            x       y       z     vdW  Elec       q    Type
REMARK                         _______ _______ _______ _____ _____    ______ ____
ROOT
ATOM     10  C   UNL     1     -12.895   8.274  21.206  0.00  0.00    +0.047 C 
ATOM     11  C   UNL     1     -14.183   7.441  21.045  0.00  0.00    +0.039 C 
ATOM     12  C   UNL     1     -13.794   5.996  21.378  0.00  0.00    +0.098 C 
ATOM     14  C   UNL     1     -11.821   7.233  21.070  0.00  0.00    -0.021 C 
ATOM     15  C   UNL     1     -12.315   5.995  21.168  0.00  0.00    -0.009 C 
ENDROOT
BRANCH  10  13
ATOM      6  N   UNL     1     -12.704  10.633  18.410  0.00  0.00    -0.234 N 
ATOM      7  N   UNL     1     -12.594  11.537  19.398  0.00  0.00    -0.171 NA
ATOM     13  C   UNL     1     -12.795   9.416  20.222  0.00  0.00    +0.003 A 
ATOM     16  C   UNL     1     -12.826   9.348  18.850  0.00  0.00    +0.046 A 
ATOM     17  C   UNL     1     -12.650  10.788  20.503  0.00  0.00    +0.064 A 
ATOM     18  C   UNL     1     -12.962   8.190  17.943  0.00  0.00    +0.066 C 
ATOM     19  C   UNL     1     -12.562  11.435  21.823  0.00  0.00    +0.068 C 
BRANCH   6  20
ATOM     20  C   UNL     1     -12.684  11.055  17.080  0.00  0.00    +0.096 A 
ATOM     22  C   UNL     1     -11.489  11.151  16.367  0.00  0.00    +0.151 A 
ATOM     23  C   UNL     1     -13.892  11.387  16.465  0.00  0.00    +0.030 A 
ATOM     24  C   UNL     1     -11.502  11.579  15.040  0.00  0.00    +0.035 A 
ATOM     25  C   UNL     1     -13.903  11.815  15.138  0.00  0.00    +0.002 A 
ATOM     27  C   UNL     1     -12.709  11.911  14.425  0.00  0.00    +0.002 A 
BRANCH  22   9
ATOM      2  O   UNL     1      -9.822   9.642  16.880  0.00  0.00    -0.126 OA
ATOM      3  O   UNL     1      -9.599  11.718  17.560  0.00  0.00    -0.126 OA
ATOM      9  N   UNL     1     -10.240  10.821  16.967  0.00  0.00    +0.059 N 
ENDBRANCH  22   9
ENDBRANCH   6  20
ENDBRANCH  10  13
BRANCH  12   5
ATOM      1  O   UNL     1     -15.935   4.336  22.310  0.00  0.00    -0.252 OA
ATOM      5  N   UNL     1     -14.077   5.644  22.744  0.00  0.00    -0.293 N 
ATOM      8  N   UNL     1     -15.176   4.655  24.508  0.00  0.00    -0.269 N 
ATOM     21  C   UNL     1     -15.150   4.822  23.121  0.00  0.00    +0.304 C 
ATOM     34  H   UNL     1     -13.504   6.044  23.481  0.00  0.00    +0.151 HD
ATOM     35  H   UNL     1     -14.449   5.128  25.038  0.00  0.00    +0.156 HD
BRANCH   8  26
ATOM     26  C   UNL     1     -16.095   3.903  25.275  0.00  0.00    +0.035 A 
ATOM     28  C   UNL     1     -17.041   4.555  26.068  0.00  0.00    +0.027 A 
ATOM     29  C   UNL     1     -16.059   2.509  25.238  0.00  0.00    +0.027 A 
ATOM     30  C   UNL     1     -17.949   3.813  26.823  0.00  0.00    +0.047 A 
ATOM     31  C   UNL     1     -16.967   1.767  25.994  0.00  0.00    +0.047 A 
ATOM     32  C   UNL     1     -17.912   2.419  26.787  0.00  0.00    +0.120 A 
BRANCH  32   4
ATOM      4  O   UNL     1     -18.798   1.696  27.523  0.00  0.00    -0.495 OA
ATOM     33  C   UNL     1     -18.822   0.285  27.309  0.00  0.00    +0.277 C 
ENDBRANCH  32   4
ENDBRANCH   8  26
ENDBRANCH  12   5
TORSDOF 6
ENDMDL
MODEL 9
REMARK VINA RESULT:      -6.7     28.285     31.578
REMARK  Name = 40777592
REMARK  9 active torsions:
REMARK  status: ('A' for Active; 'I' for Inactive)
REMARK    1  A    between atoms: O_4  and  C_32
REMARK    2  A    between atoms: O_4  and  C_33
REMARK    3  A    between atoms: N_5  and  C_12
REMARK    4  A    between atoms: N_6  and  C_20
REMARK    5  A    between atoms: N_8  and  C_26
REMARK    6  A    between atoms: N_9  and  C_22
REMARK    7  A    between atoms: C_10  and  C_13
REMARK    8  A    between atoms: C_16  and  C_18
REMARK    9  A    between atoms: C_17  and  C_19
REMARK                            x       y       z     vdW  Elec       q    Type
REMARK                         _______ _______ _______ _____ _____    ______ ____
ROOT
ATOM     10  C   UNL     1      -4.456  -9.841  10.397  0.00  0.00    +0.047 C 
ATOM     11  C   UNL     1      -4.221 -11.116  11.233  0.00  0.00    +0.039 C 
ATOM     12  C   UNL     1      -2.895 -10.897  11.970  0.00  0.00    +0.098 C 
ATOM     14  C   UNL     1      -3.071  -9.273  10.283  0.00  0.00    -0.021 C 
ATOM     15  C   UNL     1      -2.226  -9.848  11.144  0.00  0.00    -0.009 C 
ENDROOT
BRANCH  10  13
ATOM      6  N   UNL     1      -5.777 -10.966   7.171  0.00  0.00    -0.234 N 
ATOM      7  N   UNL     1      -6.532  -9.860   7.283  0.00  0.00    -0.171 NA
ATOM     13  C   UNL     1      -5.140 -10.109   9.076  0.00  0.00    +0.003 A 
ATOM     16  C   UNL     1      -4.926 -11.161   8.219  0.00  0.00    +0.046 A 
ATOM     17  C   UNL     1      -6.138  -9.341   8.449  0.00  0.00    +0.064 A 
ATOM     18  C   UNL     1      -4.004 -12.311   8.311  0.00  0.00    +0.066 C 
ATOM     19  C   UNL     1      -6.754  -8.092   8.930  0.00  0.00    +0.068 C 
BRANCH   6  20
ATOM     20  C   UNL     1      -5.913 -11.787   6.050  0.00  0.00    +0.096 A 
ATOM     22  C   UNL     1      -6.833 -12.835   6.026  0.00  0.00    +0.151 A 
ATOM     23  C   UNL     1      -5.104 -11.542   4.940  0.00  0.00    +0.030 A 
ATOM     24  C   UNL     1      -6.943 -13.638   4.891  0.00  0.00    +0.035 A 
ATOM     25  C   UNL     1      -5.215 -12.347   3.806  0.00  0.00    +0.002 A 
ATOM     27  C   UNL     1      -6.135 -13.395   3.781  0.00  0.00    +0.002 A 
BRANCH  22   9
ATOM      2  O   UNL     1      -8.780 -12.531   7.223  0.00  0.00    -0.126 OA
ATOM      3  O   UNL     1      -7.276 -13.923   8.010  0.00  0.00    -0.126 OA
ATOM      9  N   UNL     1      -7.672 -13.111   7.143  0.00  0.00    +0.059 N 
ENDBRANCH  22   9
ENDBRANCH   6  20
ENDBRANCH  10  13
BRANCH  12   5
ATOM      1  O   UNL     1      -4.591 -12.007  13.994  0.00  0.00    -0.252 OA
ATOM      5  N   UNL     1      -3.078 -10.398  13.307  0.00  0.00    -0.293 N 
ATOM      8  N   UNL     1      -3.906 -10.300  15.453  0.00  0.00    -0.269 N 
ATOM     21  C   UNL     1      -3.931 -11.001  14.244  0.00  0.00    +0.304 C 
ATOM     34  H   UNL     1      -2.605  -9.541  13.578  0.00  0.00    +0.151 HD
ATOM     35  H   UNL     1      -3.301  -9.484  15.494  0.00  0.00    +0.156 HD
BRANCH   8  26
ATOM     26  C   UNL     1      -4.622 -10.587  16.637  0.00  0.00    +0.035 A 
ATOM     28  C   UNL     1      -5.905 -10.067  16.820  0.00  0.00    +0.027 A 
ATOM     29  C   UNL     1      -4.049 -11.389  17.623  0.00  0.00    +0.027 A 
ATOM     30  C   UNL     1      -6.612 -10.350  17.988  0.00  0.00    +0.047 A 
ATOM     31  C   UNL     1      -4.756 -11.673  18.791  0.00  0.00    +0.047 A 
ATOM     32  C   UNL     1      -6.038 -11.154  18.974  0.00  0.00    +0.120 A 
BRANCH  32   4
ATOM      4  O   UNL     1      -6.729 -11.431  20.113  0.00  0.00    -0.495 OA
ATOM     33  C   UNL     1      -7.683 -12.491  20.053  0.00  0.00    +0.277 C 
ENDBRANCH  32   4
ENDBRANCH   8  26
ENDBRANCH  12   5
TORSDOF 6
ENDMDL
MODEL 10
REMARK VINA RESULT:      -6.7     26.117     29.910
REMARK  Name = 40777592
REMARK  9 active torsions:
REMARK  status: ('A' for Active; 'I' for Inactive)
REMARK    1  A    between atoms: O_4  and  C_32
REMARK    2  A    between atoms: O_4  and  C_33
REMARK    3  A    between atoms: N_5  and  C_12
REMARK    4  A    between atoms: N_6  and  C_20
REMARK    5  A    between atoms: N_8  and  C_26
REMARK    6  A    between atoms: N_9  and  C_22
REMARK    7  A    between atoms: C_10  and  C_13
REMARK    8  A    between atoms: C_16  and  C_18
REMARK    9  A    between atoms: C_17  and  C_19
REMARK                            x       y       z     vdW  Elec       q    Type
REMARK                         _______ _______ _______ _____ _____    ______ ____
ROOT
ATOM     10  C   UNL     1     -14.371   6.652  22.363  0.00  0.00    +0.047 C 
ATOM     11  C   UNL     1     -15.888   6.445  22.554  0.00  0.00    +0.039 C 
ATOM     12  C   UNL     1     -16.052   5.023  23.101  0.00  0.00    +0.098 C 
ATOM     14  C   UNL     1     -13.863   5.242  22.279  0.00  0.00    -0.021 C 
ATOM     15  C   UNL     1     -14.781   4.359  22.685  0.00  0.00    -0.009 C 
ENDROOT
BRANCH  10  13
ATOM      6  N   UNL     1     -13.003   8.553  19.546  0.00  0.00    -0.234 N 
ATOM      7  N   UNL     1     -14.274   8.975  19.430  0.00  0.00    -0.171 NA
ATOM     13  C   UNL     1     -14.031   7.518  21.172  0.00  0.00    +0.003 A 
ATOM     16  C   UNL     1     -12.805   7.679  20.575  0.00  0.00    +0.046 A 
ATOM     17  C   UNL     1     -14.897   8.339  20.426  0.00  0.00    +0.064 A 
ATOM     18  C   UNL     1     -11.490   7.085  20.890  0.00  0.00    +0.066 C 
ATOM     19  C   UNL     1     -16.341   8.549  20.628  0.00  0.00    +0.068 C 
BRANCH   6  20
ATOM     20  C   UNL     1     -12.036   9.017  18.654  0.00  0.00    +0.096 A 
ATOM     22  C   UNL     1     -11.462  10.280  18.799  0.00  0.00    +0.151 A 
ATOM     23  C   UNL     1     -11.646   8.190  17.600  0.00  0.00    +0.030 A 
ATOM     24  C   UNL     1     -10.499  10.716  17.889  0.00  0.00    +0.035 A 
ATOM     25  C   UNL     1     -10.683   8.628  16.691  0.00  0.00    +0.002 A 
ATOM     27  C   UNL     1     -10.109   9.890  16.835  0.00  0.00    +0.002 A 
BRANCH  22   9
ATOM      2  O   UNL     1     -12.494  12.182  19.596  0.00  0.00    -0.126 OA
ATOM      3  O   UNL     1     -11.504  10.850  21.033  0.00  0.00    -0.126 OA
ATOM      9  N   UNL     1     -11.839  11.147  19.863  0.00  0.00    +0.059 N 
ENDBRANCH  22   9
ENDBRANCH   6  20
ENDBRANCH  10  13
BRANCH  12   5
ATOM      1  O   UNL     1     -15.696   2.734  24.786  0.00  0.00    -0.252 OA
ATOM      5  N   UNL     1     -16.156   4.987  24.535  0.00  0.00    -0.293 N 
ATOM      8  N   UNL     1     -16.130   4.088  26.654  0.00  0.00    -0.269 N 
ATOM     21  C   UNL     1     -15.967   3.821  25.292  0.00  0.00    +0.304 C 
ATOM     34  H   UNL     1     -16.425   5.834  25.028  0.00  0.00    +0.151 HD
ATOM     35  H   UNL     1     -16.353   5.047  26.908  0.00  0.00    +0.156 HD
BRANCH   8  26
ATOM     26  C   UNL     1     -16.021   3.183  27.735  0.00  0.00    +0.035 A 
ATOM     28  C   UNL     1     -15.318   3.550  28.884  0.00  0.00    +0.027 A 
ATOM     29  C   UNL     1     -16.616   1.925  27.655  0.00  0.00    +0.027 A 
ATOM     30  C   UNL     1     -15.211   2.658  29.951  0.00  0.00    +0.047 A 
ATOM     31  C   UNL     1     -16.509   1.033  28.722  0.00  0.00    +0.047 A 
ATOM     32  C   UNL     1     -15.807   1.399  29.870  0.00  0.00    +0.120 A 
BRANCH  32   4
ATOM      4  O   UNL     1     -15.703   0.530  30.912  0.00  0.00    -0.495 OA
ATOM     33  C   UNL     1     -14.805  -0.569  30.754  0.00  0.00    +0.277 C 
ENDBRANCH  32   4
ENDBRANCH   8  26
ENDBRANCH  12   5
TORSDOF 6
ENDMDL
