REMARK  Name = 51137771
REMARK  5 active torsions:
REMARK  status: ('A' for Active; 'I' for Inactive)
REMARK    1  A    between atoms: C_6  and  C_10
REMARK    2  A    between atoms: C_11  and  C_12
REMARK    3  A    between atoms: C_13  and  C_14
REMARK    4  A    between atoms: C_14  and  C_15
REMARK    5  A    between atoms: C_15  and  C_18
REMARK                            x       y       z     vdW  Elec       q    Type
REMARK                         _______ _______ _______ _____ _____    ______ ____
ROOT
ATOM      2  O   UNL     1       1.879   0.153   2.518  0.00  0.00    -0.270 OA
ATOM      3  N   UNL     1       0.763   1.217   0.782  0.00  0.00    -0.297 N 
ATOM      6  C   UNL     1      -0.908   2.065  -0.685  0.00  0.00    +0.095 C 
ATOM      7  C   UNL     1      -1.012   2.768   0.677  0.00  0.00    +0.033 C 
ATOM      8  C   UNL     1       0.512   1.484  -0.636  0.00  0.00    +0.121 C 
ATOM      9  C   UNL     1      -0.240   1.855   1.620  0.00  0.00    +0.109 C 
ATOM     11  C   UNL     1       1.750   0.408   1.323  0.00  0.00    +0.247 C 
ENDROOT
BRANCH  11  12
ATOM     12  C   UNL     1       2.711  -0.206   0.393  0.00  0.00    +0.037 A 
ATOM     16  C   UNL     1       3.514   0.600  -0.413  0.00  0.00    +0.013 A 
ATOM     17  C   UNL     1       2.819  -1.595   0.320  0.00  0.00    +0.013 A 
ATOM     19  C   UNL     1       4.426   0.017  -1.294  0.00  0.00    +0.001 A 
ATOM     20  C   UNL     1       3.731  -2.178  -0.561  0.00  0.00    +0.001 A 
ATOM     21  C   UNL     1       4.534  -1.372  -1.367  0.00  0.00    +0.000 A 
ENDBRANCH  11  12
BRANCH   6  10
ATOM      1  O   UNL     1      -1.820  -0.204  -0.479  0.00  0.00    -0.424 OA
ATOM      4  N   UNL     1      -3.228   1.259  -1.418  0.00  0.00    -0.112 NA
ATOM      5  N   UNL     1      -3.862   0.031  -1.363  0.00  0.00    -0.112 NA
ATOM     10  C   UNL     1      -2.040   1.074  -0.892  0.00  0.00    +0.222 A 
ATOM     13  C   UNL     1      -3.003  -0.792  -0.807  0.00  0.00    +0.217 A 
BRANCH  13  14
ATOM     14  C   UNL     1      -3.143  -2.220  -0.498  0.00  0.00    +0.097 C 
BRANCH  14  15
ATOM     15  C   UNL     1      -3.993  -2.485   0.763  0.00  0.00    +0.006 C 
ATOM     18  C   UNL     1      -3.387  -1.879   2.019  0.00  0.00    +0.004 C 
ENDBRANCH  14  15
ENDBRANCH  13  14
ENDBRANCH   6  10
TORSDOF 4
