MODEL 1
REMARK VINA RESULT:      -6.6      0.000      0.000
REMARK  Name = 40777341
REMARK  9 active torsions:
REMARK  status: ('A' for Active; 'I' for Inactive)
REMARK    1  A    between atoms: N_5  and  C_24
REMARK    2  A    between atoms: C_6  and  C_10
REMARK    3  A    between atoms: C_7  and  C_13
REMARK    4  A    between atoms: C_10  and  C_20
REMARK    5  A    between atoms: C_11  and  C_18
REMARK    6  A    between atoms: C_13  and  C_23
REMARK    7  A    between atoms: C_18  and  C_21
REMARK    8  A    between atoms: C_24  and  C_25
REMARK    9  A    between atoms: C_24  and  C_26
REMARK                            x       y       z     vdW  Elec       q    Type
REMARK                         _______ _______ _______ _____ _____    ______ ____
ROOT
ATOM      3  N   UNL     1      16.168   4.223   0.249  0.00  0.00    -0.316 NA
ATOM      6  C   UNL     1      13.759   4.328   0.842  0.00  0.00    +0.012 C 
ATOM      7  C   UNL     1      13.370   4.496  -0.646  0.00  0.00    +0.004 C 
ATOM      8  C   UNL     1      14.561   5.096  -1.412  0.00  0.00    +0.019 C 
ATOM      9  C   UNL     1      15.091   3.575   0.999  0.00  0.00    +0.085 C 
ATOM     12  C   UNL     1      15.856   4.319  -1.176  0.00  0.00    +0.081 C 
ATOM     27  H   UNL     1      17.030   3.691   0.369  0.00  0.00    +0.122 HD
ENDROOT
BRANCH   6  10
ATOM     10  C   UNL     1      12.665   3.661   1.676  0.00  0.00    +0.064 C 
BRANCH  10  20
ATOM      1  O   UNL     1      11.551   6.504   3.585  0.00  0.00    -0.359 OA
ATOM      4  N   UNL     1      12.504   5.819   2.841  0.00  0.00    -0.083 NA
ATOM     20  C   UNL     1      11.917   4.669   2.502  0.00  0.00    +0.084 A 
ATOM     21  C   UNL     1      10.424   5.750   3.672  0.00  0.00    +0.138 A 
ATOM     22  C   UNL     1      10.605   4.571   3.000  0.00  0.00    +0.071 A 
BRANCH  21  18
ATOM     18  C   UNL     1       9.308   6.327   4.430  0.00  0.00    +0.080 C 
BRANCH  18  11
ATOM     11  C   UNL     1       9.622   6.519   5.912  0.00  0.00    -0.004 C 
ATOM     14  C   UNL     1       9.932   5.172   6.579  0.00  0.00    +0.004 C 
ATOM     15  C   UNL     1       8.463   7.228   6.625  0.00  0.00    +0.004 C 
ATOM     16  C   UNL     1      10.198   5.331   8.075  0.00  0.00    +0.000 C 
ATOM     17  C   UNL     1       8.730   7.384   8.120  0.00  0.00    +0.000 C 
ATOM     19  C   UNL     1       9.046   6.044   8.778  0.00  0.00    +0.000 C 
ENDBRANCH  18  11
ENDBRANCH  21  18
ENDBRANCH  10  20
ENDBRANCH   6  10
BRANCH   7  13
ATOM     13  C   UNL     1      12.886   3.204  -1.314  0.00  0.00    +0.099 C 
BRANCH  13  23
ATOM      2  O   UNL     1      10.550   3.774  -1.043  0.00  0.00    -0.276 OA
ATOM      5  N   UNL     1      11.254   2.747  -3.006  0.00  0.00    -0.313 N 
ATOM     23  C   UNL     1      11.436   3.288  -1.741  0.00  0.00    +0.213 C 
ATOM     28  H   UNL     1      12.067   2.424  -3.523  0.00  0.00    +0.149 HD
BRANCH   5  24
ATOM     24  C   UNL     1       9.968   2.692  -3.663  0.00  0.00    +0.067 C 
ATOM     25  C   UNL     1       9.295   1.352  -3.397  0.00  0.00    +0.027 C 
ATOM     26  C   UNL     1      10.122   2.946  -5.158  0.00  0.00    +0.027 C 
ENDBRANCH   5  24
ENDBRANCH  13  23
ENDBRANCH   7  13
TORSDOF 7
ENDMDL
MODEL 2
REMARK VINA RESULT:      -6.5     24.576     27.928
REMARK  Name = 40777341
REMARK  9 active torsions:
REMARK  status: ('A' for Active; 'I' for Inactive)
REMARK    1  A    between atoms: N_5  and  C_24
REMARK    2  A    between atoms: C_6  and  C_10
REMARK    3  A    between atoms: C_7  and  C_13
REMARK    4  A    between atoms: C_10  and  C_20
REMARK    5  A    between atoms: C_11  and  C_18
REMARK    6  A    between atoms: C_13  and  C_23
REMARK    7  A    between atoms: C_18  and  C_21
REMARK    8  A    between atoms: C_24  and  C_25
REMARK    9  A    between atoms: C_24  and  C_26
REMARK                            x       y       z     vdW  Elec       q    Type
REMARK                         _______ _______ _______ _____ _____    ______ ____
ROOT
ATOM      3  N   UNL     1      -6.033 -14.236  17.220  0.00  0.00    -0.316 NA
ATOM      6  C   UNL     1      -5.255 -11.919  16.782  0.00  0.00    +0.012 C 
ATOM      7  C   UNL     1      -6.664 -11.357  17.087  0.00  0.00    +0.004 C 
ATOM      8  C   UNL     1      -7.708 -12.460  16.843  0.00  0.00    +0.019 C 
ATOM      9  C   UNL     1      -5.000 -13.244  17.521  0.00  0.00    +0.085 C 
ATOM     12  C   UNL     1      -7.368 -13.757  17.576  0.00  0.00    +0.081 C 
ATOM     27  H   UNL     1      -5.836 -15.095  17.733  0.00  0.00    +0.122 HD
ENDROOT
BRANCH   6  10
ATOM     10  C   UNL     1      -4.135 -10.919  17.073  0.00  0.00    +0.064 C 
BRANCH  10  20
ATOM      1  O   UNL     1      -1.383 -10.430  14.804  0.00  0.00    -0.359 OA
ATOM      4  N   UNL     1      -1.924 -10.517  16.081  0.00  0.00    -0.083 NA
ATOM     20  C   UNL     1      -3.223 -10.760  15.891  0.00  0.00    +0.084 A 
ATOM     21  C   UNL     1      -2.367 -10.622  13.887  0.00  0.00    +0.138 A 
ATOM     22  C   UNL     1      -3.559 -10.835  14.528  0.00  0.00    +0.071 A 
BRANCH  21  18
ATOM     18  C   UNL     1      -1.969 -10.563  12.476  0.00  0.00    +0.080 C 
BRANCH  18  11
ATOM     11  C   UNL     1      -3.152 -10.410  11.523  0.00  0.00    -0.004 C 
ATOM     14  C   UNL     1      -3.476 -11.748  10.843  0.00  0.00    +0.004 C 
ATOM     15  C   UNL     1      -2.871  -9.321  10.479  0.00  0.00    +0.004 C 
ATOM     16  C   UNL     1      -4.623 -11.609   9.845  0.00  0.00    +0.000 C 
ATOM     17  C   UNL     1      -4.018  -9.187   9.480  0.00  0.00    +0.000 C 
ATOM     19  C   UNL     1      -4.343 -10.520   8.814  0.00  0.00    +0.000 C 
ENDBRANCH  18  11
ENDBRANCH  21  18
ENDBRANCH  10  20
ENDBRANCH   6  10
BRANCH   7  13
ATOM     13  C   UNL     1      -6.810 -10.769  18.495  0.00  0.00    +0.099 C 
BRANCH  13  23
ATOM      2  O   UNL     1      -8.839 -10.901  19.807  0.00  0.00    -0.276 OA
ATOM      5  N   UNL     1      -8.797  -9.570  17.902  0.00  0.00    -0.313 N 
ATOM     23  C   UNL     1      -8.249 -10.442  18.833  0.00  0.00    +0.213 C 
ATOM     28  H   UNL     1      -8.203  -9.203  17.165  0.00  0.00    +0.149 HD
BRANCH   5  24
ATOM     24  C   UNL     1     -10.158  -9.090  17.976  0.00  0.00    +0.067 C 
ATOM     25  C   UNL     1     -11.114 -10.118  17.387  0.00  0.00    +0.027 C 
ATOM     26  C   UNL     1     -10.289  -7.745  17.271  0.00  0.00    +0.027 C 
ENDBRANCH   5  24
ENDBRANCH  13  23
ENDBRANCH   7  13
TORSDOF 7
ENDMDL
MODEL 3
REMARK VINA RESULT:      -6.4     18.122     21.527
REMARK  Name = 40777341
REMARK  9 active torsions:
REMARK  status: ('A' for Active; 'I' for Inactive)
REMARK    1  A    between atoms: N_5  and  C_24
REMARK    2  A    between atoms: C_6  and  C_10
REMARK    3  A    between atoms: C_7  and  C_13
REMARK    4  A    between atoms: C_10  and  C_20
REMARK    5  A    between atoms: C_11  and  C_18
REMARK    6  A    between atoms: C_13  and  C_23
REMARK    7  A    between atoms: C_18  and  C_21
REMARK    8  A    between atoms: C_24  and  C_25
REMARK    9  A    between atoms: C_24  and  C_26
REMARK                            x       y       z     vdW  Elec       q    Type
REMARK                         _______ _______ _______ _____ _____    ______ ____
ROOT
ATOM      3  N   UNL     1      11.638   6.079  20.635  0.00  0.00    -0.316 NA
ATOM      6  C   UNL     1      12.657   7.933  19.335  0.00  0.00    +0.012 C 
ATOM      7  C   UNL     1      12.025   8.982  20.280  0.00  0.00    +0.004 C 
ATOM      8  C   UNL     1      10.778   8.374  20.944  0.00  0.00    +0.019 C 
ATOM      9  C   UNL     1      12.878   6.587  20.047  0.00  0.00    +0.085 C 
ATOM     12  C   UNL     1      11.065   7.022  21.595  0.00  0.00    +0.081 C 
ATOM     27  H   UNL     1      11.826   5.193  21.104  0.00  0.00    +0.122 HD
ENDROOT
BRANCH   6  10
ATOM     10  C   UNL     1      13.955   8.415  18.685  0.00  0.00    +0.064 C 
BRANCH  10  20
ATOM      1  O   UNL     1      16.508   5.889  18.945  0.00  0.00    -0.359 OA
ATOM      4  N   UNL     1      15.398   6.459  18.331  0.00  0.00    -0.083 NA
ATOM     20  C   UNL     1      15.114   7.539  19.064  0.00  0.00    +0.084 A 
ATOM     21  C   UNL     1      16.857   6.638  20.023  0.00  0.00    +0.138 A 
ATOM     22  C   UNL     1      16.001   7.700  20.143  0.00  0.00    +0.071 A 
BRANCH  21  18
ATOM     18  C   UNL     1      18.017   6.176  20.793  0.00  0.00    +0.080 C 
BRANCH  18  11
ATOM     11  C   UNL     1      19.218   7.115  20.693  0.00  0.00    -0.004 C 
ATOM     14  C   UNL     1      20.524   6.314  20.587  0.00  0.00    +0.004 C 
ATOM     15  C   UNL     1      19.259   8.073  21.890  0.00  0.00    +0.004 C 
ATOM     16  C   UNL     1      21.744   7.231  20.538  0.00  0.00    +0.000 C 
ATOM     17  C   UNL     1      20.482   8.986  21.840  0.00  0.00    +0.000 C 
ATOM     19  C   UNL     1      21.777   8.188  21.727  0.00  0.00    +0.000 C 
ENDBRANCH  18  11
ENDBRANCH  21  18
ENDBRANCH  10  20
ENDBRANCH   6  10
BRANCH   7  13
ATOM     13  C   UNL     1      12.992   9.533  21.336  0.00  0.00    +0.099 C 
BRANCH  13  23
ATOM      2  O   UNL     1      11.817  11.645  21.447  0.00  0.00    -0.276 OA
ATOM      5  N   UNL     1      12.749  10.754  23.381  0.00  0.00    -0.313 N 
ATOM     23  C   UNL     1      12.444  10.763  22.028  0.00  0.00    +0.213 C 
ATOM     28  H   UNL     1      13.223   9.945  23.772  0.00  0.00    +0.149 HD
BRANCH   5  24
ATOM     24  C   UNL     1      12.351  11.808  24.286  0.00  0.00    +0.067 C 
ATOM     25  C   UNL     1      13.455  12.080  25.299  0.00  0.00    +0.027 C 
ATOM     26  C   UNL     1      11.041  11.452  24.978  0.00  0.00    +0.027 C 
ENDBRANCH   5  24
ENDBRANCH  13  23
ENDBRANCH   7  13
TORSDOF 7
ENDMDL
MODEL 4
REMARK VINA RESULT:      -6.4     18.161     20.958
REMARK  Name = 40777341
REMARK  9 active torsions:
REMARK  status: ('A' for Active; 'I' for Inactive)
REMARK    1  A    between atoms: N_5  and  C_24
REMARK    2  A    between atoms: C_6  and  C_10
REMARK    3  A    between atoms: C_7  and  C_13
REMARK    4  A    between atoms: C_10  and  C_20
REMARK    5  A    between atoms: C_11  and  C_18
REMARK    6  A    between atoms: C_13  and  C_23
REMARK    7  A    between atoms: C_18  and  C_21
REMARK    8  A    between atoms: C_24  and  C_25
REMARK    9  A    between atoms: C_24  and  C_26
REMARK                            x       y       z     vdW  Elec       q    Type
REMARK                         _______ _______ _______ _____ _____    ______ ____
ROOT
ATOM      3  N   UNL     1      21.538   9.213  21.541  0.00  0.00    -0.316 NA
ATOM      6  C   UNL     1      20.055   7.301  20.981  0.00  0.00    +0.012 C 
ATOM      7  C   UNL     1      21.277   6.422  20.621  0.00  0.00    +0.004 C 
ATOM      8  C   UNL     1      22.452   7.331  20.227  0.00  0.00    +0.019 C 
ATOM      9  C   UNL     1      20.421   8.389  22.005  0.00  0.00    +0.085 C 
ATOM     12  C   UNL     1      22.730   8.411  21.272  0.00  0.00    +0.081 C 
ATOM     27  H   UNL     1      21.756   9.914  22.248  0.00  0.00    +0.122 HD
ENDROOT
BRANCH   6  10
ATOM     10  C   UNL     1      18.854   6.489  21.466  0.00  0.00    +0.064 C 
BRANCH  10  20
ATOM      1  O   UNL     1      16.602   5.928  18.713  0.00  0.00    -0.359 OA
ATOM      4  N   UNL     1      17.757   5.649  19.434  0.00  0.00    -0.083 NA
ATOM     20  C   UNL     1      17.740   6.505  20.459  0.00  0.00    +0.084 A 
ATOM     21  C   UNL     1      15.928   6.938  19.321  0.00  0.00    +0.138 A 
ATOM     22  C   UNL     1      16.611   7.342  20.437  0.00  0.00    +0.071 A 
BRANCH  21  18
ATOM     18  C   UNL     1      14.675   7.364  18.687  0.00  0.00    +0.080 C 
BRANCH  18  11
ATOM     11  C   UNL     1      13.649   7.902  19.683  0.00  0.00    -0.004 C 
ATOM     14  C   UNL     1      13.171   6.788  20.624  0.00  0.00    +0.004 C 
ATOM     15  C   UNL     1      12.464   8.544  18.948  0.00  0.00    +0.004 C 
ATOM     16  C   UNL     1      12.106   7.289  21.596  0.00  0.00    +0.000 C 
ATOM     17  C   UNL     1      11.399   9.042  19.923  0.00  0.00    +0.000 C 
ATOM     19  C   UNL     1      10.933   7.934  20.862  0.00  0.00    +0.000 C 
ENDBRANCH  18  11
ENDBRANCH  21  18
ENDBRANCH  10  20
ENDBRANCH   6  10
BRANCH   7  13
ATOM     13  C   UNL     1      21.690   5.445  21.729  0.00  0.00    +0.099 C 
BRANCH  13  23
ATOM      2  O   UNL     1      21.085   3.245  20.925  0.00  0.00    -0.276 OA
ATOM      5  N   UNL     1      23.330   3.833  21.060  0.00  0.00    -0.313 N 
ATOM     23  C   UNL     1      21.967   4.056  21.195  0.00  0.00    +0.213 C 
ATOM     28  H   UNL     1      23.973   4.594  21.257  0.00  0.00    +0.149 HD
BRANCH   5  24
ATOM     24  C   UNL     1      23.881   2.590  20.574  0.00  0.00    +0.067 C 
ATOM     25  C   UNL     1      24.167   1.647  21.735  0.00  0.00    +0.027 C 
ATOM     26  C   UNL     1      25.138   2.849  19.751  0.00  0.00    +0.027 C 
ENDBRANCH   5  24
ENDBRANCH  13  23
ENDBRANCH   7  13
TORSDOF 7
ENDMDL
MODEL 5
REMARK VINA RESULT:      -6.3     15.725     19.711
REMARK  Name = 40777341
REMARK  9 active torsions:
REMARK  status: ('A' for Active; 'I' for Inactive)
REMARK    1  A    between atoms: N_5  and  C_24
REMARK    2  A    between atoms: C_6  and  C_10
REMARK    3  A    between atoms: C_7  and  C_13
REMARK    4  A    between atoms: C_10  and  C_20
REMARK    5  A    between atoms: C_11  and  C_18
REMARK    6  A    between atoms: C_13  and  C_23
REMARK    7  A    between atoms: C_18  and  C_21
REMARK    8  A    between atoms: C_24  and  C_25
REMARK    9  A    between atoms: C_24  and  C_26
REMARK                            x       y       z     vdW  Elec       q    Type
REMARK                         _______ _______ _______ _____ _____    ______ ____
ROOT
ATOM      3  N   UNL     1      11.384   9.755  15.294  0.00  0.00    -0.316 NA
ATOM      6  C   UNL     1      12.938   9.977  17.219  0.00  0.00    +0.012 C 
ATOM      7  C   UNL     1      12.178   8.876  17.996  0.00  0.00    +0.004 C 
ATOM      8  C   UNL     1      10.732   8.800  17.477  0.00  0.00    +0.019 C 
ATOM      9  C   UNL     1      12.790   9.802  15.698  0.00  0.00    +0.085 C 
ATOM     12  C   UNL     1      10.665   8.668  15.957  0.00  0.00    +0.081 C 
ATOM     27  H   UNL     1      11.328   9.630  14.284  0.00  0.00    +0.122 HD
ENDROOT
BRANCH   6  10
ATOM     10  C   UNL     1      14.413  10.076  17.607  0.00  0.00    +0.064 C 
BRANCH  10  20
ATOM      1  O   UNL     1      15.405  10.824  20.987  0.00  0.00    -0.359 OA
ATOM      4  N   UNL     1      15.526  10.115  19.797  0.00  0.00    -0.083 NA
ATOM     20  C   UNL     1      14.578  10.613  19.000  0.00  0.00    +0.084 A 
ATOM     21  C   UNL     1      14.392  11.722  20.872  0.00  0.00    +0.138 A 
ATOM     22  C   UNL     1      13.832  11.627  19.626  0.00  0.00    +0.071 A 
BRANCH  21  18
ATOM     18  C   UNL     1      14.125  12.560  22.046  0.00  0.00    +0.080 C 
BRANCH  18  11
ATOM     11  C   UNL     1      12.770  12.277  22.691  0.00  0.00    -0.004 C 
ATOM     14  C   UNL     1      11.808  13.454  22.471  0.00  0.00    +0.004 C 
ATOM     15  C   UNL     1      12.933  11.977  24.187  0.00  0.00    +0.004 C 
ATOM     16  C   UNL     1      10.462  13.217  23.152  0.00  0.00    +0.000 C 
ATOM     17  C   UNL     1      11.585  11.744  24.866  0.00  0.00    +0.000 C 
ATOM     19  C   UNL     1      10.630  12.911  24.638  0.00  0.00    +0.000 C 
ENDBRANCH  18  11
ENDBRANCH  21  18
ENDBRANCH  10  20
ENDBRANCH   6  10
BRANCH   7  13
ATOM     13  C   UNL     1      12.850   7.498  17.942  0.00  0.00    +0.099 C 
BRANCH  13  23
ATOM      2  O   UNL     1      12.214   6.332  19.965  0.00  0.00    -0.276 OA
ATOM      5  N   UNL     1      14.382   7.143  19.749  0.00  0.00    -0.313 N 
ATOM     23  C   UNL     1      13.081   6.919  19.322  0.00  0.00    +0.213 C 
ATOM     28  H   UNL     1      15.037   7.589  19.113  0.00  0.00    +0.149 HD
BRANCH   5  24
ATOM     24  C   UNL     1      14.878   6.700  21.031  0.00  0.00    +0.067 C 
ATOM     25  C   UNL     1      14.509   7.702  22.117  0.00  0.00    +0.027 C 
ATOM     26  C   UNL     1      16.385   6.479  20.972  0.00  0.00    +0.027 C 
ENDBRANCH   5  24
ENDBRANCH  13  23
ENDBRANCH   7  13
TORSDOF 7
ENDMDL
MODEL 6
REMARK VINA RESULT:      -6.1     31.156     36.589
REMARK  Name = 40777341
REMARK  9 active torsions:
REMARK  status: ('A' for Active; 'I' for Inactive)
REMARK    1  A    between atoms: N_5  and  C_24
REMARK    2  A    between atoms: C_6  and  C_10
REMARK    3  A    between atoms: C_7  and  C_13
REMARK    4  A    between atoms: C_10  and  C_20
REMARK    5  A    between atoms: C_11  and  C_18
REMARK    6  A    between atoms: C_13  and  C_23
REMARK    7  A    between atoms: C_18  and  C_21
REMARK    8  A    between atoms: C_24  and  C_25
REMARK    9  A    between atoms: C_24  and  C_26
REMARK                            x       y       z     vdW  Elec       q    Type
REMARK                         _______ _______ _______ _____ _____    ______ ____
ROOT
ATOM      3  N   UNL     1     -19.177   4.565  26.507  0.00  0.00    -0.316 NA
ATOM      6  C   UNL     1     -16.752   4.232  26.094  0.00  0.00    +0.012 C 
ATOM      7  C   UNL     1     -16.508   3.933  27.593  0.00  0.00    +0.004 C 
ATOM      8  C   UNL     1     -17.620   4.595  28.424  0.00  0.00    +0.019 C 
ATOM      9  C   UNL     1     -18.189   3.882  25.672  0.00  0.00    +0.085 C 
ATOM     12  C   UNL     1     -19.017   4.233  27.921  0.00  0.00    +0.081 C 
ATOM     27  H   UNL     1     -20.115   4.303  26.203  0.00  0.00    +0.122 HD
ENDROOT
BRANCH   6  10
ATOM     10  C   UNL     1     -15.740   3.547  25.174  0.00  0.00    +0.064 C 
BRANCH  10  20
ATOM      1  O   UNL     1     -15.951   4.422  21.688  0.00  0.00    -0.359 OA
ATOM      4  N   UNL     1     -16.125   3.540  22.748  0.00  0.00    -0.083 NA
ATOM     20  C   UNL     1     -15.697   4.204  23.824  0.00  0.00    +0.084 A 
ATOM     21  C   UNL     1     -15.425   5.584  22.154  0.00  0.00    +0.138 A 
ATOM     22  C   UNL     1     -15.243   5.496  23.509  0.00  0.00    +0.071 A 
BRANCH  21  18
ATOM     18  C   UNL     1     -15.174   6.635  21.161  0.00  0.00    +0.080 C 
BRANCH  18  11
ATOM     11  C   UNL     1     -13.830   7.334  21.352  0.00  0.00    -0.004 C 
ATOM     14  C   UNL     1     -13.930   8.816  20.963  0.00  0.00    +0.004 C 
ATOM     15  C   UNL     1     -12.732   6.630  20.544  0.00  0.00    +0.004 C 
ATOM     16  C   UNL     1     -12.585   9.525  21.095  0.00  0.00    +0.000 C 
ATOM     17  C   UNL     1     -11.388   7.343  20.676  0.00  0.00    +0.000 C 
ATOM     19  C   UNL     1     -11.494   8.817  20.296  0.00  0.00    +0.000 C 
ENDBRANCH  18  11
ENDBRANCH  21  18
ENDBRANCH  10  20
ENDBRANCH   6  10
BRANCH   7  13
ATOM     13  C   UNL     1     -16.397   2.439  27.920  0.00  0.00    +0.099 C 
BRANCH  13  23
ATOM      2  O   UNL     1     -14.721   3.040  29.559  0.00  0.00    -0.276 OA
ATOM      5  N   UNL     1     -15.164   0.795  29.151  0.00  0.00    -0.313 N 
ATOM     23  C   UNL     1     -15.338   2.159  28.965  0.00  0.00    +0.213 C 
ATOM     28  H   UNL     1     -15.769   0.151  28.650  0.00  0.00    +0.149 HD
BRANCH   5  24
ATOM     24  C   UNL     1     -14.214   0.241  30.088  0.00  0.00    +0.067 C 
ATOM     25  C   UNL     1     -13.445  -0.905  29.446  0.00  0.00    +0.027 C 
ATOM     26  C   UNL     1     -14.921  -0.212  31.360  0.00  0.00    +0.027 C 
ENDBRANCH   5  24
ENDBRANCH  13  23
ENDBRANCH   7  13
TORSDOF 7
ENDMDL
MODEL 7
REMARK VINA RESULT:      -6.0     27.593     31.580
REMARK  Name = 40777341
REMARK  9 active torsions:
REMARK  status: ('A' for Active; 'I' for Inactive)
REMARK    1  A    between atoms: N_5  and  C_24
REMARK    2  A    between atoms: C_6  and  C_10
REMARK    3  A    between atoms: C_7  and  C_13
REMARK    4  A    between atoms: C_10  and  C_20
REMARK    5  A    between atoms: C_11  and  C_18
REMARK    6  A    between atoms: C_13  and  C_23
REMARK    7  A    between atoms: C_18  and  C_21
REMARK    8  A    between atoms: C_24  and  C_25
REMARK    9  A    between atoms: C_24  and  C_26
REMARK                            x       y       z     vdW  Elec       q    Type
REMARK                         _______ _______ _______ _____ _____    ______ ____
ROOT
ATOM      3  N   UNL     1     -14.232   4.261  21.923  0.00  0.00    -0.316 NA
ATOM      6  C   UNL     1     -13.276   6.420  21.156  0.00  0.00    +0.012 C 
ATOM      7  C   UNL     1     -14.604   7.151  21.465  0.00  0.00    +0.004 C 
ATOM      8  C   UNL     1     -15.758   6.136  21.419  0.00  0.00    +0.019 C 
ATOM      9  C   UNL     1     -13.095   5.175  22.040  0.00  0.00    +0.085 C 
ATOM     12  C   UNL     1     -15.490   4.909  22.289  0.00  0.00    +0.081 C 
ATOM     27  H   UNL     1     -14.080   3.454  22.528  0.00  0.00    +0.122 HD
ENDROOT
BRANCH   6  10
ATOM     10  C   UNL     1     -12.052   7.332  21.257  0.00  0.00    +0.064 C 
BRANCH  10  20
ATOM      1  O   UNL     1     -11.663   8.122  17.765  0.00  0.00    -0.359 OA
ATOM      4  N   UNL     1     -12.206   7.376  18.805  0.00  0.00    -0.083 NA
ATOM     20  C   UNL     1     -11.680   7.898  19.916  0.00  0.00    +0.084 A 
ATOM     21  C   UNL     1     -10.830   9.065  18.278  0.00  0.00    +0.138 A 
ATOM     22  C   UNL     1     -10.806   8.965  19.644  0.00  0.00    +0.071 A 
BRANCH  21  18
ATOM     18  C   UNL     1     -10.166   9.948  17.312  0.00  0.00    +0.080 C 
BRANCH  18  11
ATOM     11  C   UNL     1     -10.057  11.393  17.794  0.00  0.00    -0.004 C 
ATOM     14  C   UNL     1     -11.449  12.023  17.937  0.00  0.00    +0.004 C 
ATOM     15  C   UNL     1      -9.178  12.217  16.843  0.00  0.00    +0.004 C 
ATOM     16  C   UNL     1     -11.364  13.486  18.367  0.00  0.00    +0.000 C 
ATOM     17  C   UNL     1      -9.098  13.680  17.275  0.00  0.00    +0.000 C 
ATOM     19  C   UNL     1     -10.483  14.300  17.424  0.00  0.00    +0.000 C 
ENDBRANCH  18  11
ENDBRANCH  21  18
ENDBRANCH  10  20
ENDBRANCH   6  10
BRANCH   7  13
ATOM     13  C   UNL     1     -14.601   7.915  22.794  0.00  0.00    +0.099 C 
BRANCH  13  23
ATOM      2  O   UNL     1     -15.556  10.048  22.167  0.00  0.00    -0.276 OA
ATOM      5  N   UNL     1     -13.368   9.963  22.947  0.00  0.00    -0.313 N 
ATOM     23  C   UNL     1     -14.593   9.416  22.593  0.00  0.00    +0.213 C 
ATOM     28  H   UNL     1     -12.656   9.357  23.345  0.00  0.00    +0.149 HD
BRANCH   5  24
ATOM     24  C   UNL     1     -13.079  11.376  22.853  0.00  0.00    +0.067 C 
ATOM     25  C   UNL     1     -12.575  11.721  21.459  0.00  0.00    +0.027 C 
ATOM     26  C   UNL     1     -12.072  11.786  23.922  0.00  0.00    +0.027 C 
ENDBRANCH   5  24
ENDBRANCH  13  23
ENDBRANCH   7  13
TORSDOF 7
ENDMDL
MODEL 8
REMARK VINA RESULT:      -6.0     31.701     37.151
REMARK  Name = 40777341
REMARK  9 active torsions:
REMARK  status: ('A' for Active; 'I' for Inactive)
REMARK    1  A    between atoms: N_5  and  C_24
REMARK    2  A    between atoms: C_6  and  C_10
REMARK    3  A    between atoms: C_7  and  C_13
REMARK    4  A    between atoms: C_10  and  C_20
REMARK    5  A    between atoms: C_11  and  C_18
REMARK    6  A    between atoms: C_13  and  C_23
REMARK    7  A    between atoms: C_18  and  C_21
REMARK    8  A    between atoms: C_24  and  C_25
REMARK    9  A    between atoms: C_24  and  C_26
REMARK                            x       y       z     vdW  Elec       q    Type
REMARK                         _______ _______ _______ _____ _____    ______ ____
ROOT
ATOM      3  N   UNL     1     -18.774   0.143  26.124  0.00  0.00    -0.316 NA
ATOM      6  C   UNL     1     -17.186   2.048  25.992  0.00  0.00    +0.012 C 
ATOM      7  C   UNL     1     -17.335   2.314  27.509  0.00  0.00    +0.004 C 
ATOM      8  C   UNL     1     -18.690   1.764  27.985  0.00  0.00    +0.019 C 
ATOM      9  C   UNL     1     -17.460   0.574  25.645  0.00  0.00    +0.085 C 
ATOM     12  C   UNL     1     -18.907   0.310  27.570  0.00  0.00    +0.081 C 
ATOM     27  H   UNL     1     -18.915  -0.838  25.884  0.00  0.00    +0.122 HD
ENDROOT
BRANCH   6  10
ATOM     10  C   UNL     1     -15.831   2.487  25.436  0.00  0.00    +0.064 C 
BRANCH  10  20
ATOM      1  O   UNL     1     -16.455   3.811  22.146  0.00  0.00    -0.359 OA
ATOM      4  N   UNL     1     -16.416   2.770  23.066  0.00  0.00    -0.083 NA
ATOM     20  C   UNL     1     -15.994   3.329  24.203  0.00  0.00    +0.084 A 
ATOM     21  C   UNL     1     -16.057   4.960  22.752  0.00  0.00    +0.138 A 
ATOM     22  C   UNL     1     -15.752   4.707  24.063  0.00  0.00    +0.071 A 
BRANCH  21  18
ATOM     18  C   UNL     1     -16.039   6.168  21.919  0.00  0.00    +0.080 C 
BRANCH  18  11
ATOM     11  C   UNL     1     -14.757   6.317  21.103  0.00  0.00    -0.004 C 
ATOM     14  C   UNL     1     -13.526   5.999  21.965  0.00  0.00    +0.004 C 
ATOM     15  C   UNL     1     -14.656   7.726  20.504  0.00  0.00    +0.004 C 
ATOM     16  C   UNL     1     -12.228   6.193  21.186  0.00  0.00    +0.000 C 
ATOM     17  C   UNL     1     -13.355   7.917  19.727  0.00  0.00    +0.000 C 
ATOM     19  C   UNL     1     -12.135   7.592  20.584  0.00  0.00    +0.000 C 
ENDBRANCH  18  11
ENDBRANCH  21  18
ENDBRANCH  10  20
ENDBRANCH   6  10
BRANCH   7  13
ATOM     13  C   UNL     1     -16.188   1.750  28.356  0.00  0.00    +0.099 C 
BRANCH  13  23
ATOM      2  O   UNL     1     -15.535   3.958  29.098  0.00  0.00    -0.276 OA
ATOM      5  N   UNL     1     -15.331   2.158  30.555  0.00  0.00    -0.313 N 
ATOM     23  C   UNL     1     -15.657   2.762  29.349  0.00  0.00    +0.213 C 
ATOM     28  H   UNL     1     -15.527   1.169  30.677  0.00  0.00    +0.149 HD
BRANCH   5  24
ATOM     24  C   UNL     1     -14.798   2.887  31.683  0.00  0.00    +0.067 C 
ATOM     25  C   UNL     1     -13.317   3.173  31.476  0.00  0.00    +0.027 C 
ATOM     26  C   UNL     1     -15.038   2.118  32.976  0.00  0.00    +0.027 C 
ENDBRANCH   5  24
ENDBRANCH  13  23
ENDBRANCH   7  13
TORSDOF 7
ENDMDL
MODEL 9
REMARK VINA RESULT:      -5.9     14.531     19.825
REMARK  Name = 40777341
REMARK  9 active torsions:
REMARK  status: ('A' for Active; 'I' for Inactive)
REMARK    1  A    between atoms: N_5  and  C_24
REMARK    2  A    between atoms: C_6  and  C_10
REMARK    3  A    between atoms: C_7  and  C_13
REMARK    4  A    between atoms: C_10  and  C_20
REMARK    5  A    between atoms: C_11  and  C_18
REMARK    6  A    between atoms: C_13  and  C_23
REMARK    7  A    between atoms: C_18  and  C_21
REMARK    8  A    between atoms: C_24  and  C_25
REMARK    9  A    between atoms: C_24  and  C_26
REMARK                            x       y       z     vdW  Elec       q    Type
REMARK                         _______ _______ _______ _____ _____    ______ ____
ROOT
ATOM      3  N   UNL     1      12.014   6.191  19.871  0.00  0.00    -0.316 NA
ATOM      6  C   UNL     1      12.878   8.400  19.140  0.00  0.00    +0.012 C 
ATOM      7  C   UNL     1      12.229   9.092  20.362  0.00  0.00    +0.004 C 
ATOM      8  C   UNL     1      11.044   8.241  20.850  0.00  0.00    +0.019 C 
ATOM      9  C   UNL     1      13.200   6.924  19.427  0.00  0.00    +0.085 C 
ATOM     12  C   UNL     1      11.430   6.780  21.075  0.00  0.00    +0.081 C 
ATOM     27  H   UNL     1      12.268   5.221  20.060  0.00  0.00    +0.122 HD
ENDROOT
BRANCH   6  10
ATOM     10  C   UNL     1      14.121   9.130  18.628  0.00  0.00    +0.064 C 
BRANCH  10  20
ATOM      1  O   UNL     1      13.056   9.924  15.281  0.00  0.00    -0.359 OA
ATOM      4  N   UNL     1      13.039   9.130  16.422  0.00  0.00    -0.083 NA
ATOM     20  C   UNL     1      13.886   9.722  17.268  0.00  0.00    +0.084 A 
ATOM     21  C   UNL     1      13.908  10.965  15.473  0.00  0.00    +0.138 A 
ATOM     22  C   UNL     1      14.463  10.882  16.722  0.00  0.00    +0.071 A 
BRANCH  21  18
ATOM     18  C   UNL     1      14.049  11.910  14.359  0.00  0.00    +0.080 C 
BRANCH  18  11
ATOM     11  C   UNL     1      15.451  11.922  13.753  0.00  0.00    -0.004 C 
ATOM     14  C   UNL     1      16.293  13.053  14.361  0.00  0.00    +0.004 C 
ATOM     15  C   UNL     1      15.381  12.052  12.226  0.00  0.00    +0.004 C 
ATOM     16  C   UNL     1      17.684  13.119  13.733  0.00  0.00    +0.000 C 
ATOM     17  C   UNL     1      16.773  12.121  11.601  0.00  0.00    +0.000 C 
ATOM     19  C   UNL     1      17.610  13.240  12.213  0.00  0.00    +0.000 C 
ENDBRANCH  18  11
ENDBRANCH  21  18
ENDBRANCH  10  20
ENDBRANCH   6  10
BRANCH   7  13
ATOM     13  C   UNL     1      13.206   9.376  21.509  0.00  0.00    +0.099 C 
BRANCH  13  23
ATOM      2  O   UNL     1      13.113  11.794  21.489  0.00  0.00    -0.276 OA
ATOM      5  N   UNL     1      12.651  10.650  23.460  0.00  0.00    -0.313 N 
ATOM     23  C   UNL     1      12.992  10.745  22.118  0.00  0.00    +0.213 C 
ATOM     28  H   UNL     1      12.520   9.729  23.869  0.00  0.00    +0.149 HD
BRANCH   5  24
ATOM     24  C   UNL     1      12.392  11.803  24.291  0.00  0.00    +0.067 C 
ATOM     25  C   UNL     1      13.556  12.041  25.244  0.00  0.00    +0.027 C 
ATOM     26  C   UNL     1      11.082  11.629  25.051  0.00  0.00    +0.027 C 
ENDBRANCH   5  24
ENDBRANCH  13  23
ENDBRANCH   7  13
TORSDOF 7
ENDMDL
MODEL 10
REMARK VINA RESULT:      -5.9     27.683     32.487
REMARK  Name = 40777341
REMARK  9 active torsions:
REMARK  status: ('A' for Active; 'I' for Inactive)
REMARK    1  A    between atoms: N_5  and  C_24
REMARK    2  A    between atoms: C_6  and  C_10
REMARK    3  A    between atoms: C_7  and  C_13
REMARK    4  A    between atoms: C_10  and  C_20
REMARK    5  A    between atoms: C_11  and  C_18
REMARK    6  A    between atoms: C_13  and  C_23
REMARK    7  A    between atoms: C_18  and  C_21
REMARK    8  A    between atoms: C_24  and  C_25
REMARK    9  A    between atoms: C_24  and  C_26
REMARK                            x       y       z     vdW  Elec       q    Type
REMARK                         _______ _______ _______ _____ _____    ______ ____
ROOT
ATOM      3  N   UNL     1     -16.164   5.685  22.114  0.00  0.00    -0.316 NA
ATOM      6  C   UNL     1     -14.900   7.821  22.026  0.00  0.00    +0.012 C 
ATOM      7  C   UNL     1     -13.622   7.079  21.568  0.00  0.00    +0.004 C 
ATOM      8  C   UNL     1     -13.696   5.615  22.034  0.00  0.00    +0.019 C 
ATOM      9  C   UNL     1     -16.174   7.062  21.618  0.00  0.00    +0.085 C 
ATOM     12  C   UNL     1     -15.005   4.940  21.626  0.00  0.00    +0.081 C 
ATOM     27  H   UNL     1     -17.017   5.213  21.817  0.00  0.00    +0.122 HD
ENDROOT
BRANCH   6  10
ATOM     10  C   UNL     1     -14.959   9.269  21.540  0.00  0.00    +0.064 C 
BRANCH  10  20
ATOM      1  O   UNL     1     -12.082  11.349  22.140  0.00  0.00    -0.359 OA
ATOM      4  N   UNL     1     -12.972  10.694  21.298  0.00  0.00    -0.083 NA
ATOM     20  C   UNL     1     -13.836  10.085  22.114  0.00  0.00    +0.084 A 
ATOM     21  C   UNL     1     -12.433  11.116  23.431  0.00  0.00    +0.138 A 
ATOM     22  C   UNL     1     -13.543  10.316  23.469  0.00  0.00    +0.071 A 
BRANCH  21  18
ATOM     18  C   UNL     1     -11.593  11.738  24.461  0.00  0.00    +0.080 C 
BRANCH  18  11
ATOM     11  C   UNL     1     -11.908  11.247  25.872  0.00  0.00    -0.004 C 
ATOM     14  C   UNL     1     -12.185  12.431  26.809  0.00  0.00    +0.004 C 
ATOM     15  C   UNL     1     -10.765  10.378  26.413  0.00  0.00    +0.004 C 
ATOM     16  C   UNL     1     -12.451  11.968  28.239  0.00  0.00    +0.000 C 
ATOM     17  C   UNL     1     -11.033   9.919  27.844  0.00  0.00    +0.000 C 
ATOM     19  C   UNL     1     -11.316  11.098  28.770  0.00  0.00    +0.000 C 
ENDBRANCH  18  11
ENDBRANCH  21  18
ENDBRANCH  10  20
ENDBRANCH   6  10
BRANCH   7  13
ATOM     13  C   UNL     1     -13.361   7.159  20.059  0.00  0.00    +0.099 C 
BRANCH  13  23
ATOM      2  O   UNL     1     -11.004   7.416  20.543  0.00  0.00    -0.276 OA
ATOM      5  N   UNL     1     -11.814   8.033  18.454  0.00  0.00    -0.313 N 
ATOM     23  C   UNL     1     -11.929   7.537  19.744  0.00  0.00    +0.213 C 
ATOM     28  H   UNL     1     -12.634   8.037  17.854  0.00  0.00    +0.149 HD
BRANCH   5  24
ATOM     24  C   UNL     1     -10.560   8.474  17.887  0.00  0.00    +0.067 C 
ATOM     25  C   UNL     1     -10.222   9.876  18.376  0.00  0.00    +0.027 C 
ATOM     26  C   UNL     1     -10.613   8.418  16.365  0.00  0.00    +0.027 C 
ENDBRANCH   5  24
ENDBRANCH  13  23
ENDBRANCH   7  13
TORSDOF 7
ENDMDL
