MODEL 1
REMARK VINA RESULT:      -6.2      0.000      0.000
REMARK  Name = 75536856
REMARK  5 active torsions:
REMARK  status: ('A' for Active; 'I' for Inactive)
REMARK    1  A    between atoms: O_5  and  C_10
REMARK    2  A    between atoms: O_5  and  C_17
REMARK    3  A    between atoms: C_15  and  C_16
REMARK    4  A    between atoms: C_24  and  C_27
REMARK    5  A    between atoms: C_25  and  C_28
REMARK                            x       y       z     vdW  Elec       q    Type
REMARK                         _______ _______ _______ _____ _____    ______ ____
ROOT
ATOM      4  O   UNL     1      -2.888 -12.532   0.249  0.00  0.00    -0.375 OA
ATOM      6  O   UNL     1      -1.161 -14.299   3.566  0.00  0.00    -0.270 OA
ATOM      7  N   UNL     1      -1.765 -14.876   1.383  0.00  0.00    -0.292 N 
ATOM     10  C   UNL     1      -1.469 -14.070  -0.967  0.00  0.00    +0.218 C 
ATOM     11  C   UNL     1      -1.402 -15.246   0.011  0.00  0.00    +0.155 C 
ATOM     12  C   UNL     1      -3.182 -14.610   1.605  0.00  0.00    +0.136 C 
ATOM     13  C   UNL     1      -2.797 -13.312  -0.935  0.00  0.00    +0.206 C 
ATOM     14  C   UNL     1      -3.541 -13.147   1.354  0.00  0.00    +0.179 C 
ATOM     15  C   UNL     1      -0.867 -14.683   2.436  0.00  0.00    +0.247 C 
ENDROOT
BRANCH  15  16
ATOM     16  C   UNL     1       0.553 -14.950   2.186  0.00  0.00    +0.037 A 
ATOM     18  C   UNL     1       1.140 -16.117   2.676  0.00  0.00    +0.014 A 
ATOM     19  C   UNL     1       1.317 -14.038   1.458  0.00  0.00    +0.014 A 
ATOM     21  C   UNL     1       2.490 -16.372   2.438  0.00  0.00    +0.019 A 
ATOM     22  C   UNL     1       2.668 -14.293   1.220  0.00  0.00    +0.019 A 
ATOM     25  C   UNL     1       3.255 -15.460   1.710  0.00  0.00    +0.052 A 
BRANCH  25  28
ATOM      9  N   UNL     1       5.761 -15.933   1.269  0.00  0.00    -0.191 NA
ATOM     28  C   UNL     1       4.638 -15.721   1.467  0.00  0.00    +0.099 C 
ENDBRANCH  25  28
ENDBRANCH  15  16
BRANCH  10   5
ATOM      5  O   UNL     1      -1.278 -14.569  -2.289  0.00  0.00    -0.469 OA
BRANCH   5  17
ATOM      8  N   UNL     1      -1.004 -13.478  -4.317  0.00  0.00    -0.221 NA
ATOM     17  C   UNL     1      -0.485 -13.821  -3.116  0.00  0.00    +0.215 A 
ATOM     20  C   UNL     1       0.783 -13.463  -2.688  0.00  0.00    +0.068 A 
ATOM     23  C   UNL     1       1.569 -12.704  -3.546  0.00  0.00    +0.019 A 
ATOM     24  C   UNL     1       1.071 -12.330  -4.789  0.00  0.00    +0.073 A 
ATOM     26  C   UNL     1      -0.210 -12.740  -5.124  0.00  0.00    +0.127 A 
BRANCH  24  27
ATOM      1  F   UNL     1       3.064 -12.112  -6.093  0.00  0.00    -0.166 F 
ATOM      2  F   UNL     1       2.248 -10.295  -5.234  0.00  0.00    -0.166 F 
ATOM      3  F   UNL     1       1.238 -11.255  -6.903  0.00  0.00    -0.166 F 
ATOM     27  C   UNL     1       1.887 -11.518  -5.730  0.00  0.00    +0.419 C 
ENDBRANCH  24  27
ENDBRANCH   5  17
ENDBRANCH  10   5
TORSDOF 5
ENDMDL
MODEL 2
REMARK VINA RESULT:      -6.2     23.247     24.416
REMARK  Name = 75536856
REMARK  5 active torsions:
REMARK  status: ('A' for Active; 'I' for Inactive)
REMARK    1  A    between atoms: O_5  and  C_10
REMARK    2  A    between atoms: O_5  and  C_17
REMARK    3  A    between atoms: C_15  and  C_16
REMARK    4  A    between atoms: C_24  and  C_27
REMARK    5  A    between atoms: C_25  and  C_28
REMARK                            x       y       z     vdW  Elec       q    Type
REMARK                         _______ _______ _______ _____ _____    ______ ____
ROOT
ATOM      4  O   UNL     1       8.282   7.715   5.513  0.00  0.00    -0.375 OA
ATOM      6  O   UNL     1      11.504   9.197   7.643  0.00  0.00    -0.270 OA
ATOM      7  N   UNL     1      10.754   7.156   6.785  0.00  0.00    -0.292 N 
ATOM     10  C   UNL     1       9.923   6.163   4.643  0.00  0.00    +0.218 C 
ATOM     11  C   UNL     1      10.878   6.045   5.834  0.00  0.00    +0.155 C 
ATOM     12  C   UNL     1       9.542   7.152   7.596  0.00  0.00    +0.136 C 
ATOM     13  C   UNL     1       8.463   6.387   5.040  0.00  0.00    +0.206 C 
ATOM     14  C   UNL     1       8.394   7.897   6.921  0.00  0.00    +0.179 C 
ATOM     15  C   UNL     1      11.644   8.227   6.901  0.00  0.00    +0.247 C 
ENDROOT
BRANCH  15  16
ATOM     16  C   UNL     1      12.852   8.211   6.069  0.00  0.00    +0.037 A 
ATOM     18  C   UNL     1      12.862   8.871   4.840  0.00  0.00    +0.014 A 
ATOM     19  C   UNL     1      13.992   7.537   6.507  0.00  0.00    +0.014 A 
ATOM     21  C   UNL     1      14.010   8.857   4.050  0.00  0.00    +0.019 A 
ATOM     22  C   UNL     1      15.141   7.524   5.717  0.00  0.00    +0.019 A 
ATOM     25  C   UNL     1      15.151   8.183   4.488  0.00  0.00    +0.052 A 
BRANCH  25  28
ATOM      9  N   UNL     1      17.282   8.157   3.019  0.00  0.00    -0.191 NA
ATOM     28  C   UNL     1      16.327   8.169   3.677  0.00  0.00    +0.099 C 
ENDBRANCH  25  28
ENDBRANCH  15  16
BRANCH  10   5
ATOM      5  O   UNL     1       9.994   4.957   3.885  0.00  0.00    -0.469 OA
BRANCH   5  17
ATOM      8  N   UNL     1      11.358   3.522   2.677  0.00  0.00    -0.221 NA
ATOM     17  C   UNL     1      11.123   4.773   3.135  0.00  0.00    +0.215 A 
ATOM     20  C   UNL     1      11.950   5.857   2.889  0.00  0.00    +0.068 A 
ATOM     23  C   UNL     1      13.091   5.645   2.124  0.00  0.00    +0.019 A 
ATOM     24  C   UNL     1      13.367   4.373   1.634  0.00  0.00    +0.073 A 
ATOM     26  C   UNL     1      12.476   3.354   1.937  0.00  0.00    +0.127 A 
BRANCH  24  27
ATOM      1  F   UNL     1      15.432   3.197   1.364  0.00  0.00    -0.166 F 
ATOM      2  F   UNL     1      15.347   5.224   0.597  0.00  0.00    -0.166 F 
ATOM      3  F   UNL     1      14.283   3.630  -0.430  0.00  0.00    -0.166 F 
ATOM     27  C   UNL     1      14.579   4.113   0.814  0.00  0.00    +0.419 C 
ENDBRANCH  24  27
ENDBRANCH   5  17
ENDBRANCH  10   5
TORSDOF 5
ENDMDL
MODEL 3
REMARK VINA RESULT:      -6.2     22.898     24.597
REMARK  Name = 75536856
REMARK  5 active torsions:
REMARK  status: ('A' for Active; 'I' for Inactive)
REMARK    1  A    between atoms: O_5  and  C_10
REMARK    2  A    between atoms: O_5  and  C_17
REMARK    3  A    between atoms: C_15  and  C_16
REMARK    4  A    between atoms: C_24  and  C_27
REMARK    5  A    between atoms: C_25  and  C_28
REMARK                            x       y       z     vdW  Elec       q    Type
REMARK                         _______ _______ _______ _____ _____    ______ ____
ROOT
ATOM      4  O   UNL     1       7.001   9.302   3.705  0.00  0.00    -0.375 OA
ATOM      6  O   UNL     1       8.760   8.478   0.053  0.00  0.00    -0.270 OA
ATOM      7  N   UNL     1       9.363   9.347   2.137  0.00  0.00    -0.292 N 
ATOM     10  C   UNL     1       9.202   8.788   4.571  0.00  0.00    +0.218 C 
ATOM     11  C   UNL     1      10.089   9.238   3.407  0.00  0.00    +0.155 C 
ATOM     12  C   UNL     1       8.445  10.476   2.037  0.00  0.00    +0.136 C 
ATOM     13  C   UNL     1       7.928   9.617   4.735  0.00  0.00    +0.206 C 
ATOM     14  C   UNL     1       7.048  10.130   2.548  0.00  0.00    +0.179 C 
ATOM     15  C   UNL     1       9.424   8.429   1.086  0.00  0.00    +0.247 C 
ENDROOT
BRANCH  15  16
ATOM     16  C   UNL     1      10.350   7.298   1.213  0.00  0.00    +0.037 A 
ATOM     18  C   UNL     1       9.961   6.153   1.909  0.00  0.00    +0.014 A 
ATOM     19  C   UNL     1      11.619   7.368   0.638  0.00  0.00    +0.014 A 
ATOM     21  C   UNL     1      10.841   5.077   2.029  0.00  0.00    +0.019 A 
ATOM     22  C   UNL     1      12.499   6.292   0.758  0.00  0.00    +0.019 A 
ATOM     25  C   UNL     1      12.110   5.147   1.453  0.00  0.00    +0.052 A 
BRANCH  25  28
ATOM      9  N   UNL     1      13.743   3.150   1.678  0.00  0.00    -0.191 NA
ATOM     28  C   UNL     1      13.011   4.045   1.577  0.00  0.00    +0.099 C 
ENDBRANCH  25  28
ENDBRANCH  15  16
BRANCH  10   5
ATOM      5  O   UNL     1       9.953   8.888   5.778  0.00  0.00    -0.469 OA
BRANCH   5  17
ATOM      8  N   UNL     1       9.166   8.168   7.837  0.00  0.00    -0.221 NA
ATOM     17  C   UNL     1       9.800   7.871   6.680  0.00  0.00    +0.215 A 
ATOM     20  C   UNL     1      10.294   6.615   6.366  0.00  0.00    +0.068 A 
ATOM     23  C   UNL     1      10.126   5.598   7.299  0.00  0.00    +0.019 A 
ATOM     24  C   UNL     1       9.478   5.863   8.500  0.00  0.00    +0.073 A 
ATOM     26  C   UNL     1       9.021   7.154   8.719  0.00  0.00    +0.127 A 
BRANCH  24  27
ATOM      1  F   UNL     1      10.269   4.753  10.465  0.00  0.00    -0.166 F 
ATOM      2  F   UNL     1       9.240   3.535   8.994  0.00  0.00    -0.166 F 
ATOM      3  F   UNL     1       8.117   4.939  10.216  0.00  0.00    -0.166 F 
ATOM     27  C   UNL     1       9.283   4.798   9.518  0.00  0.00    +0.419 C 
ENDBRANCH  24  27
ENDBRANCH   5  17
ENDBRANCH  10   5
TORSDOF 5
ENDMDL
MODEL 4
REMARK VINA RESULT:      -6.1     16.428     18.988
REMARK  Name = 75536856
REMARK  5 active torsions:
REMARK  status: ('A' for Active; 'I' for Inactive)
REMARK    1  A    between atoms: O_5  and  C_10
REMARK    2  A    between atoms: O_5  and  C_17
REMARK    3  A    between atoms: C_15  and  C_16
REMARK    4  A    between atoms: C_24  and  C_27
REMARK    5  A    between atoms: C_25  and  C_28
REMARK                            x       y       z     vdW  Elec       q    Type
REMARK                         _______ _______ _______ _____ _____    ______ ____
ROOT
ATOM      4  O   UNL     1     -10.525  -8.530  15.386  0.00  0.00    -0.375 OA
ATOM      6  O   UNL     1     -10.434 -11.100  18.625  0.00  0.00    -0.270 OA
ATOM      7  N   UNL     1      -9.833 -11.098  16.367  0.00  0.00    -0.292 N 
ATOM     10  C   UNL     1      -8.529  -9.728  14.728  0.00  0.00    +0.218 C 
ATOM     11  C   UNL     1      -8.810 -11.114  15.315  0.00  0.00    +0.155 C 
ATOM     12  C   UNL     1     -11.199 -10.879  15.906  0.00  0.00    +0.136 C 
ATOM     13  C   UNL     1      -9.783  -8.987  14.263  0.00  0.00    +0.206 C 
ATOM     14  C   UNL     1     -11.557  -9.396  15.847  0.00  0.00    +0.179 C 
ATOM     15  C   UNL     1      -9.587 -11.189  17.739  0.00  0.00    +0.247 C 
ENDROOT
BRANCH  15  16
ATOM     16  C   UNL     1      -8.204 -11.403  18.177  0.00  0.00    +0.037 A 
ATOM     18  C   UNL     1      -7.648 -12.682  18.136  0.00  0.00    +0.014 A 
ATOM     19  C   UNL     1      -7.443 -10.327  18.636  0.00  0.00    +0.014 A 
ATOM     21  C   UNL     1      -6.333 -12.886  18.552  0.00  0.00    +0.019 A 
ATOM     22  C   UNL     1      -6.127 -10.530  19.051  0.00  0.00    +0.019 A 
ATOM     25  C   UNL     1      -5.572 -11.810  19.010  0.00  0.00    +0.052 A 
BRANCH  25  28
ATOM      9  N   UNL     1      -3.130 -12.189  19.783  0.00  0.00    -0.191 NA
ATOM     28  C   UNL     1      -4.225 -12.018  19.436  0.00  0.00    +0.099 C 
ENDBRANCH  25  28
ENDBRANCH  15  16
BRANCH  10   5
ATOM      5  O   UNL     1      -7.664  -9.880  13.604  0.00  0.00    -0.469 OA
BRANCH   5  17
ATOM      8  N   UNL     1      -5.548 -10.424  12.826  0.00  0.00    -0.221 NA
ATOM     17  C   UNL     1      -6.345 -10.121  13.876  0.00  0.00    +0.215 A 
ATOM     20  C   UNL     1      -5.905 -10.044  15.187  0.00  0.00    +0.068 A 
ATOM     23  C   UNL     1      -4.561 -10.293  15.439  0.00  0.00    +0.019 A 
ATOM     24  C   UNL     1      -3.709 -10.607  14.385  0.00  0.00    +0.073 A 
ATOM     26  C   UNL     1      -4.248 -10.660  13.109  0.00  0.00    +0.127 A 
BRANCH  24  27
ATOM      1  F   UNL     1      -1.480  -9.762  14.577  0.00  0.00    -0.166 F 
ATOM      2  F   UNL     1      -1.711 -11.737  13.712  0.00  0.00    -0.166 F 
ATOM      3  F   UNL     1      -2.027 -11.443  15.843  0.00  0.00    -0.166 F 
ATOM     27  C   UNL     1      -2.266 -10.880  14.621  0.00  0.00    +0.419 C 
ENDBRANCH  24  27
ENDBRANCH   5  17
ENDBRANCH  10   5
TORSDOF 5
ENDMDL
MODEL 5
REMARK VINA RESULT:      -6.0     29.940     32.763
REMARK  Name = 75536856
REMARK  5 active torsions:
REMARK  status: ('A' for Active; 'I' for Inactive)
REMARK    1  A    between atoms: O_5  and  C_10
REMARK    2  A    between atoms: O_5  and  C_17
REMARK    3  A    between atoms: C_15  and  C_16
REMARK    4  A    between atoms: C_24  and  C_27
REMARK    5  A    between atoms: C_25  and  C_28
REMARK                            x       y       z     vdW  Elec       q    Type
REMARK                         _______ _______ _______ _____ _____    ______ ____
ROOT
ATOM      4  O   UNL     1     -11.358  11.808  18.798  0.00  0.00    -0.375 OA
ATOM      6  O   UNL     1     -11.220  11.940  14.666  0.00  0.00    -0.270 OA
ATOM      7  N   UNL     1     -10.378  10.633  16.411  0.00  0.00    -0.292 N 
ATOM     10  C   UNL     1     -11.164   9.421  18.454  0.00  0.00    +0.218 C 
ATOM     11  C   UNL     1     -10.341   9.374  17.164  0.00  0.00    +0.155 C 
ATOM     12  C   UNL     1      -9.625  11.735  16.999  0.00  0.00    +0.136 C 
ATOM     13  C   UNL     1     -10.835  10.611  19.356  0.00  0.00    +0.206 C 
ATOM     14  C   UNL     1     -10.468  12.554  17.974  0.00  0.00    +0.179 C 
ATOM     15  C   UNL     1     -11.128  10.865  15.256  0.00  0.00    +0.247 C 
ENDROOT
BRANCH  15  16
ATOM     16  C   UNL     1     -11.882   9.743  14.687  0.00  0.00    +0.037 A 
ATOM     18  C   UNL     1     -13.253   9.636  14.918  0.00  0.00    +0.014 A 
ATOM     19  C   UNL     1     -11.227   8.783  13.915  0.00  0.00    +0.014 A 
ATOM     21  C   UNL     1     -13.970   8.569  14.377  0.00  0.00    +0.019 A 
ATOM     22  C   UNL     1     -11.945   7.716  13.373  0.00  0.00    +0.019 A 
ATOM     25  C   UNL     1     -13.316   7.609  13.604  0.00  0.00    +0.052 A 
BRANCH  25  28
ATOM      9  N   UNL     1     -14.648   5.629  12.601  0.00  0.00    -0.191 NA
ATOM     28  C   UNL     1     -14.051   6.516  13.050  0.00  0.00    +0.099 C 
ENDBRANCH  25  28
ENDBRANCH  15  16
BRANCH  10   5
ATOM      5  O   UNL     1     -10.917   8.226  19.192  0.00  0.00    -0.469 OA
BRANCH   5  17
ATOM      8  N   UNL     1     -13.215   7.925  19.266  0.00  0.00    -0.221 NA
ATOM     17  C   UNL     1     -12.000   7.640  19.787  0.00  0.00    +0.215 A 
ATOM     20  C   UNL     1     -11.799   6.803  20.873  0.00  0.00    +0.068 A 
ATOM     23  C   UNL     1     -12.915   6.220  21.461  0.00  0.00    +0.019 A 
ATOM     24  C   UNL     1     -14.182   6.488  20.953  0.00  0.00    +0.073 A 
ATOM     26  C   UNL     1     -14.277   7.340  19.864  0.00  0.00    +0.127 A 
BRANCH  24  27
ATOM      1  F   UNL     1     -16.055   6.711  22.423  0.00  0.00    -0.166 F 
ATOM      2  F   UNL     1     -15.143   4.748  22.284  0.00  0.00    -0.166 F 
ATOM      3  F   UNL     1     -16.326   5.514  20.628  0.00  0.00    -0.166 F 
ATOM     27  C   UNL     1     -15.395   5.880  21.560  0.00  0.00    +0.419 C 
ENDBRANCH  24  27
ENDBRANCH   5  17
ENDBRANCH  10   5
TORSDOF 5
ENDMDL
MODEL 6
REMARK VINA RESULT:      -6.0     20.790     23.719
REMARK  Name = 75536856
REMARK  5 active torsions:
REMARK  status: ('A' for Active; 'I' for Inactive)
REMARK    1  A    between atoms: O_5  and  C_10
REMARK    2  A    between atoms: O_5  and  C_17
REMARK    3  A    between atoms: C_15  and  C_16
REMARK    4  A    between atoms: C_24  and  C_27
REMARK    5  A    between atoms: C_25  and  C_28
REMARK                            x       y       z     vdW  Elec       q    Type
REMARK                         _______ _______ _______ _____ _____    ______ ____
ROOT
ATOM      4  O   UNL     1      -6.456 -11.274  19.928  0.00  0.00    -0.375 OA
ATOM      6  O   UNL     1      -6.315  -9.279  16.307  0.00  0.00    -0.270 OA
ATOM      7  N   UNL     1      -7.411 -11.109  17.263  0.00  0.00    -0.292 N 
ATOM     10  C   UNL     1      -8.752 -11.698  19.292  0.00  0.00    +0.218 C 
ATOM     11  C   UNL     1      -8.632 -11.749  17.766  0.00  0.00    +0.155 C 
ATOM     12  C   UNL     1      -6.174 -11.841  17.511  0.00  0.00    +0.136 C 
ATOM     13  C   UNL     1      -7.516 -12.215  20.029  0.00  0.00    +0.206 C 
ATOM     14  C   UNL     1      -5.545 -11.473  18.852  0.00  0.00    +0.179 C 
ATOM     15  C   UNL     1      -7.345  -9.850  16.661  0.00  0.00    +0.247 C 
ENDROOT
BRANCH  15  16
ATOM     16  C   UNL     1      -8.602  -9.131  16.429  0.00  0.00    +0.037 A 
ATOM     18  C   UNL     1      -9.246  -9.233  15.195  0.00  0.00    +0.014 A 
ATOM     19  C   UNL     1      -9.153  -8.346  17.441  0.00  0.00    +0.014 A 
ATOM     21  C   UNL     1     -10.442  -8.550  14.974  0.00  0.00    +0.019 A 
ATOM     22  C   UNL     1     -10.350  -7.664  17.220  0.00  0.00    +0.019 A 
ATOM     25  C   UNL     1     -10.994  -7.765  15.987  0.00  0.00    +0.052 A 
BRANCH  25  28
ATOM      9  N   UNL     1     -13.214  -6.497  15.576  0.00  0.00    -0.191 NA
ATOM     28  C   UNL     1     -12.219  -7.065  15.761  0.00  0.00    +0.099 C 
ENDBRANCH  25  28
ENDBRANCH  15  16
BRANCH  10   5
ATOM      5  O   UNL     1      -9.867 -12.496  19.684  0.00  0.00    -0.469 OA
BRANCH   5  17
ATOM      8  N   UNL     1     -12.140 -12.584  20.134  0.00  0.00    -0.221 NA
ATOM     17  C   UNL     1     -11.032 -11.831  19.950  0.00  0.00    +0.215 A 
ATOM     20  C   UNL     1     -11.015 -10.447  20.014  0.00  0.00    +0.068 A 
ATOM     23  C   UNL     1     -12.212  -9.793  20.286  0.00  0.00    +0.019 A 
ATOM     24  C   UNL     1     -13.373 -10.533  20.481  0.00  0.00    +0.073 A 
ATOM     26  C   UNL     1     -13.285 -11.914  20.395  0.00  0.00    +0.127 A 
BRANCH  24  27
ATOM      1  F   UNL     1     -14.545  -8.543  21.103  0.00  0.00    -0.166 F 
ATOM      2  F   UNL     1     -15.358 -10.424  21.812  0.00  0.00    -0.166 F 
ATOM      3  F   UNL     1     -15.529  -9.893  19.711  0.00  0.00    -0.166 F 
ATOM     27  C   UNL     1     -14.668  -9.864  20.772  0.00  0.00    +0.419 C 
ENDBRANCH  24  27
ENDBRANCH   5  17
ENDBRANCH  10   5
TORSDOF 5
ENDMDL
MODEL 7
REMARK VINA RESULT:      -5.9     15.688     18.126
REMARK  Name = 75536856
REMARK  5 active torsions:
REMARK  status: ('A' for Active; 'I' for Inactive)
REMARK    1  A    between atoms: O_5  and  C_10
REMARK    2  A    between atoms: O_5  and  C_17
REMARK    3  A    between atoms: C_15  and  C_16
REMARK    4  A    between atoms: C_24  and  C_27
REMARK    5  A    between atoms: C_25  and  C_28
REMARK                            x       y       z     vdW  Elec       q    Type
REMARK                         _______ _______ _______ _____ _____    ______ ____
ROOT
ATOM      4  O   UNL     1     -10.179  -9.227  17.410  0.00  0.00    -0.375 OA
ATOM      6  O   UNL     1      -7.289 -10.644  20.007  0.00  0.00    -0.270 OA
ATOM      7  N   UNL     1      -8.346 -11.300  18.029  0.00  0.00    -0.292 N 
ATOM     10  C   UNL     1      -8.877 -10.413  15.750  0.00  0.00    +0.218 C 
ATOM     11  C   UNL     1      -8.311 -11.564  16.586  0.00  0.00    +0.155 C 
ATOM     12  C   UNL     1      -9.671 -11.342  18.640  0.00  0.00    +0.136 C 
ATOM     13  C   UNL     1     -10.267  -9.952  16.191  0.00  0.00    +0.206 C 
ATOM     14  C   UNL     1     -10.366  -9.984  18.601  0.00  0.00    +0.179 C 
ATOM     15  C   UNL     1      -7.249 -10.939  18.815  0.00  0.00    +0.247 C 
ENDROOT
BRANCH  15  16
ATOM     16  C   UNL     1      -5.929 -10.898  18.176  0.00  0.00    +0.037 A 
ATOM     18  C   UNL     1      -4.936 -11.796  18.568  0.00  0.00    +0.014 A 
ATOM     19  C   UNL     1      -5.667  -9.961  17.177  0.00  0.00    +0.014 A 
ATOM     21  C   UNL     1      -3.682 -11.757  17.961  0.00  0.00    +0.019 A 
ATOM     22  C   UNL     1      -4.413  -9.923  16.568  0.00  0.00    +0.019 A 
ATOM     25  C   UNL     1      -3.419 -10.821  16.960  0.00  0.00    +0.052 A 
BRANCH  25  28
ATOM      9  N   UNL     1      -1.089 -10.749  15.834  0.00  0.00    -0.191 NA
ATOM     28  C   UNL     1      -2.134 -10.781  16.338  0.00  0.00    +0.099 C 
ENDBRANCH  25  28
ENDBRANCH  15  16
BRANCH  10   5
ATOM      5  O   UNL     1      -8.963 -10.839  14.392  0.00  0.00    -0.469 OA
BRANCH   5  17
ATOM      8  N   UNL     1      -8.190  -9.546  12.630  0.00  0.00    -0.221 NA
ATOM     17  C   UNL     1      -7.929 -10.480  13.572  0.00  0.00    +0.215 A 
ATOM     20  C   UNL     1      -6.694 -11.083  13.746  0.00  0.00    +0.068 A 
ATOM     23  C   UNL     1      -5.659 -10.702  12.900  0.00  0.00    +0.019 A 
ATOM     24  C   UNL     1      -5.887  -9.743  11.919  0.00  0.00    +0.073 A 
ATOM     26  C   UNL     1      -7.159  -9.200  11.826  0.00  0.00    +0.127 A 
BRANCH  24  27
ATOM      1  F   UNL     1      -3.544  -9.546  11.483  0.00  0.00    -0.166 F 
ATOM      2  F   UNL     1      -4.824  -7.979  10.702  0.00  0.00    -0.166 F 
ATOM      3  F   UNL     1      -4.848  -9.953   9.791  0.00  0.00    -0.166 F 
ATOM     27  C   UNL     1      -4.801  -9.314  10.999  0.00  0.00    +0.419 C 
ENDBRANCH  24  27
ENDBRANCH   5  17
ENDBRANCH  10   5
TORSDOF 5
ENDMDL
MODEL 8
REMARK VINA RESULT:      -5.9     24.650     25.997
REMARK  Name = 75536856
REMARK  5 active torsions:
REMARK  status: ('A' for Active; 'I' for Inactive)
REMARK    1  A    between atoms: O_5  and  C_10
REMARK    2  A    between atoms: O_5  and  C_17
REMARK    3  A    between atoms: C_15  and  C_16
REMARK    4  A    between atoms: C_24  and  C_27
REMARK    5  A    between atoms: C_25  and  C_28
REMARK                            x       y       z     vdW  Elec       q    Type
REMARK                         _______ _______ _______ _____ _____    ______ ____
ROOT
ATOM      4  O   UNL     1      11.378   9.700   2.857  0.00  0.00    -0.375 OA
ATOM      6  O   UNL     1       7.825   8.230   4.382  0.00  0.00    -0.270 OA
ATOM      7  N   UNL     1       9.821   7.413   3.478  0.00  0.00    -0.292 N 
ATOM     10  C   UNL     1      12.296   7.652   3.762  0.00  0.00    +0.218 C 
ATOM     11  C   UNL     1      11.098   6.707   3.628  0.00  0.00    +0.155 C 
ATOM     12  C   UNL     1       9.613   8.063   2.189  0.00  0.00    +0.136 C 
ATOM     13  C   UNL     1      12.377   8.709   2.660  0.00  0.00    +0.206 C 
ATOM     14  C   UNL     1      10.148   9.492   2.170  0.00  0.00    +0.179 C 
ATOM     15  C   UNL     1       8.861   7.574   4.481  0.00  0.00    +0.247 C 
ENDROOT
BRANCH  15  16
ATOM     16  C   UNL     1       9.097   6.917   5.771  0.00  0.00    +0.037 A 
ATOM     18  C   UNL     1       8.982   7.645   6.956  0.00  0.00    +0.014 A 
ATOM     19  C   UNL     1       9.435   5.565   5.814  0.00  0.00    +0.014 A 
ATOM     21  C   UNL     1       9.205   7.021   8.182  0.00  0.00    +0.019 A 
ATOM     22  C   UNL     1       9.657   4.940   7.041  0.00  0.00    +0.019 A 
ATOM     25  C   UNL     1       9.542   5.668   8.225  0.00  0.00    +0.052 A 
BRANCH  25  28
ATOM      9  N   UNL     1       9.957   4.509  10.503  0.00  0.00    -0.191 NA
ATOM     28  C   UNL     1       9.771   5.029   9.482  0.00  0.00    +0.099 C 
ENDBRANCH  25  28
ENDBRANCH  15  16
BRANCH  10   5
ATOM      5  O   UNL     1      13.491   6.875   3.718  0.00  0.00    -0.469 OA
BRANCH   5  17
ATOM      8  N   UNL     1      15.671   7.636   3.496  0.00  0.00    -0.221 NA
ATOM     17  C   UNL     1      14.601   7.429   4.296  0.00  0.00    +0.215 A 
ATOM     20  C   UNL     1      14.570   7.742   5.646  0.00  0.00    +0.068 A 
ATOM     23  C   UNL     1      15.709   8.303   6.210  0.00  0.00    +0.019 A 
ATOM     24  C   UNL     1      16.830   8.532   5.419  0.00  0.00    +0.073 A 
ATOM     26  C   UNL     1      16.760   8.183   4.079  0.00  0.00    +0.127 A 
BRANCH  24  27
ATOM      1  F   UNL     1      19.008   9.451   5.056  0.00  0.00    -0.166 F 
ATOM      2  F   UNL     1      18.711   8.316   6.881  0.00  0.00    -0.166 F 
ATOM      3  F   UNL     1      17.822  10.290   6.675  0.00  0.00    -0.166 F 
ATOM     27  C   UNL     1      18.064   9.130   5.993  0.00  0.00    +0.419 C 
ENDBRANCH  24  27
ENDBRANCH   5  17
ENDBRANCH  10   5
TORSDOF 5
ENDMDL
MODEL 9
REMARK VINA RESULT:      -5.8     14.839     18.127
REMARK  Name = 75536856
REMARK  5 active torsions:
REMARK  status: ('A' for Active; 'I' for Inactive)
REMARK    1  A    between atoms: O_5  and  C_10
REMARK    2  A    between atoms: O_5  and  C_17
REMARK    3  A    between atoms: C_15  and  C_16
REMARK    4  A    between atoms: C_24  and  C_27
REMARK    5  A    between atoms: C_25  and  C_28
REMARK                            x       y       z     vdW  Elec       q    Type
REMARK                         _______ _______ _______ _____ _____    ______ ____
ROOT
ATOM      4  O   UNL     1      -2.528 -10.325  15.962  0.00  0.00    -0.375 OA
ATOM      6  O   UNL     1      -1.455 -10.128  11.972  0.00  0.00    -0.270 OA
ATOM      7  N   UNL     1      -2.910 -11.340  13.342  0.00  0.00    -0.292 N 
ATOM     10  C   UNL     1      -4.684 -10.962  15.068  0.00  0.00    +0.218 C 
ATOM     11  C   UNL     1      -4.269 -11.681  13.781  0.00  0.00    +0.155 C 
ATOM     12  C   UNL     1      -1.834 -11.900  14.151  0.00  0.00    +0.136 C 
ATOM     13  C   UNL     1      -3.682 -11.114  16.213  0.00  0.00    +0.206 C 
ATOM     14  C   UNL     1      -1.448 -10.986  15.311  0.00  0.00    +0.179 C 
ATOM     15  C   UNL     1      -2.590 -10.475  12.293  0.00  0.00    +0.247 C 
ENDROOT
BRANCH  15  16
ATOM     16  C   UNL     1      -3.691  -9.919  11.499  0.00  0.00    +0.037 A 
ATOM     18  C   UNL     1      -3.545  -9.758  10.121  0.00  0.00    +0.014 A 
ATOM     19  C   UNL     1      -4.884  -9.553  12.121  0.00  0.00    +0.014 A 
ATOM     21  C   UNL     1      -4.592  -9.230   9.365  0.00  0.00    +0.019 A 
ATOM     22  C   UNL     1      -5.932  -9.025  11.366  0.00  0.00    +0.019 A 
ATOM     25  C   UNL     1      -5.785  -8.864   9.988  0.00  0.00    +0.052 A 
BRANCH  25  28
ATOM      9  N   UNL     1      -7.728  -7.883   8.585  0.00  0.00    -0.191 NA
ATOM     28  C   UNL     1      -6.857  -8.323   9.213  0.00  0.00    +0.099 C 
ENDBRANCH  25  28
ENDBRANCH  15  16
BRANCH  10   5
ATOM      5  O   UNL     1      -5.934 -11.496  15.500  0.00  0.00    -0.469 OA
BRANCH   5  17
ATOM      8  N   UNL     1      -7.055 -10.056  16.931  0.00  0.00    -0.221 NA
ATOM     17  C   UNL     1      -6.946 -10.597  15.697  0.00  0.00    +0.215 A 
ATOM     20  C   UNL     1      -7.791 -10.296  14.640  0.00  0.00    +0.068 A 
ATOM     23  C   UNL     1      -8.813  -9.381  14.865  0.00  0.00    +0.019 A 
ATOM     24  C   UNL     1      -8.957  -8.802  16.121  0.00  0.00    +0.073 A 
ATOM     26  C   UNL     1      -8.060  -9.170  17.112  0.00  0.00    +0.127 A 
BRANCH  24  27
ATOM      1  F   UNL     1      -9.968  -6.692  15.622  0.00  0.00    -0.166 F 
ATOM      2  F   UNL     1     -10.060  -7.364  17.682  0.00  0.00    -0.166 F 
ATOM      3  F   UNL     1     -11.287  -8.332  16.170  0.00  0.00    -0.166 F 
ATOM     27  C   UNL     1     -10.039  -7.820  16.393  0.00  0.00    +0.419 C 
ENDBRANCH  24  27
ENDBRANCH   5  17
ENDBRANCH  10   5
TORSDOF 5
ENDMDL
MODEL 10
REMARK VINA RESULT:      -5.8     37.918     40.756
REMARK  Name = 75536856
REMARK  5 active torsions:
REMARK  status: ('A' for Active; 'I' for Inactive)
REMARK    1  A    between atoms: O_5  and  C_10
REMARK    2  A    between atoms: O_5  and  C_17
REMARK    3  A    between atoms: C_15  and  C_16
REMARK    4  A    between atoms: C_24  and  C_27
REMARK    5  A    between atoms: C_25  and  C_28
REMARK                            x       y       z     vdW  Elec       q    Type
REMARK                         _______ _______ _______ _____ _____    ______ ____
ROOT
ATOM      4  O   UNL     1     -16.638   5.375  33.860  0.00  0.00    -0.375 OA
ATOM      6  O   UNL     1     -13.339   7.622  34.944  0.00  0.00    -0.270 OA
ATOM      7  N   UNL     1     -13.904   5.965  33.395  0.00  0.00    -0.292 N 
ATOM     10  C   UNL     1     -15.637   5.471  31.659  0.00  0.00    +0.218 C 
ATOM     11  C   UNL     1     -14.149   5.535  32.014  0.00  0.00    +0.155 C 
ATOM     12  C   UNL     1     -14.235   4.985  34.423  0.00  0.00    +0.136 C 
ATOM     13  C   UNL     1     -16.475   4.656  32.645  0.00  0.00    +0.206 C 
ATOM     14  C   UNL     1     -15.686   5.098  34.882  0.00  0.00    +0.179 C 
ATOM     15  C   UNL     1     -13.472   7.235  33.784  0.00  0.00    +0.247 C 
ENDROOT
BRANCH  15  16
ATOM     16  C   UNL     1     -13.152   8.206  32.732  0.00  0.00    +0.037 A 
ATOM     18  C   UNL     1     -11.843   8.320  32.263  0.00  0.00    +0.014 A 
ATOM     19  C   UNL     1     -14.156   9.015  32.201  0.00  0.00    +0.014 A 
ATOM     21  C   UNL     1     -11.539   9.242  31.262  0.00  0.00    +0.019 A 
ATOM     22  C   UNL     1     -13.852   9.937  31.199  0.00  0.00    +0.019 A 
ATOM     25  C   UNL     1     -12.543  10.051  30.730  0.00  0.00    +0.052 A 
BRANCH  25  28
ATOM      9  N   UNL     1     -11.977  11.763  28.872  0.00  0.00    -0.191 NA
ATOM     28  C   UNL     1     -12.231  10.996  29.705  0.00  0.00    +0.099 C 
ENDBRANCH  25  28
ENDBRANCH  15  16
BRANCH  10   5
ATOM      5  O   UNL     1     -15.770   4.876  30.370  0.00  0.00    -0.469 OA
BRANCH   5  17
ATOM      8  N   UNL     1     -14.069   3.306  30.510  0.00  0.00    -0.221 NA
ATOM     17  C   UNL     1     -15.370   3.573  30.255  0.00  0.00    +0.215 A 
ATOM     20  C   UNL     1     -16.301   2.614  29.889  0.00  0.00    +0.068 A 
ATOM     23  C   UNL     1     -15.870   1.297  29.778  0.00  0.00    +0.019 A 
ATOM     24  C   UNL     1     -14.540   0.982  30.033  0.00  0.00    +0.073 A 
ATOM     26  C   UNL     1     -13.687   2.015  30.392  0.00  0.00    +0.127 A 
BRANCH  24  27
ATOM      1  F   UNL     1     -14.849  -1.333  30.546  0.00  0.00    -0.166 F 
ATOM      2  F   UNL     1     -12.806  -0.609  30.463  0.00  0.00    -0.166 F 
ATOM      3  F   UNL     1     -13.950  -0.842  28.628  0.00  0.00    -0.166 F 
ATOM     27  C   UNL     1     -14.048  -0.416  29.923  0.00  0.00    +0.419 C 
ENDBRANCH  24  27
ENDBRANCH   5  17
ENDBRANCH  10   5
TORSDOF 5
ENDMDL
