MODEL 1
REMARK VINA RESULT:      -7.9      0.000      0.000
REMARK  Name = 11883334
REMARK  7 active torsions:
REMARK  status: ('A' for Active; 'I' for Inactive)
REMARK    1  A    between atoms: O_3  and  C_13
REMARK    2  A    between atoms: O_3  and  C_17
REMARK    3  A    between atoms: N_7  and  C_12
REMARK    4  A    between atoms: N_8  and  C_18
REMARK    5  A    between atoms: N_9  and  C_19
REMARK    6  A    between atoms: C_22  and  C_29
REMARK    7  A    between atoms: C_29  and  C_31
REMARK                            x       y       z     vdW  Elec       q    Type
REMARK                         _______ _______ _______ _____ _____    ______ ____
ROOT
ATOM      1  O   UNL     1     -16.703   5.102  25.202  0.00  0.00    -0.368 OA
ATOM      2  O   UNL     1     -16.568   2.302  23.958  0.00  0.00    -0.368 OA
ATOM     10  C   UNL     1     -15.742   2.949  24.949  0.00  0.00    +0.173 C 
ATOM     11  C   UNL     1     -15.631   4.405  24.545  0.00  0.00    +0.192 C 
ATOM     12  C   UNL     1     -16.463   2.994  26.275  0.00  0.00    +0.131 C 
ATOM     13  C   UNL     1     -15.835   4.347  23.051  0.00  0.00    +0.235 C 
ATOM     14  C   UNL     1     -17.362   4.208  26.113  0.00  0.00    +0.185 C 
ATOM     15  C   UNL     1     -16.857   3.241  22.911  0.00  0.00    +0.207 C 
ENDROOT
BRANCH  12   7
ATOM      4  O   UNL     1     -16.917   2.339  29.026  0.00  0.00    -0.252 OA
ATOM      7  N   UNL     1     -15.537   3.171  27.369  0.00  0.00    -0.292 N 
ATOM      8  N   UNL     1     -14.755   3.104  29.528  0.00  0.00    -0.269 N 
ATOM     16  C   UNL     1     -15.840   2.822  28.691  0.00  0.00    +0.304 C 
ATOM     32  H   UNL     1     -14.601   3.502  27.160  0.00  0.00    +0.151 HD
ATOM     33  H   UNL     1     -13.932   3.507  29.087  0.00  0.00    +0.156 HD
BRANCH   8  18
ATOM     18  C   UNL     1     -14.661   2.900  30.924  0.00  0.00    +0.035 A 
ATOM     20  C   UNL     1     -14.487   3.989  31.778  0.00  0.00    +0.034 A 
ATOM     21  C   UNL     1     -14.743   1.609  31.447  0.00  0.00    +0.023 A 
ATOM     22  C   UNL     1     -14.394   3.787  33.156  0.00  0.00    +0.019 A 
ATOM     25  C   UNL     1     -14.650   1.407  32.824  0.00  0.00    +0.002 A 
ATOM     26  C   UNL     1     -14.476   2.496  33.678  0.00  0.00    +0.011 A 
BRANCH  22  29
ATOM      6  O   UNL     1     -14.211   4.781  35.287  0.00  0.00    -0.292 OA
ATOM     29  C   UNL     1     -14.213   4.921  34.048  0.00  0.00    +0.160 C 
ATOM     31  C   UNL     1     -14.020   6.322  33.478  0.00  0.00    +0.091 C 
ENDBRANCH  22  29
ENDBRANCH   8  18
ENDBRANCH  12   7
BRANCH  13   3
ATOM      3  O   UNL     1     -16.289   5.561  22.496  0.00  0.00    -0.442 OA
BRANCH   3  17
ATOM      5  O   UNL     1     -15.816   6.034  20.310  0.00  0.00    -0.226 OA
ATOM      9  N   UNL     1     -14.419   6.740  22.051  0.00  0.00    -0.251 N 
ATOM     17  C   UNL     1     -15.519   6.115  21.495  0.00  0.00    +0.405 C 
ATOM     34  H   UNL     1     -14.344   6.702  23.065  0.00  0.00    +0.158 HD
BRANCH   9  19
ATOM     19  C   UNL     1     -13.382   7.431  21.384  0.00  0.00    +0.036 A 
ATOM     23  C   UNL     1     -13.457   8.815  21.221  0.00  0.00    +0.023 A 
ATOM     24  C   UNL     1     -12.282   6.730  20.889  0.00  0.00    +0.023 A 
ATOM     27  C   UNL     1     -12.434   9.496  20.564  0.00  0.00    +0.002 A 
ATOM     28  C   UNL     1     -11.258   7.412  20.231  0.00  0.00    +0.002 A 
ATOM     30  C   UNL     1     -11.334   8.796  20.069  0.00  0.00    +0.000 A 
ENDBRANCH   9  19
ENDBRANCH   3  17
ENDBRANCH  13   3
TORSDOF 6
ENDMDL
MODEL 2
REMARK VINA RESULT:      -7.5      1.766      2.445
REMARK  Name = 11883334
REMARK  7 active torsions:
REMARK  status: ('A' for Active; 'I' for Inactive)
REMARK    1  A    between atoms: O_3  and  C_13
REMARK    2  A    between atoms: O_3  and  C_17
REMARK    3  A    between atoms: N_7  and  C_12
REMARK    4  A    between atoms: N_8  and  C_18
REMARK    5  A    between atoms: N_9  and  C_19
REMARK    6  A    between atoms: C_22  and  C_29
REMARK    7  A    between atoms: C_29  and  C_31
REMARK                            x       y       z     vdW  Elec       q    Type
REMARK                         _______ _______ _______ _____ _____    ______ ____
ROOT
ATOM      1  O   UNL     1     -15.687   6.420  23.840  0.00  0.00    -0.368 OA
ATOM      2  O   UNL     1     -16.665   3.805  22.572  0.00  0.00    -0.368 OA
ATOM     10  C   UNL     1     -15.811   4.055  23.708  0.00  0.00    +0.173 C 
ATOM     11  C   UNL     1     -14.970   5.268  23.365  0.00  0.00    +0.192 C 
ATOM     12  C   UNL     1     -16.637   4.509  24.888  0.00  0.00    +0.131 C 
ATOM     13  C   UNL     1     -14.925   5.220  21.857  0.00  0.00    +0.235 C 
ATOM     14  C   UNL     1     -16.828   5.989  24.599  0.00  0.00    +0.185 C 
ATOM     15  C   UNL     1     -16.305   4.705  21.514  0.00  0.00    +0.207 C 
ENDROOT
BRANCH  12   7
ATOM      4  O   UNL     1     -16.984   2.329  26.713  0.00  0.00    -0.252 OA
ATOM      7  N   UNL     1     -15.933   4.304  26.130  0.00  0.00    -0.292 N 
ATOM      8  N   UNL     1     -15.338   3.273  28.095  0.00  0.00    -0.269 N 
ATOM     16  C   UNL     1     -16.163   3.206  26.969  0.00  0.00    +0.304 C 
ATOM     32  H   UNL     1     -15.191   4.951  26.377  0.00  0.00    +0.151 HD
ATOM     33  H   UNL     1     -14.712   4.072  28.155  0.00  0.00    +0.156 HD
BRANCH   8  18
ATOM     18  C   UNL     1     -15.266   2.361  29.173  0.00  0.00    +0.035 A 
ATOM     20  C   UNL     1     -15.054   2.828  30.470  0.00  0.00    +0.034 A 
ATOM     21  C   UNL     1     -15.408   0.993  28.940  0.00  0.00    +0.023 A 
ATOM     22  C   UNL     1     -14.984   1.928  31.534  0.00  0.00    +0.019 A 
ATOM     25  C   UNL     1     -15.337   0.092  30.003  0.00  0.00    +0.002 A 
ATOM     26  C   UNL     1     -15.125   0.560  31.300  0.00  0.00    +0.011 A 
BRANCH  22  29
ATOM      6  O   UNL     1     -14.630   1.630  33.846  0.00  0.00    -0.292 OA
ATOM     29  C   UNL     1     -14.764   2.414  32.887  0.00  0.00    +0.160 C 
ATOM     31  C   UNL     1     -14.692   3.912  33.161  0.00  0.00    +0.091 C 
ENDBRANCH  22  29
ENDBRANCH   8  18
ENDBRANCH  12   7
BRANCH  13   3
ATOM      3  O   UNL     1     -14.662   6.470  21.261  0.00  0.00    -0.442 OA
BRANCH   3  17
ATOM      5  O   UNL     1     -12.406   6.116  21.373  0.00  0.00    -0.226 OA
ATOM      9  N   UNL     1     -13.328   7.733  19.953  0.00  0.00    -0.251 N 
ATOM     17  C   UNL     1     -13.356   6.725  20.897  0.00  0.00    +0.405 C 
ATOM     34  H   UNL     1     -14.229   8.119  19.679  0.00  0.00    +0.158 HD
BRANCH   9  19
ATOM     19  C   UNL     1     -12.200   8.297  19.316  0.00  0.00    +0.036 A 
ATOM     23  C   UNL     1     -11.494   9.330  19.935  0.00  0.00    +0.023 A 
ATOM     24  C   UNL     1     -11.790   7.822  18.070  0.00  0.00    +0.023 A 
ATOM     27  C   UNL     1     -10.380   9.887  19.306  0.00  0.00    +0.002 A 
ATOM     28  C   UNL     1     -10.677   8.379  17.442  0.00  0.00    +0.002 A 
ATOM     30  C   UNL     1      -9.971   9.412  18.060  0.00  0.00    +0.000 A 
ENDBRANCH   9  19
ENDBRANCH   3  17
ENDBRANCH  13   3
TORSDOF 6
ENDMDL
MODEL 3
REMARK VINA RESULT:      -7.4     16.303     18.543
REMARK  Name = 11883334
REMARK  7 active torsions:
REMARK  status: ('A' for Active; 'I' for Inactive)
REMARK    1  A    between atoms: O_3  and  C_13
REMARK    2  A    between atoms: O_3  and  C_17
REMARK    3  A    between atoms: N_7  and  C_12
REMARK    4  A    between atoms: N_8  and  C_18
REMARK    5  A    between atoms: N_9  and  C_19
REMARK    6  A    between atoms: C_22  and  C_29
REMARK    7  A    between atoms: C_29  and  C_31
REMARK                            x       y       z     vdW  Elec       q    Type
REMARK                         _______ _______ _______ _____ _____    ______ ____
ROOT
ATOM      1  O   UNL     1     -11.254  -5.760  15.730  0.00  0.00    -0.368 OA
ATOM      2  O   UNL     1     -12.882  -8.120  14.640  0.00  0.00    -0.368 OA
ATOM     10  C   UNL     1     -11.473  -7.816  14.568  0.00  0.00    +0.173 C 
ATOM     11  C   UNL     1     -11.356  -6.313  14.407  0.00  0.00    +0.192 C 
ATOM     12  C   UNL     1     -10.814  -8.090  15.899  0.00  0.00    +0.131 C 
ATOM     13  C   UNL     1     -12.666  -5.952  13.749  0.00  0.00    +0.235 C 
ATOM     14  C   UNL     1     -11.131  -6.828  16.683  0.00  0.00    +0.185 C 
ATOM     15  C   UNL     1     -13.628  -6.917  14.403  0.00  0.00    +0.207 C 
ENDROOT
BRANCH  12   7
ATOM      4  O   UNL     1      -9.139  -9.824  17.445  0.00  0.00    -0.252 OA
ATOM      7  N   UNL     1      -9.390  -8.271  15.751  0.00  0.00    -0.292 N 
ATOM      8  N   UNL     1      -7.295  -9.111  16.179  0.00  0.00    -0.269 N 
ATOM     16  C   UNL     1      -8.642  -9.144  16.552  0.00  0.00    +0.304 C 
ATOM     32  H   UNL     1      -8.919  -7.793  14.990  0.00  0.00    +0.151 HD
ATOM     33  H   UNL     1      -7.048  -8.487  15.416  0.00  0.00    +0.156 HD
BRANCH   8  18
ATOM     18  C   UNL     1      -6.222  -9.841  16.740  0.00  0.00    +0.035 A 
ATOM     20  C   UNL     1      -5.103 -10.145  15.964  0.00  0.00    +0.034 A 
ATOM     21  C   UNL     1      -6.282 -10.259  18.070  0.00  0.00    +0.023 A 
ATOM     22  C   UNL     1      -4.045 -10.866  16.517  0.00  0.00    +0.019 A 
ATOM     25  C   UNL     1      -5.224 -10.980  18.623  0.00  0.00    +0.002 A 
ATOM     26  C   UNL     1      -4.105 -11.283  17.847  0.00  0.00    +0.011 A 
BRANCH  22  29
ATOM      6  O   UNL     1      -2.953 -11.946  14.727  0.00  0.00    -0.292 OA
ATOM     29  C   UNL     1      -2.877 -11.182  15.710  0.00  0.00    +0.160 C 
ATOM     31  C   UNL     1      -1.520 -10.578  16.053  0.00  0.00    +0.091 C 
ENDBRANCH  22  29
ENDBRANCH   8  18
ENDBRANCH  12   7
BRANCH  13   3
ATOM      3  O   UNL     1     -13.044  -4.609  13.948  0.00  0.00    -0.442 OA
BRANCH   3  17
ATOM      5  O   UNL     1     -12.041  -3.063  12.595  0.00  0.00    -0.226 OA
ATOM      9  N   UNL     1     -14.174  -3.905  12.128  0.00  0.00    -0.251 N 
ATOM     17  C   UNL     1     -13.001  -3.779  12.847  0.00  0.00    +0.405 C 
ATOM     34  H   UNL     1     -14.861  -4.558  12.498  0.00  0.00    +0.158 HD
BRANCH   9  19
ATOM     19  C   UNL     1     -14.540  -3.238  10.937  0.00  0.00    +0.036 A 
ATOM     23  C   UNL     1     -13.868  -3.517   9.746  0.00  0.00    +0.023 A 
ATOM     24  C   UNL     1     -15.574  -2.302  10.950  0.00  0.00    +0.023 A 
ATOM     27  C   UNL     1     -14.229  -2.859   8.571  0.00  0.00    +0.002 A 
ATOM     28  C   UNL     1     -15.935  -1.644   9.774  0.00  0.00    +0.002 A 
ATOM     30  C   UNL     1     -15.263  -1.923   8.584  0.00  0.00    +0.000 A 
ENDBRANCH   9  19
ENDBRANCH   3  17
ENDBRANCH  13   3
TORSDOF 6
ENDMDL
MODEL 4
REMARK VINA RESULT:      -7.1     31.986     35.288
REMARK  Name = 11883334
REMARK  7 active torsions:
REMARK  status: ('A' for Active; 'I' for Inactive)
REMARK    1  A    between atoms: O_3  and  C_13
REMARK    2  A    between atoms: O_3  and  C_17
REMARK    3  A    between atoms: N_7  and  C_12
REMARK    4  A    between atoms: N_8  and  C_18
REMARK    5  A    between atoms: N_9  and  C_19
REMARK    6  A    between atoms: C_22  and  C_29
REMARK    7  A    between atoms: C_29  and  C_31
REMARK                            x       y       z     vdW  Elec       q    Type
REMARK                         _______ _______ _______ _____ _____    ______ ____
ROOT
ATOM      1  O   UNL     1      20.577   5.672  22.784  0.00  0.00    -0.368 OA
ATOM      2  O   UNL     1      22.040   7.037  20.460  0.00  0.00    -0.368 OA
ATOM     10  C   UNL     1      20.843   6.232  20.496  0.00  0.00    +0.173 C 
ATOM     11  C   UNL     1      21.069   5.154  21.537  0.00  0.00    +0.192 C 
ATOM     12  C   UNL     1      19.692   7.037  21.052  0.00  0.00    +0.131 C 
ATOM     13  C   UNL     1      22.572   5.015  21.543  0.00  0.00    +0.235 C 
ATOM     14  C   UNL     1      19.913   6.923  22.550  0.00  0.00    +0.185 C 
ATOM     15  C   UNL     1      23.025   6.440  21.317  0.00  0.00    +0.207 C 
ENDROOT
BRANCH  12   7
ATOM      4  O   UNL     1      17.279   8.474  20.490  0.00  0.00    -0.252 OA
ATOM      7  N   UNL     1      18.422   6.472  20.664  0.00  0.00    -0.292 N 
ATOM      8  N   UNL     1      16.208   6.431  20.054  0.00  0.00    -0.269 N 
ATOM     16  C   UNL     1      17.285   7.249  20.406  0.00  0.00    +0.304 C 
ATOM     32  H   UNL     1      18.366   5.471  20.509  0.00  0.00    +0.151 HD
ATOM     33  H   UNL     1      16.382   5.430  20.034  0.00  0.00    +0.156 HD
BRANCH   8  18
ATOM     18  C   UNL     1      14.892   6.826  19.721  0.00  0.00    +0.035 A 
ATOM     20  C   UNL     1      13.843   6.580  20.607  0.00  0.00    +0.034 A 
ATOM     21  C   UNL     1      14.642   7.464  18.505  0.00  0.00    +0.023 A 
ATOM     22  C   UNL     1      12.544   6.970  20.277  0.00  0.00    +0.019 A 
ATOM     25  C   UNL     1      13.344   7.854  18.176  0.00  0.00    +0.002 A 
ATOM     26  C   UNL     1      12.295   7.607  19.062  0.00  0.00    +0.011 A 
BRANCH  22  29
ATOM      6  O   UNL     1      10.965   5.574  21.335  0.00  0.00    -0.292 OA
ATOM     29  C   UNL     1      11.451   6.714  21.201  0.00  0.00    +0.160 C 
ATOM     31  C   UNL     1      10.868   7.851  22.035  0.00  0.00    +0.091 C 
ENDBRANCH  22  29
ENDBRANCH   8  18
ENDBRANCH  12   7
BRANCH  13   3
ATOM      3  O   UNL     1      23.084   4.480  22.742  0.00  0.00    -0.442 OA
BRANCH   3  17
ATOM      5  O   UNL     1      23.306   2.381  21.862  0.00  0.00    -0.226 OA
ATOM      9  N   UNL     1      22.990   2.726  24.156  0.00  0.00    -0.251 N 
ATOM     17  C   UNL     1      23.142   3.105  22.836  0.00  0.00    +0.405 C 
ATOM     34  H   UNL     1      22.865   3.478  24.829  0.00  0.00    +0.158 HD
BRANCH   9  19
ATOM     19  C   UNL     1      22.988   1.417  24.690  0.00  0.00    +0.036 A 
ATOM     23  C   UNL     1      24.188   0.717  24.823  0.00  0.00    +0.023 A 
ATOM     24  C   UNL     1      21.789   0.826  25.086  0.00  0.00    +0.023 A 
ATOM     27  C   UNL     1      24.186  -0.574  25.351  0.00  0.00    +0.002 A 
ATOM     28  C   UNL     1      21.787  -0.465  25.613  0.00  0.00    +0.002 A 
ATOM     30  C   UNL     1      22.986  -1.166  25.746  0.00  0.00    +0.000 A 
ENDBRANCH   9  19
ENDBRANCH   3  17
ENDBRANCH  13   3
TORSDOF 6
ENDMDL
MODEL 5
REMARK VINA RESULT:      -7.1     26.873     30.761
REMARK  Name = 11883334
REMARK  7 active torsions:
REMARK  status: ('A' for Active; 'I' for Inactive)
REMARK    1  A    between atoms: O_3  and  C_13
REMARK    2  A    between atoms: O_3  and  C_17
REMARK    3  A    between atoms: N_7  and  C_12
REMARK    4  A    between atoms: N_8  and  C_18
REMARK    5  A    between atoms: N_9  and  C_19
REMARK    6  A    between atoms: C_22  and  C_29
REMARK    7  A    between atoms: C_29  and  C_31
REMARK                            x       y       z     vdW  Elec       q    Type
REMARK                         _______ _______ _______ _____ _____    ______ ____
ROOT
ATOM      1  O   UNL     1      13.531   9.413  20.153  0.00  0.00    -0.368 OA
ATOM      2  O   UNL     1      12.559   6.906  18.679  0.00  0.00    -0.368 OA
ATOM     10  C   UNL     1      12.420   8.309  18.373  0.00  0.00    +0.173 C 
ATOM     11  C   UNL     1      12.225   9.029  19.692  0.00  0.00    +0.192 C 
ATOM     12  C   UNL     1      13.726   8.859  17.850  0.00  0.00    +0.131 C 
ATOM     13  C   UNL     1      11.618   7.956  20.563  0.00  0.00    +0.235 C 
ATOM     14  C   UNL     1      14.498   9.129  19.130  0.00  0.00    +0.185 C 
ATOM     15  C   UNL     1      12.332   6.713  20.082  0.00  0.00    +0.207 C 
ENDROOT
BRANCH  12   7
ATOM      4  O   UNL     1      14.046   9.193  15.023  0.00  0.00    -0.252 OA
ATOM      7  N   UNL     1      13.520  10.071  17.096  0.00  0.00    -0.292 N 
ATOM      8  N   UNL     1      13.427  11.445  15.257  0.00  0.00    -0.269 N 
ATOM     16  C   UNL     1      13.699  10.150  15.709  0.00  0.00    +0.304 C 
ATOM     32  H   UNL     1      13.167  10.889  17.583  0.00  0.00    +0.151 HD
ATOM     33  H   UNL     1      13.151  12.125  15.961  0.00  0.00    +0.156 HD
BRANCH   8  18
ATOM     18  C   UNL     1      13.491  11.932  13.931  0.00  0.00    +0.035 A 
ATOM     20  C   UNL     1      12.317  12.159  13.213  0.00  0.00    +0.034 A 
ATOM     21  C   UNL     1      14.730  12.187  13.341  0.00  0.00    +0.023 A 
ATOM     22  C   UNL     1      12.382  12.640  11.904  0.00  0.00    +0.019 A 
ATOM     25  C   UNL     1      14.794  12.668  12.034  0.00  0.00    +0.002 A 
ATOM     26  C   UNL     1      13.620  12.894  11.315  0.00  0.00    +0.011 A 
BRANCH  22  29
ATOM      6  O   UNL     1      10.769  14.032  10.893  0.00  0.00    -0.292 OA
ATOM     29  C   UNL     1      11.158  12.877  11.155  0.00  0.00    +0.160 C 
ATOM     31  C   UNL     1      10.316  11.703  10.668  0.00  0.00    +0.091 C 
ENDBRANCH  22  29
ENDBRANCH   8  18
ENDBRANCH  12   7
BRANCH  13   3
ATOM      3  O   UNL     1      11.806   8.176  21.943  0.00  0.00    -0.442 OA
BRANCH   3  17
ATOM      5  O   UNL     1       9.791   8.956  22.688  0.00  0.00    -0.226 OA
ATOM      9  N   UNL     1      11.755  10.209  22.917  0.00  0.00    -0.251 N 
ATOM     17  C   UNL     1      10.995   9.118  22.540  0.00  0.00    +0.405 C 
ATOM     34  H   UNL     1      12.749  10.159  22.709  0.00  0.00    +0.158 HD
BRANCH   9  19
ATOM     19  C   UNL     1      11.321  11.391  23.559  0.00  0.00    +0.036 A 
ATOM     23  C   UNL     1      10.993  12.516  22.802  0.00  0.00    +0.023 A 
ATOM     24  C   UNL     1      11.220  11.434  24.949  0.00  0.00    +0.023 A 
ATOM     27  C   UNL     1      10.565  13.682  23.435  0.00  0.00    +0.002 A 
ATOM     28  C   UNL     1      10.792  12.600  25.583  0.00  0.00    +0.002 A 
ATOM     30  C   UNL     1      10.464  13.725  24.826  0.00  0.00    +0.000 A 
ENDBRANCH   9  19
ENDBRANCH   3  17
ENDBRANCH  13   3
TORSDOF 6
ENDMDL
MODEL 6
REMARK VINA RESULT:      -7.1     29.703     33.009
REMARK  Name = 11883334
REMARK  7 active torsions:
REMARK  status: ('A' for Active; 'I' for Inactive)
REMARK    1  A    between atoms: O_3  and  C_13
REMARK    2  A    between atoms: O_3  and  C_17
REMARK    3  A    between atoms: N_7  and  C_12
REMARK    4  A    between atoms: N_8  and  C_18
REMARK    5  A    between atoms: N_9  and  C_19
REMARK    6  A    between atoms: C_22  and  C_29
REMARK    7  A    between atoms: C_29  and  C_31
REMARK                            x       y       z     vdW  Elec       q    Type
REMARK                         _______ _______ _______ _____ _____    ______ ____
ROOT
ATOM      1  O   UNL     1      15.336   8.560  19.439  0.00  0.00    -0.368 OA
ATOM      2  O   UNL     1      14.273   6.376  21.310  0.00  0.00    -0.368 OA
ATOM     10  C   UNL     1      15.375   6.384  20.378  0.00  0.00    +0.173 C 
ATOM     11  C   UNL     1      14.934   7.205  19.183  0.00  0.00    +0.192 C 
ATOM     12  C   UNL     1      16.532   7.168  20.950  0.00  0.00    +0.131 C 
ATOM     13  C   UNL     1      13.432   7.051  19.217  0.00  0.00    +0.235 C 
ATOM     14  C   UNL     1      16.141   8.601  20.628  0.00  0.00    +0.185 C 
ATOM     15  C   UNL     1      13.148   7.027  20.702  0.00  0.00    +0.207 C 
ENDROOT
BRANCH  12   7
ATOM      4  O   UNL     1      19.022   6.605  22.247  0.00  0.00    -0.252 OA
ATOM      7  N   UNL     1      17.775   6.809  20.312  0.00  0.00    -0.292 N 
ATOM      8  N   UNL     1      19.990   6.225  20.143  0.00  0.00    -0.269 N 
ATOM     16  C   UNL     1      18.953   6.547  21.023  0.00  0.00    +0.304 C 
ATOM     32  H   UNL     1      17.781   6.675  19.306  0.00  0.00    +0.151 HD
ATOM     33  H   UNL     1      19.764   6.225  19.152  0.00  0.00    +0.156 HD
BRANCH   8  18
ATOM     18  C   UNL     1      21.329   5.899  20.462  0.00  0.00    +0.035 A 
ATOM     20  C   UNL     1      21.664   4.592  20.815  0.00  0.00    +0.034 A 
ATOM     21  C   UNL     1      22.315   6.885  20.425  0.00  0.00    +0.023 A 
ATOM     22  C   UNL     1      22.985   4.271  21.130  0.00  0.00    +0.019 A 
ATOM     25  C   UNL     1      23.635   6.565  20.739  0.00  0.00    +0.002 A 
ATOM     26  C   UNL     1      23.970   5.258  21.092  0.00  0.00    +0.011 A 
BRANCH  22  29
ATOM      6  O   UNL     1      23.696   2.076  20.642  0.00  0.00    -0.292 OA
ATOM     29  C   UNL     1      23.336   2.908  21.497  0.00  0.00    +0.160 C 
ATOM     31  C   UNL     1      23.269   2.464  22.955  0.00  0.00    +0.091 C 
ENDBRANCH  22  29
ENDBRANCH   8  18
ENDBRANCH  12   7
BRANCH  13   3
ATOM      3  O   UNL     1      12.744   8.092  18.562  0.00  0.00    -0.442 OA
BRANCH   3  17
ATOM      5  O   UNL     1      10.655   8.619  19.326  0.00  0.00    -0.226 OA
ATOM      9  N   UNL     1      12.554   9.793  20.030  0.00  0.00    -0.251 N 
ATOM     17  C   UNL     1      11.861   8.831  19.321  0.00  0.00    +0.405 C 
ATOM     34  H   UNL     1      13.562   9.813  19.895  0.00  0.00    +0.158 HD
BRANCH   9  19
ATOM     19  C   UNL     1      12.035  10.756  20.925  0.00  0.00    +0.036 A 
ATOM     23  C   UNL     1      12.124  12.114  20.617  0.00  0.00    +0.023 A 
ATOM     24  C   UNL     1      11.434  10.350  22.117  0.00  0.00    +0.023 A 
ATOM     27  C   UNL     1      11.613  13.064  21.500  0.00  0.00    +0.002 A 
ATOM     28  C   UNL     1      10.923  11.301  23.000  0.00  0.00    +0.002 A 
ATOM     30  C   UNL     1      11.012  12.658  22.692  0.00  0.00    +0.000 A 
ENDBRANCH   9  19
ENDBRANCH   3  17
ENDBRANCH  13   3
TORSDOF 6
ENDMDL
MODEL 7
REMARK VINA RESULT:      -7.1     26.896     31.334
REMARK  Name = 11883334
REMARK  7 active torsions:
REMARK  status: ('A' for Active; 'I' for Inactive)
REMARK    1  A    between atoms: O_3  and  C_13
REMARK    2  A    between atoms: O_3  and  C_17
REMARK    3  A    between atoms: N_7  and  C_12
REMARK    4  A    between atoms: N_8  and  C_18
REMARK    5  A    between atoms: N_9  and  C_19
REMARK    6  A    between atoms: C_22  and  C_29
REMARK    7  A    between atoms: C_29  and  C_31
REMARK                            x       y       z     vdW  Elec       q    Type
REMARK                         _______ _______ _______ _____ _____    ______ ____
ROOT
ATOM      1  O   UNL     1      13.550   9.399  20.121  0.00  0.00    -0.368 OA
ATOM      2  O   UNL     1      12.546   6.882  18.687  0.00  0.00    -0.368 OA
ATOM     10  C   UNL     1      12.415   8.282  18.365  0.00  0.00    +0.173 C 
ATOM     11  C   UNL     1      12.237   9.019  19.677  0.00  0.00    +0.192 C 
ATOM     12  C   UNL     1      13.720   8.815  17.823  0.00  0.00    +0.131 C 
ATOM     13  C   UNL     1      11.630   7.962  20.567  0.00  0.00    +0.235 C 
ATOM     14  C   UNL     1      14.506   9.096  19.093  0.00  0.00    +0.185 C 
ATOM     15  C   UNL     1      12.330   6.708  20.095  0.00  0.00    +0.207 C 
ENDROOT
BRANCH  12   7
ATOM      4  O   UNL     1      14.287   9.191  15.041  0.00  0.00    -0.252 OA
ATOM      7  N   UNL     1      13.516  10.020  17.057  0.00  0.00    -0.292 N 
ATOM      8  N   UNL     1      13.518  11.402  15.221  0.00  0.00    -0.269 N 
ATOM     16  C   UNL     1      13.821  10.121  15.693  0.00  0.00    +0.304 C 
ATOM     32  H   UNL     1      13.071  10.812  17.510  0.00  0.00    +0.151 HD
ATOM     33  H   UNL     1      13.138  12.059  15.897  0.00  0.00    +0.156 HD
BRANCH   8  18
ATOM     18  C   UNL     1      13.680  11.903  13.909  0.00  0.00    +0.035 A 
ATOM     20  C   UNL     1      14.945  11.929  13.322  0.00  0.00    +0.034 A 
ATOM     21  C   UNL     1      12.573  12.371  13.200  0.00  0.00    +0.023 A 
ATOM     22  C   UNL     1      15.104  12.423  12.027  0.00  0.00    +0.019 A 
ATOM     25  C   UNL     1      12.731  12.865  11.905  0.00  0.00    +0.002 A 
ATOM     26  C   UNL     1      13.997  12.891  11.318  0.00  0.00    +0.011 A 
BRANCH  22  29
ATOM      6  O   UNL     1      17.455  12.251  12.083  0.00  0.00    -0.292 OA
ATOM     29  C   UNL     1      16.422  12.450  11.414  0.00  0.00    +0.160 C 
ATOM     31  C   UNL     1      16.570  12.726   9.921  0.00  0.00    +0.091 C 
ENDBRANCH  22  29
ENDBRANCH   8  18
ENDBRANCH  12   7
BRANCH  13   3
ATOM      3  O   UNL     1      11.833   8.197  21.941  0.00  0.00    -0.442 OA
BRANCH   3  17
ATOM      5  O   UNL     1       9.815   8.977  22.681  0.00  0.00    -0.226 OA
ATOM      9  N   UNL     1      11.779  10.227  22.923  0.00  0.00    -0.251 N 
ATOM     17  C   UNL     1      11.020   9.138  22.539  0.00  0.00    +0.405 C 
ATOM     34  H   UNL     1      12.774  10.176  22.719  0.00  0.00    +0.158 HD
BRANCH   9  19
ATOM     19  C   UNL     1      11.344  11.407  23.568  0.00  0.00    +0.036 A 
ATOM     23  C   UNL     1      11.230  11.440  24.958  0.00  0.00    +0.023 A 
ATOM     24  C   UNL     1      11.029  12.539  22.816  0.00  0.00    +0.023 A 
ATOM     27  C   UNL     1      10.800  12.604  25.595  0.00  0.00    +0.002 A 
ATOM     28  C   UNL     1      10.600  13.703  23.452  0.00  0.00    +0.002 A 
ATOM     30  C   UNL     1      10.486  13.736  24.842  0.00  0.00    +0.000 A 
ENDBRANCH   9  19
ENDBRANCH   3  17
ENDBRANCH  13   3
TORSDOF 6
ENDMDL
MODEL 8
REMARK VINA RESULT:      -7.0     16.514     20.206
REMARK  Name = 11883334
REMARK  7 active torsions:
REMARK  status: ('A' for Active; 'I' for Inactive)
REMARK    1  A    between atoms: O_3  and  C_13
REMARK    2  A    between atoms: O_3  and  C_17
REMARK    3  A    between atoms: N_7  and  C_12
REMARK    4  A    between atoms: N_8  and  C_18
REMARK    5  A    between atoms: N_9  and  C_19
REMARK    6  A    between atoms: C_22  and  C_29
REMARK    7  A    between atoms: C_29  and  C_31
REMARK                            x       y       z     vdW  Elec       q    Type
REMARK                         _______ _______ _______ _____ _____    ______ ____
ROOT
ATOM      1  O   UNL     1      -9.619  -9.458  15.404  0.00  0.00    -0.368 OA
ATOM      2  O   UNL     1     -10.497  -9.047  18.313  0.00  0.00    -0.368 OA
ATOM     10  C   UNL     1     -10.188  -8.104  17.265  0.00  0.00    +0.173 C 
ATOM     11  C   UNL     1      -9.038  -8.692  16.471  0.00  0.00    +0.192 C 
ATOM     12  C   UNL     1     -11.322  -8.043  16.269  0.00  0.00    +0.131 C 
ATOM     13  C   UNL     1      -8.357  -9.576  17.488  0.00  0.00    +0.235 C 
ATOM     14  C   UNL     1     -11.039  -9.246  15.385  0.00  0.00    +0.185 C 
ATOM     15  C   UNL     1      -9.528 -10.104  18.286  0.00  0.00    +0.207 C 
ENDROOT
BRANCH  12   7
ATOM      4  O   UNL     1     -13.270  -7.152  14.368  0.00  0.00    -0.252 OA
ATOM      7  N   UNL     1     -11.288  -6.816  15.511  0.00  0.00    -0.292 N 
ATOM      8  N   UNL     1     -11.987  -5.217  14.017  0.00  0.00    -0.269 N 
ATOM     16  C   UNL     1     -12.287  -6.453  14.598  0.00  0.00    +0.304 C 
ATOM     32  H   UNL     1     -10.541  -6.155  15.695  0.00  0.00    +0.151 HD
ATOM     33  H   UNL     1     -11.127  -4.768  14.319  0.00  0.00    +0.156 HD
BRANCH   8  18
ATOM     18  C   UNL     1     -12.739  -4.508  13.052  0.00  0.00    +0.035 A 
ATOM     20  C   UNL     1     -12.239  -4.345  11.760  0.00  0.00    +0.034 A 
ATOM     21  C   UNL     1     -13.981  -3.971  13.392  0.00  0.00    +0.023 A 
ATOM     22  C   UNL     1     -12.981  -3.645  10.808  0.00  0.00    +0.019 A 
ATOM     25  C   UNL     1     -14.723  -3.271  12.440  0.00  0.00    +0.002 A 
ATOM     26  C   UNL     1     -14.223  -3.108  11.148  0.00  0.00    +0.011 A 
BRANCH  22  29
ATOM      6  O   UNL     1     -13.210  -3.193   8.504  0.00  0.00    -0.292 OA
ATOM     29  C   UNL     1     -12.461  -3.476   9.460  0.00  0.00    +0.160 C 
ATOM     31  C   UNL     1     -10.971  -3.643   9.185  0.00  0.00    +0.091 C 
ENDBRANCH  22  29
ENDBRANCH   8  18
ENDBRANCH  12   7
BRANCH  13   3
ATOM      3  O   UNL     1      -7.595 -10.613  16.913  0.00  0.00    -0.442 OA
BRANCH   3  17
ATOM      5  O   UNL     1      -5.680 -10.348  18.132  0.00  0.00    -0.226 OA
ATOM      9  N   UNL     1      -5.626 -10.688  15.817  0.00  0.00    -0.251 N 
ATOM     17  C   UNL     1      -6.226 -10.532  17.052  0.00  0.00    +0.405 C 
ATOM     34  H   UNL     1      -6.251 -10.833  15.028  0.00  0.00    +0.158 HD
BRANCH   9  19
ATOM     19  C   UNL     1      -4.246 -10.673  15.512  0.00  0.00    +0.036 A 
ATOM     23  C   UNL     1      -3.304 -10.741  16.539  0.00  0.00    +0.023 A 
ATOM     24  C   UNL     1      -3.825 -10.590  14.185  0.00  0.00    +0.023 A 
ATOM     27  C   UNL     1      -1.942 -10.726  16.237  0.00  0.00    +0.002 A 
ATOM     28  C   UNL     1      -2.464 -10.575  13.883  0.00  0.00    +0.002 A 
ATOM     30  C   UNL     1      -1.521 -10.644  14.910  0.00  0.00    +0.000 A 
ENDBRANCH   9  19
ENDBRANCH   3  17
ENDBRANCH  13   3
TORSDOF 6
ENDMDL
MODEL 9
REMARK VINA RESULT:      -7.0     28.402     31.868
REMARK  Name = 11883334
REMARK  7 active torsions:
REMARK  status: ('A' for Active; 'I' for Inactive)
REMARK    1  A    between atoms: O_3  and  C_13
REMARK    2  A    between atoms: O_3  and  C_17
REMARK    3  A    between atoms: N_7  and  C_12
REMARK    4  A    between atoms: N_8  and  C_18
REMARK    5  A    between atoms: N_9  and  C_19
REMARK    6  A    between atoms: C_22  and  C_29
REMARK    7  A    between atoms: C_29  and  C_31
REMARK                            x       y       z     vdW  Elec       q    Type
REMARK                         _______ _______ _______ _____ _____    ______ ____
ROOT
ATOM      1  O   UNL     1      12.928   8.161  21.802  0.00  0.00    -0.368 OA
ATOM      2  O   UNL     1      13.080   8.126  18.740  0.00  0.00    -0.368 OA
ATOM     10  C   UNL     1      14.104   8.267  19.746  0.00  0.00    +0.173 C 
ATOM     11  C   UNL     1      13.506   9.089  20.870  0.00  0.00    +0.192 C 
ATOM     12  C   UNL     1      14.389   6.929  20.388  0.00  0.00    +0.131 C 
ATOM     13  C   UNL     1      12.448   9.897  20.156  0.00  0.00    +0.235 C 
ATOM     14  C   UNL     1      13.276   6.822  21.417  0.00  0.00    +0.185 C 
ATOM     15  C   UNL     1      11.945   8.918  19.120  0.00  0.00    +0.207 C 
ENDROOT
BRANCH  12   7
ATOM      4  O   UNL     1      16.881   6.246  19.154  0.00  0.00    -0.252 OA
ATOM      7  N   UNL     1      15.687   6.915  21.017  0.00  0.00    -0.292 N 
ATOM      8  N   UNL     1      17.961   6.645  21.200  0.00  0.00    -0.269 N 
ATOM     16  C   UNL     1      16.863   6.568  20.338  0.00  0.00    +0.304 C 
ATOM     32  H   UNL     1      15.762   7.235  21.977  0.00  0.00    +0.151 HD
ATOM     33  H   UNL     1      17.771   6.928  22.157  0.00  0.00    +0.156 HD
BRANCH   8  18
ATOM     18  C   UNL     1      19.317   6.374  20.902  0.00  0.00    +0.035 A 
ATOM     20  C   UNL     1      20.222   7.425  20.751  0.00  0.00    +0.034 A 
ATOM     21  C   UNL     1      19.749   5.055  20.761  0.00  0.00    +0.023 A 
ATOM     22  C   UNL     1      21.560   7.156  20.458  0.00  0.00    +0.019 A 
ATOM     25  C   UNL     1      21.086   4.787  20.468  0.00  0.00    +0.002 A 
ATOM     26  C   UNL     1      21.991   5.837  20.317  0.00  0.00    +0.011 A 
BRANCH  22  29
ATOM      6  O   UNL     1      23.699   8.043  20.009  0.00  0.00    -0.292 OA
ATOM     29  C   UNL     1      22.504   8.251  20.301  0.00  0.00    +0.160 C 
ATOM     31  C   UNL     1      22.047   9.693  20.492  0.00  0.00    +0.091 C 
ENDBRANCH  22  29
ENDBRANCH   8  18
ENDBRANCH  12   7
BRANCH  13   3
ATOM      3  O   UNL     1      11.418  10.349  21.005  0.00  0.00    -0.442 OA
BRANCH   3  17
ATOM      5  O   UNL     1      12.455  12.370  21.265  0.00  0.00    -0.226 OA
ATOM      9  N   UNL     1      10.738  11.677  22.696  0.00  0.00    -0.251 N 
ATOM     17  C   UNL     1      11.615  11.560  21.635  0.00  0.00    +0.405 C 
ATOM     34  H   UNL     1      10.108  10.892  22.847  0.00  0.00    +0.158 HD
BRANCH   9  19
ATOM     19  C   UNL     1      10.605  12.755  23.600  0.00  0.00    +0.036 A 
ATOM     23  C   UNL     1      10.125  13.986  23.152  0.00  0.00    +0.023 A 
ATOM     24  C   UNL     1      10.952  12.589  24.941  0.00  0.00    +0.023 A 
ATOM     27  C   UNL     1       9.993  15.049  24.044  0.00  0.00    +0.002 A 
ATOM     28  C   UNL     1      10.821  13.652  25.833  0.00  0.00    +0.002 A 
ATOM     30  C   UNL     1      10.341  14.883  25.385  0.00  0.00    +0.000 A 
ENDBRANCH   9  19
ENDBRANCH   3  17
ENDBRANCH  13   3
TORSDOF 6
ENDMDL
MODEL 10
REMARK VINA RESULT:      -6.9     17.974     20.107
REMARK  Name = 11883334
REMARK  7 active torsions:
REMARK  status: ('A' for Active; 'I' for Inactive)
REMARK    1  A    between atoms: O_3  and  C_13
REMARK    2  A    between atoms: O_3  and  C_17
REMARK    3  A    between atoms: N_7  and  C_12
REMARK    4  A    between atoms: N_8  and  C_18
REMARK    5  A    between atoms: N_9  and  C_19
REMARK    6  A    between atoms: C_22  and  C_29
REMARK    7  A    between atoms: C_29  and  C_31
REMARK                            x       y       z     vdW  Elec       q    Type
REMARK                         _______ _______ _______ _____ _____    ______ ____
ROOT
ATOM      1  O   UNL     1      -6.422 -12.000  17.281  0.00  0.00    -0.368 OA
ATOM      2  O   UNL     1      -4.952 -11.612  19.944  0.00  0.00    -0.368 OA
ATOM     10  C   UNL     1      -5.938 -10.802  19.269  0.00  0.00    +0.173 C 
ATOM     11  C   UNL     1      -5.646 -10.901  17.785  0.00  0.00    +0.192 C 
ATOM     12  C   UNL     1      -7.306 -11.425  19.411  0.00  0.00    +0.131 C 
ATOM     13  C   UNL     1      -4.167 -11.204  17.763  0.00  0.00    +0.235 C 
ATOM     14  C   UNL     1      -7.298 -12.476  18.314  0.00  0.00    +0.185 C 
ATOM     15  C   UNL     1      -4.004 -12.089  18.978  0.00  0.00    +0.207 C 
ENDROOT
BRANCH  12   7
ATOM      4  O   UNL     1     -10.118 -11.940  19.227  0.00  0.00    -0.252 OA
ATOM      7  N   UNL     1      -8.350 -10.451  19.196  0.00  0.00    -0.292 N 
ATOM      8  N   UNL     1     -10.481  -9.643  18.907  0.00  0.00    -0.269 N 
ATOM     16  C   UNL     1      -9.707 -10.789  19.119  0.00  0.00    +0.304 C 
ATOM     32  H   UNL     1      -8.095  -9.470  19.163  0.00  0.00    +0.151 HD
ATOM     33  H   UNL     1      -9.980  -8.761  18.838  0.00  0.00    +0.156 HD
BRANCH   8  18
ATOM     18  C   UNL     1     -11.886  -9.559  18.772  0.00  0.00    +0.035 A 
ATOM     20  C   UNL     1     -12.706  -9.737  19.886  0.00  0.00    +0.034 A 
ATOM     21  C   UNL     1     -12.452  -9.297  17.524  0.00  0.00    +0.023 A 
ATOM     22  C   UNL     1     -14.093  -9.653  19.752  0.00  0.00    +0.019 A 
ATOM     25  C   UNL     1     -13.838  -9.213  17.390  0.00  0.00    +0.002 A 
ATOM     26  C   UNL     1     -14.658  -9.391  18.504  0.00  0.00    +0.011 A 
BRANCH  22  29
ATOM      6  O   UNL     1     -14.935 -10.897  21.570  0.00  0.00    -0.292 OA
ATOM     29  C   UNL     1     -14.949  -9.837  20.913  0.00  0.00    +0.160 C 
ATOM     31  C   UNL     1     -15.892  -8.724  21.356  0.00  0.00    +0.091 C 
ENDBRANCH  22  29
ENDBRANCH   8  18
ENDBRANCH  12   7
BRANCH  13   3
ATOM      3  O   UNL     1      -3.740 -11.842  16.580  0.00  0.00    -0.442 OA
BRANCH   3  17
ATOM      5  O   UNL     1      -2.272 -10.242  15.866  0.00  0.00    -0.226 OA
ATOM      9  N   UNL     1      -3.740 -11.310  14.389  0.00  0.00    -0.251 N 
ATOM     17  C   UNL     1      -3.162 -11.045  15.615  0.00  0.00    +0.405 C 
ATOM     34  H   UNL     1      -4.470 -12.019  14.380  0.00  0.00    +0.158 HD
BRANCH   9  19
ATOM     19  C   UNL     1      -3.443 -10.719  13.141  0.00  0.00    +0.036 A 
ATOM     23  C   UNL     1      -4.471 -10.206  12.349  0.00  0.00    +0.023 A 
ATOM     24  C   UNL     1      -2.122 -10.647  12.699  0.00  0.00    +0.023 A 
ATOM     27  C   UNL     1      -4.178  -9.622  11.117  0.00  0.00    +0.002 A 
ATOM     28  C   UNL     1      -1.829 -10.064  11.466  0.00  0.00    +0.002 A 
ATOM     30  C   UNL     1      -2.857  -9.550  10.675  0.00  0.00    +0.000 A 
ENDBRANCH   9  19
ENDBRANCH   3  17
ENDBRANCH  13   3
TORSDOF 6
ENDMDL
