MODEL 1
REMARK VINA RESULT:      -7.9      0.000      0.000
REMARK  Name = 40776883
REMARK  7 active torsions:
REMARK  status: ('A' for Active; 'I' for Inactive)
REMARK    1  A    between atoms: O_2  and  C_15
REMARK    2  A    between atoms: O_2  and  C_20
REMARK    3  A    between atoms: N_6  and  C_18
REMARK    4  A    between atoms: C_9  and  C_16
REMARK    5  A    between atoms: C_10  and  C_15
REMARK    6  A    between atoms: C_19  and  C_27
REMARK    7  A    between atoms: C_21  and  C_28
REMARK                            x       y       z     vdW  Elec       q    Type
REMARK                         _______ _______ _______ _____ _____    ______ ____
ROOT
ATOM      4  N   UNL     1      11.420   8.849  20.275  0.00  0.00    -0.296 NA
ATOM      8  C   UNL     1      13.023   6.869  20.815  0.00  0.00    +0.002 C 
ATOM      9  C   UNL     1      13.477   8.155  21.561  0.00  0.00    +0.055 C 
ATOM     10  C   UNL     1      11.857   8.190  19.015  0.00  0.00    +0.095 C 
ATOM     11  C   UNL     1      12.964   7.152  19.299  0.00  0.00    +0.026 C 
ATOM     12  C   UNL     1      11.581   6.572  21.279  0.00  0.00    +0.019 C 
ATOM     13  C   UNL     1      12.602   9.329  21.034  0.00  0.00    +0.094 C 
ATOM     14  C   UNL     1      10.720   7.835  21.099  0.00  0.00    +0.085 C 
ENDROOT
BRANCH   9  16
ATOM      5  N   UNL     1      15.283   9.785  21.805  0.00  0.00    -0.237 NA
ATOM      7  N   UNL     1      17.603   9.173  21.585  0.00  0.00    -0.232 NA
ATOM     16  C   UNL     1      14.959   8.498  21.566  0.00  0.00    +0.050 A 
ATOM     17  C   UNL     1      15.888   7.504  21.331  0.00  0.00    +0.052 A 
ATOM     19  C   UNL     1      17.208   7.905  21.353  0.00  0.00    +0.075 A 
ATOM     21  C   UNL     1      16.604  10.050  21.800  0.00  0.00    +0.127 A 
ATOM     28  C   UNL     1      17.001  11.463  22.058  0.00  0.00    +0.088 C 
BRANCH  19  27
ATOM      1  F   UNL     1      21.334   4.267  20.457  0.00  0.00    -0.205 F 
ATOM     27  C   UNL     1      18.277   6.962  21.121  0.00  0.00    +0.001 A 
ATOM     29  C   UNL     1      18.196   6.064  20.057  0.00  0.00    +0.013 A 
ATOM     30  C   UNL     1      19.391   6.949  21.961  0.00  0.00    +0.013 A 
ATOM     31  C   UNL     1      19.229   5.154  19.832  0.00  0.00    +0.039 A 
ATOM     32  C   UNL     1      20.423   6.039  21.736  0.00  0.00    +0.039 A 
ATOM     33  C   UNL     1      20.342   5.141  20.672  0.00  0.00    +0.123 A 
ENDBRANCH  19  27
ENDBRANCH   9  16
BRANCH  10  15
ATOM     15  C   UNL     1      12.283   9.199  17.947  0.00  0.00    +0.252 C 
BRANCH  15   2
ATOM      2  O   UNL     1      13.580   8.856  17.500  0.00  0.00    -0.449 OA
BRANCH   2  20
ATOM      3  O   UNL     1      13.620   8.392  15.252  0.00  0.00    -0.226 OA
ATOM      6  N   UNL     1      14.482  10.375  16.091  0.00  0.00    -0.278 N 
ATOM     20  C   UNL     1      13.873   9.142  16.189  0.00  0.00    +0.401 C 
ATOM     34  H   UNL     1      14.590  10.911  16.947  0.00  0.00    +0.152 HD
BRANCH   6  18
ATOM     18  C   UNL     1      14.914  10.962  14.842  0.00  0.00    +0.076 C 
ATOM     22  C   UNL     1      14.019  12.144  14.451  0.00  0.00    +0.022 C 
ATOM     23  C   UNL     1      16.386  11.379  14.908  0.00  0.00    +0.022 C 
ATOM     24  C   UNL     1      14.246  13.367  15.339  0.00  0.00    +0.002 C 
ATOM     25  C   UNL     1      16.609  12.604  15.795  0.00  0.00    +0.002 C 
ATOM     26  C   UNL     1      15.717  13.769  15.380  0.00  0.00    +0.000 C 
ENDBRANCH   6  18
ENDBRANCH   2  20
ENDBRANCH  15   2
ENDBRANCH  10  15
TORSDOF 6
ENDMDL
MODEL 2
REMARK VINA RESULT:      -7.4     26.279     29.857
REMARK  Name = 40776883
REMARK  7 active torsions:
REMARK  status: ('A' for Active; 'I' for Inactive)
REMARK    1  A    between atoms: O_2  and  C_15
REMARK    2  A    between atoms: O_2  and  C_20
REMARK    3  A    between atoms: N_6  and  C_18
REMARK    4  A    between atoms: C_9  and  C_16
REMARK    5  A    between atoms: C_10  and  C_15
REMARK    6  A    between atoms: C_19  and  C_27
REMARK    7  A    between atoms: C_21  and  C_28
REMARK                            x       y       z     vdW  Elec       q    Type
REMARK                         _______ _______ _______ _____ _____    ______ ____
ROOT
ATOM      4  N   UNL     1      -5.909 -11.324  10.618  0.00  0.00    -0.296 NA
ATOM      8  C   UNL     1      -3.919  -9.769  11.255  0.00  0.00    +0.002 C 
ATOM      9  C   UNL     1      -3.873 -11.080  12.088  0.00  0.00    +0.055 C 
ATOM     10  C   UNL     1      -6.406  -9.950  10.900  0.00  0.00    +0.095 C 
ATOM     11  C   UNL     1      -5.277  -9.070  11.477  0.00  0.00    +0.026 C 
ATOM     12  C   UNL     1      -3.860 -10.184   9.769  0.00  0.00    +0.019 C 
ATOM     13  C   UNL     1      -5.190 -11.857  11.803  0.00  0.00    +0.094 C 
ATOM     14  C   UNL     1      -4.949 -11.237   9.493  0.00  0.00    +0.085 C 
ENDROOT
BRANCH   9  16
ATOM      5  N   UNL     1      -2.349 -10.532  13.920  0.00  0.00    -0.237 NA
ATOM      7  N   UNL     1      -2.984 -10.769  16.232  0.00  0.00    -0.232 NA
ATOM     16  C   UNL     1      -3.576 -10.976  13.576  0.00  0.00    +0.050 A 
ATOM     17  C   UNL     1      -4.547 -11.330  14.491  0.00  0.00    +0.052 A 
ATOM     19  C   UNL     1      -4.191 -11.205  15.818  0.00  0.00    +0.075 A 
ATOM     21  C   UNL     1      -2.123 -10.454  15.246  0.00  0.00    +0.127 A 
ATOM     28  C   UNL     1      -0.777  -9.970  15.665  0.00  0.00    +0.088 C 
BRANCH  19  27
ATOM      1  F   UNL     1      -7.760 -12.516  19.892  0.00  0.00    -0.205 F 
ATOM     27  C   UNL     1      -5.116 -11.545  16.873  0.00  0.00    +0.001 A 
ATOM     29  C   UNL     1      -5.940 -12.663  16.746  0.00  0.00    +0.013 A 
ATOM     30  C   UNL     1      -5.186 -10.755  18.021  0.00  0.00    +0.013 A 
ATOM     31  C   UNL     1      -6.833 -12.991  17.765  0.00  0.00    +0.039 A 
ATOM     32  C   UNL     1      -6.079 -11.083  19.040  0.00  0.00    +0.039 A 
ATOM     33  C   UNL     1      -6.903 -12.201  18.912  0.00  0.00    +0.123 A 
ENDBRANCH  19  27
ENDBRANCH   9  16
BRANCH  10  15
ATOM     15  C   UNL     1      -7.643  -9.952  11.800  0.00  0.00    +0.252 C 
BRANCH  15   2
ATOM      2  O   UNL     1      -7.246  -9.584  13.106  0.00  0.00    -0.449 OA
BRANCH   2  20
ATOM      3  O   UNL     1      -7.939 -11.541  14.088  0.00  0.00    -0.226 OA
ATOM      6  N   UNL     1      -8.056  -9.516  15.215  0.00  0.00    -0.278 N 
ATOM     20  C   UNL     1      -7.765 -10.327  14.138  0.00  0.00    +0.401 C 
ATOM     34  H   UNL     1      -7.819  -8.532  15.135  0.00  0.00    +0.152 HD
BRANCH   6  18
ATOM     18  C   UNL     1      -8.616 -10.000  16.458  0.00  0.00    +0.076 C 
ATOM     22  C   UNL     1      -8.689  -8.880  17.502  0.00  0.00    +0.022 C 
ATOM     23  C   UNL     1      -9.990 -10.638  16.231  0.00  0.00    +0.022 C 
ATOM     24  C   UNL     1      -9.772  -7.850  17.178  0.00  0.00    +0.002 C 
ATOM     25  C   UNL     1     -11.070  -9.605  15.910  0.00  0.00    +0.002 C 
ATOM     26  C   UNL     1     -11.131  -8.508  16.968  0.00  0.00    +0.000 C 
ENDBRANCH   6  18
ENDBRANCH   2  20
ENDBRANCH  15   2
ENDBRANCH  10  15
TORSDOF 6
ENDMDL
MODEL 3
REMARK VINA RESULT:      -7.3     13.268     15.885
REMARK  Name = 40776883
REMARK  7 active torsions:
REMARK  status: ('A' for Active; 'I' for Inactive)
REMARK    1  A    between atoms: O_2  and  C_15
REMARK    2  A    between atoms: O_2  and  C_20
REMARK    3  A    between atoms: N_6  and  C_18
REMARK    4  A    between atoms: C_9  and  C_16
REMARK    5  A    between atoms: C_10  and  C_15
REMARK    6  A    between atoms: C_19  and  C_27
REMARK    7  A    between atoms: C_21  and  C_28
REMARK                            x       y       z     vdW  Elec       q    Type
REMARK                         _______ _______ _______ _____ _____    ______ ____
ROOT
ATOM      4  N   UNL     1      13.215  10.405   3.649  0.00  0.00    -0.296 NA
ATOM      8  C   UNL     1      14.166   8.366   4.960  0.00  0.00    +0.002 C 
ATOM      9  C   UNL     1      13.204   7.889   3.835  0.00  0.00    +0.055 C 
ATOM     10  C   UNL     1      13.051  10.619   5.111  0.00  0.00    +0.095 C 
ATOM     11  C   UNL     1      13.416   9.340   5.893  0.00  0.00    +0.026 C 
ATOM     12  C   UNL     1      15.290   9.170   4.272  0.00  0.00    +0.019 C 
ATOM     13  C   UNL     1      12.527   9.156   3.237  0.00  0.00    +0.094 C 
ATOM     14  C   UNL     1      14.662  10.250   3.372  0.00  0.00    +0.085 C 
ENDROOT
BRANCH   9  16
ATOM      5  N   UNL     1      11.866   5.955   3.166  0.00  0.00    -0.237 NA
ATOM      7  N   UNL     1      10.392   4.822   4.699  0.00  0.00    -0.232 NA
ATOM     16  C   UNL     1      12.197   6.798   4.166  0.00  0.00    +0.050 A 
ATOM     17  C   UNL     1      11.675   6.717   5.442  0.00  0.00    +0.052 A 
ATOM     19  C   UNL     1      10.768   5.699   5.652  0.00  0.00    +0.075 A 
ATOM     21  C   UNL     1      10.970   5.004   3.497  0.00  0.00    +0.127 A 
ATOM     28  C   UNL     1      10.578   4.054   2.417  0.00  0.00    +0.088 C 
BRANCH  19  27
ATOM      1  F   UNL     1       8.376   4.957  10.630  0.00  0.00    -0.205 F 
ATOM     27  C   UNL     1      10.148   5.507   6.942  0.00  0.00    +0.001 A 
ATOM     29  C   UNL     1       9.589   6.593   7.616  0.00  0.00    +0.013 A 
ATOM     30  C   UNL     1      10.109   4.236   7.514  0.00  0.00    +0.013 A 
ATOM     31  C   UNL     1       8.991   6.407   8.861  0.00  0.00    +0.039 A 
ATOM     32  C   UNL     1       9.510   4.050   8.760  0.00  0.00    +0.039 A 
ATOM     33  C   UNL     1       8.951   5.136   9.433  0.00  0.00    +0.123 A 
ENDBRANCH  19  27
ENDBRANCH   9  16
BRANCH  10  15
ATOM     15  C   UNL     1      11.654  11.128   5.472  0.00  0.00    +0.252 C 
BRANCH  15   2
ATOM      2  O   UNL     1      11.224  10.460   6.643  0.00  0.00    -0.449 OA
BRANCH   2  20
ATOM      3  O   UNL     1       9.227  10.056   7.701  0.00  0.00    -0.226 OA
ATOM      6  N   UNL     1       9.475   9.716   5.420  0.00  0.00    -0.278 N 
ATOM     20  C   UNL     1       9.906  10.074   6.680  0.00  0.00    +0.401 C 
ATOM     34  H   UNL     1      10.134   9.821   4.655  0.00  0.00    +0.152 HD
BRANCH   6  18
ATOM     18  C   UNL     1       8.134   9.262   5.128  0.00  0.00    +0.076 C 
ATOM     22  C   UNL     1       7.392  10.270   4.244  0.00  0.00    +0.022 C 
ATOM     23  C   UNL     1       8.149   7.869   4.490  0.00  0.00    +0.022 C 
ATOM     24  C   UNL     1       7.918  10.285   2.808  0.00  0.00    +0.002 C 
ATOM     25  C   UNL     1       8.674   7.889   3.054  0.00  0.00    +0.002 C 
ATOM     26  C   UNL     1       7.913   8.891   2.191  0.00  0.00    +0.000 C 
ENDBRANCH   6  18
ENDBRANCH   2  20
ENDBRANCH  15   2
ENDBRANCH  10  15
TORSDOF 6
ENDMDL
MODEL 4
REMARK VINA RESULT:      -7.2     13.616     17.088
REMARK  Name = 40776883
REMARK  7 active torsions:
REMARK  status: ('A' for Active; 'I' for Inactive)
REMARK    1  A    between atoms: O_2  and  C_15
REMARK    2  A    between atoms: O_2  and  C_20
REMARK    3  A    between atoms: N_6  and  C_18
REMARK    4  A    between atoms: C_9  and  C_16
REMARK    5  A    between atoms: C_10  and  C_15
REMARK    6  A    between atoms: C_19  and  C_27
REMARK    7  A    between atoms: C_21  and  C_28
REMARK                            x       y       z     vdW  Elec       q    Type
REMARK                         _______ _______ _______ _____ _____    ______ ____
ROOT
ATOM      4  N   UNL     1      12.946  10.017   5.827  0.00  0.00    -0.296 NA
ATOM      8  C   UNL     1      14.016   7.646   5.966  0.00  0.00    +0.002 C 
ATOM      9  C   UNL     1      13.263   7.824   4.618  0.00  0.00    +0.055 C 
ATOM     10  C   UNL     1      12.590   9.372   7.119  0.00  0.00    +0.095 C 
ATOM     11  C   UNL     1      13.039   7.896   7.134  0.00  0.00    +0.026 C 
ATOM     12  C   UNL     1      15.088   8.755   6.026  0.00  0.00    +0.019 C 
ATOM     13  C   UNL     1      12.488   9.172   4.695  0.00  0.00    +0.094 C 
ATOM     14  C   UNL     1      14.423  10.118   5.762  0.00  0.00    +0.085 C 
ENDROOT
BRANCH   9  16
ATOM      5  N   UNL     1      11.473   6.202   5.000  0.00  0.00    -0.237 NA
ATOM      7  N   UNL     1      10.783   4.630   3.310  0.00  0.00    -0.232 NA
ATOM     16  C   UNL     1      12.385   6.682   4.129  0.00  0.00    +0.050 A 
ATOM     17  C   UNL     1      12.554   6.194   2.849  0.00  0.00    +0.052 A 
ATOM     19  C   UNL     1      11.716   5.157   2.491  0.00  0.00    +0.075 A 
ATOM     21  C   UNL     1      10.716   5.191   4.532  0.00  0.00    +0.127 A 
ATOM     28  C   UNL     1       9.698   4.633   5.466  0.00  0.00    +0.088 C 
BRANCH  19  27
ATOM      1  F   UNL     1      12.008   2.841  -2.569  0.00  0.00    -0.205 F 
ATOM     27  C   UNL     1      11.793   4.557   1.180  0.00  0.00    +0.001 A 
ATOM     29  C   UNL     1      12.880   3.751   0.843  0.00  0.00    +0.013 A 
ATOM     30  C   UNL     1      10.778   4.783   0.250  0.00  0.00    +0.013 A 
ATOM     31  C   UNL     1      12.953   3.171  -0.423  0.00  0.00    +0.039 A 
ATOM     32  C   UNL     1      10.851   4.204  -1.017  0.00  0.00    +0.039 A 
ATOM     33  C   UNL     1      11.938   3.398  -1.353  0.00  0.00    +0.123 A 
ENDBRANCH  19  27
ENDBRANCH   9  16
BRANCH  10  15
ATOM     15  C   UNL     1      11.105   9.520   7.454  0.00  0.00    +0.252 C 
BRANCH  15   2
ATOM      2  O   UNL     1      10.550   8.227   7.603  0.00  0.00    -0.449 OA
BRANCH   2  20
ATOM      3  O   UNL     1       8.347   7.587   7.690  0.00  0.00    -0.226 OA
ATOM      6  N   UNL     1       9.293   8.394   5.732  0.00  0.00    -0.278 N 
ATOM     20  C   UNL     1       9.303   8.029   7.062  0.00  0.00    +0.401 C 
ATOM     34  H   UNL     1      10.147   8.788   5.350  0.00  0.00    +0.152 HD
BRANCH   6  18
ATOM     18  C   UNL     1       8.126   8.304   4.882  0.00  0.00    +0.076 C 
ATOM     22  C   UNL     1       7.506   9.686   4.649  0.00  0.00    +0.022 C 
ATOM     23  C   UNL     1       8.463   7.615   3.556  0.00  0.00    +0.022 C 
ATOM     24  C   UNL     1       8.360  10.561   3.730  0.00  0.00    +0.002 C 
ATOM     25  C   UNL     1       9.314   8.493   2.639  0.00  0.00    +0.002 C 
ATOM     26  C   UNL     1       8.671   9.858   2.413  0.00  0.00    +0.000 C 
ENDBRANCH   6  18
ENDBRANCH   2  20
ENDBRANCH  15   2
ENDBRANCH  10  15
TORSDOF 6
ENDMDL
MODEL 5
REMARK VINA RESULT:      -7.1     13.941     16.756
REMARK  Name = 40776883
REMARK  7 active torsions:
REMARK  status: ('A' for Active; 'I' for Inactive)
REMARK    1  A    between atoms: O_2  and  C_15
REMARK    2  A    between atoms: O_2  and  C_20
REMARK    3  A    between atoms: N_6  and  C_18
REMARK    4  A    between atoms: C_9  and  C_16
REMARK    5  A    between atoms: C_10  and  C_15
REMARK    6  A    between atoms: C_19  and  C_27
REMARK    7  A    between atoms: C_21  and  C_28
REMARK                            x       y       z     vdW  Elec       q    Type
REMARK                         _______ _______ _______ _____ _____    ______ ____
ROOT
ATOM      4  N   UNL     1      18.650  -2.848  31.229  0.00  0.00    -0.296 NA
ATOM      8  C   UNL     1      16.118  -2.274  31.017  0.00  0.00    +0.002 C 
ATOM      9  C   UNL     1      16.306  -3.747  31.475  0.00  0.00    +0.055 C 
ATOM     10  C   UNL     1      18.380  -2.213  29.910  0.00  0.00    +0.095 C 
ATOM     11  C   UNL     1      16.862  -2.056  29.682  0.00  0.00    +0.026 C 
ATOM     12  C   UNL     1      16.812  -1.388  32.074  0.00  0.00    +0.019 C 
ATOM     13  C   UNL     1      17.825  -4.072  31.382  0.00  0.00    +0.094 C 
ATOM     14  C   UNL     1      18.254  -1.886  32.284  0.00  0.00    +0.085 C 
ENDROOT
BRANCH   9  16
ATOM      5  N   UNL     1      14.227  -5.030  31.357  0.00  0.00    -0.237 NA
ATOM      7  N   UNL     1      13.859  -6.729  29.690  0.00  0.00    -0.232 NA
ATOM     16  C   UNL     1      15.446  -4.818  30.820  0.00  0.00    +0.050 A 
ATOM     17  C   UNL     1      15.936  -5.513  29.732  0.00  0.00    +0.052 A 
ATOM     19  C   UNL     1      15.089  -6.466  29.203  0.00  0.00    +0.075 A 
ATOM     21  C   UNL     1      13.496  -5.986  30.752  0.00  0.00    +0.127 A 
ATOM     28  C   UNL     1      12.143  -6.249  31.319  0.00  0.00    +0.088 C 
BRANCH  19  27
ATOM      1  F   UNL     1      16.607  -9.539  24.809  0.00  0.00    -0.205 F 
ATOM     27  C   UNL     1      15.482  -7.263  28.065  0.00  0.00    +0.001 A 
ATOM     29  C   UNL     1      15.451  -8.655  28.143  0.00  0.00    +0.013 A 
ATOM     30  C   UNL     1      15.894  -6.639  26.887  0.00  0.00    +0.013 A 
ATOM     31  C   UNL     1      15.831  -9.424  27.043  0.00  0.00    +0.039 A 
ATOM     32  C   UNL     1      16.274  -7.408  25.787  0.00  0.00    +0.039 A 
ATOM     33  C   UNL     1      16.242  -8.800  25.865  0.00  0.00    +0.123 A 
ENDBRANCH  19  27
ENDBRANCH   9  16
BRANCH  10  15
ATOM     15  C   UNL     1      19.056  -2.957  28.757  0.00  0.00    +0.252 C 
BRANCH  15   2
ATOM      2  O   UNL     1      18.049  -3.460  27.900  0.00  0.00    -0.449 OA
BRANCH   2  20
ATOM      3  O   UNL     1      19.349  -4.766  26.530  0.00  0.00    -0.226 OA
ATOM      6  N   UNL     1      17.744  -3.333  25.664  0.00  0.00    -0.278 N 
ATOM     20  C   UNL     1      18.463  -3.931  26.677  0.00  0.00    +0.401 C 
ATOM     34  H   UNL     1      17.005  -2.690  25.933  0.00  0.00    +0.152 HD
BRANCH   6  18
ATOM     18  C   UNL     1      17.944  -3.618  24.260  0.00  0.00    +0.076 C 
ATOM     22  C   UNL     1      16.620  -3.983  23.579  0.00  0.00    +0.022 C 
ATOM     23  C   UNL     1      18.628  -2.445  23.552  0.00  0.00    +0.022 C 
ATOM     24  C   UNL     1      15.697  -2.776  23.411  0.00  0.00    +0.002 C 
ATOM     25  C   UNL     1      17.701  -1.241  23.385  0.00  0.00    +0.002 C 
ATOM     26  C   UNL     1      16.397  -1.626  22.694  0.00  0.00    +0.000 C 
ENDBRANCH   6  18
ENDBRANCH   2  20
ENDBRANCH  15   2
ENDBRANCH  10  15
TORSDOF 6
ENDMDL
MODEL 6
REMARK VINA RESULT:      -7.1     13.652     17.057
REMARK  Name = 40776883
REMARK  7 active torsions:
REMARK  status: ('A' for Active; 'I' for Inactive)
REMARK    1  A    between atoms: O_2  and  C_15
REMARK    2  A    between atoms: O_2  and  C_20
REMARK    3  A    between atoms: N_6  and  C_18
REMARK    4  A    between atoms: C_9  and  C_16
REMARK    5  A    between atoms: C_10  and  C_15
REMARK    6  A    between atoms: C_19  and  C_27
REMARK    7  A    between atoms: C_21  and  C_28
REMARK                            x       y       z     vdW  Elec       q    Type
REMARK                         _______ _______ _______ _____ _____    ______ ____
ROOT
ATOM      4  N   UNL     1      12.325   7.691   0.767  0.00  0.00    -0.296 NA
ATOM      8  C   UNL     1       9.819   7.026   0.517  0.00  0.00    +0.002 C 
ATOM      9  C   UNL     1       9.961   8.278   1.427  0.00  0.00    +0.055 C 
ATOM     10  C   UNL     1      12.153   6.240   1.045  0.00  0.00    +0.095 C 
ATOM     11  C   UNL     1      10.656   5.870   1.105  0.00  0.00    +0.026 C 
ATOM     12  C   UNL     1      10.446   7.392  -0.845  0.00  0.00    +0.019 C 
ATOM     13  C   UNL     1      11.480   8.489   1.691  0.00  0.00    +0.094 C 
ATOM     14  C   UNL     1      11.865   7.945  -0.618  0.00  0.00    +0.085 C 
ENDROOT
BRANCH   9  16
ATOM      5  N   UNL     1       8.084   9.172   2.713  0.00  0.00    -0.237 NA
ATOM      7  N   UNL     1       7.630   8.478   4.975  0.00  0.00    -0.232 NA
ATOM     16  C   UNL     1       9.140   8.333   2.706  0.00  0.00    +0.050 A 
ATOM     17  C   UNL     1       9.500   7.545   3.781  0.00  0.00    +0.052 A 
ATOM     19  C   UNL     1       8.700   7.660   4.899  0.00  0.00    +0.075 A 
ATOM     21  C   UNL     1       7.382   9.195   3.862  0.00  0.00    +0.127 A 
ATOM     28  C   UNL     1       6.207  10.111   3.908  0.00  0.00    +0.088 C 
BRANCH  19  27
ATOM      1  F   UNL     1       9.743   4.693   9.499  0.00  0.00    -0.205 F 
ATOM     27  C   UNL     1       8.970   6.891   6.091  0.00  0.00    +0.001 A 
ATOM     29  C   UNL     1       9.522   5.614   5.987  0.00  0.00    +0.013 A 
ATOM     30  C   UNL     1       8.678   7.425   7.346  0.00  0.00    +0.013 A 
ATOM     31  C   UNL     1       9.783   4.872   7.138  0.00  0.00    +0.039 A 
ATOM     32  C   UNL     1       8.939   6.682   8.497  0.00  0.00    +0.039 A 
ATOM     33  C   UNL     1       9.492   5.406   8.394  0.00  0.00    +0.123 A 
ENDBRANCH  19  27
ENDBRANCH   9  16
BRANCH  10  15
ATOM     15  C   UNL     1      12.901   5.796   2.304  0.00  0.00    +0.252 C 
BRANCH  15   2
ATOM      2  O   UNL     1      14.286   5.995   2.094  0.00  0.00    -0.449 OA
BRANCH   2  20
ATOM      3  O   UNL     1      15.981   7.411   2.724  0.00  0.00    -0.226 OA
ATOM      6  N   UNL     1      14.206   6.944   4.144  0.00  0.00    -0.278 N 
ATOM     20  C   UNL     1      14.923   6.840   2.971  0.00  0.00    +0.401 C 
ATOM     34  H   UNL     1      13.321   6.450   4.195  0.00  0.00    +0.152 HD
BRANCH   6  18
ATOM     18  C   UNL     1      14.616   7.760   5.266  0.00  0.00    +0.076 C 
ATOM     22  C   UNL     1      14.009   9.165   5.176  0.00  0.00    +0.022 C 
ATOM     23  C   UNL     1      14.261   7.086   6.595  0.00  0.00    +0.022 C 
ATOM     24  C   UNL     1      12.506   9.171   5.458  0.00  0.00    +0.002 C 
ATOM     25  C   UNL     1      12.758   7.096   6.875  0.00  0.00    +0.002 C 
ATOM     26  C   UNL     1      12.180   8.505   6.791  0.00  0.00    +0.000 C 
ENDBRANCH   6  18
ENDBRANCH   2  20
ENDBRANCH  15   2
ENDBRANCH  10  15
TORSDOF 6
ENDMDL
MODEL 7
REMARK VINA RESULT:      -7.0     27.739     30.047
REMARK  Name = 40776883
REMARK  7 active torsions:
REMARK  status: ('A' for Active; 'I' for Inactive)
REMARK    1  A    between atoms: O_2  and  C_15
REMARK    2  A    between atoms: O_2  and  C_20
REMARK    3  A    between atoms: N_6  and  C_18
REMARK    4  A    between atoms: C_9  and  C_16
REMARK    5  A    between atoms: C_10  and  C_15
REMARK    6  A    between atoms: C_19  and  C_27
REMARK    7  A    between atoms: C_21  and  C_28
REMARK                            x       y       z     vdW  Elec       q    Type
REMARK                         _______ _______ _______ _____ _____    ______ ____
ROOT
ATOM      4  N   UNL     1      -5.059 -12.800  16.994  0.00  0.00    -0.296 NA
ATOM      8  C   UNL     1      -5.600 -10.473  18.031  0.00  0.00    +0.002 C 
ATOM      9  C   UNL     1      -6.890 -11.130  17.466  0.00  0.00    +0.055 C 
ATOM     10  C   UNL     1      -4.118 -11.776  16.466  0.00  0.00    +0.095 C 
ATOM     11  C   UNL     1      -4.550 -10.361  16.906  0.00  0.00    +0.026 C 
ATOM     12  C   UNL     1      -5.033 -11.445  19.087  0.00  0.00    +0.019 C 
ATOM     13  C   UNL     1      -6.459 -12.408  16.691  0.00  0.00    +0.094 C 
ATOM     14  C   UNL     1      -4.899 -12.848  18.466  0.00  0.00    +0.085 C 
ENDROOT
BRANCH   9  16
ATOM      5  N   UNL     1      -8.600  -9.386  17.354  0.00  0.00    -0.237 NA
ATOM      7  N   UNL     1      -9.578  -8.678  15.269  0.00  0.00    -0.232 NA
ATOM     16  C   UNL     1      -7.845 -10.262  16.660  0.00  0.00    +0.050 A 
ATOM     17  C   UNL     1      -7.899 -10.402  15.288  0.00  0.00    +0.052 A 
ATOM     19  C   UNL     1      -8.793  -9.575  14.639  0.00  0.00    +0.075 A 
ATOM     21  C   UNL     1      -9.434  -8.636  16.607  0.00  0.00    +0.127 A 
ATOM     28  C   UNL     1     -10.286  -7.657  17.339  0.00  0.00    +0.088 C 
BRANCH  19  27
ATOM      1  F   UNL     1      -9.388  -9.767   9.101  0.00  0.00    -0.205 F 
ATOM     27  C   UNL     1      -8.947  -9.625  13.204  0.00  0.00    +0.001 A 
ATOM     29  C   UNL     1      -7.821  -9.701  12.384  0.00  0.00    +0.013 A 
ATOM     30  C   UNL     1     -10.221  -9.597  12.638  0.00  0.00    +0.013 A 
ATOM     31  C   UNL     1      -7.970  -9.749  10.998  0.00  0.00    +0.039 A 
ATOM     32  C   UNL     1     -10.370  -9.645  11.252  0.00  0.00    +0.039 A 
ATOM     33  C   UNL     1      -9.245  -9.721  10.432  0.00  0.00    +0.123 A 
ENDBRANCH  19  27
ENDBRANCH   9  16
BRANCH  10  15
ATOM     15  C   UNL     1      -3.943 -11.873  14.949  0.00  0.00    +0.252 C 
BRANCH  15   2
ATOM      2  O   UNL     1      -3.752 -10.568  14.438  0.00  0.00    -0.449 OA
BRANCH   2  20
ATOM      3  O   UNL     1      -1.734 -10.118  13.438  0.00  0.00    -0.226 OA
ATOM      6  N   UNL     1      -3.585 -10.753  12.192  0.00  0.00    -0.278 N 
ATOM     20  C   UNL     1      -2.912 -10.449  13.357  0.00  0.00    +0.401 C 
ATOM     34  H   UNL     1      -4.550 -11.056  12.276  0.00  0.00    +0.152 HD
BRANCH   6  18
ATOM     18  C   UNL     1      -2.975 -10.721  10.881  0.00  0.00    +0.076 C 
ATOM     22  C   UNL     1      -3.651 -11.720   9.935  0.00  0.00    +0.022 C 
ATOM     23  C   UNL     1      -2.995  -9.304  10.298  0.00  0.00    +0.022 C 
ATOM     24  C   UNL     1      -5.053 -11.274   9.518  0.00  0.00    +0.002 C 
ATOM     25  C   UNL     1      -4.398  -8.863   9.881  0.00  0.00    +0.002 C 
ATOM     26  C   UNL     1      -5.045  -9.866   8.932  0.00  0.00    +0.000 C 
ENDBRANCH   6  18
ENDBRANCH   2  20
ENDBRANCH  15   2
ENDBRANCH  10  15
TORSDOF 6
ENDMDL
MODEL 8
REMARK VINA RESULT:      -6.9     13.549     17.076
REMARK  Name = 40776883
REMARK  7 active torsions:
REMARK  status: ('A' for Active; 'I' for Inactive)
REMARK    1  A    between atoms: O_2  and  C_15
REMARK    2  A    between atoms: O_2  and  C_20
REMARK    3  A    between atoms: N_6  and  C_18
REMARK    4  A    between atoms: C_9  and  C_16
REMARK    5  A    between atoms: C_10  and  C_15
REMARK    6  A    between atoms: C_19  and  C_27
REMARK    7  A    between atoms: C_21  and  C_28
REMARK                            x       y       z     vdW  Elec       q    Type
REMARK                         _______ _______ _______ _____ _____    ______ ____
ROOT
ATOM      4  N   UNL     1      12.595   8.873   5.995  0.00  0.00    -0.296 NA
ATOM      8  C   UNL     1      14.962   9.683   5.271  0.00  0.00    +0.002 C 
ATOM      9  C   UNL     1      14.134   9.244   4.031  0.00  0.00    +0.055 C 
ATOM     10  C   UNL     1      13.637   8.202   6.819  0.00  0.00    +0.095 C 
ATOM     11  C   UNL     1      15.046   8.509   6.270  0.00  0.00    +0.026 C 
ATOM     12  C   UNL     1      14.165  10.810   5.961  0.00  0.00    +0.019 C 
ATOM     13  C   UNL     1      12.824   8.589   4.556  0.00  0.00    +0.094 C 
ATOM     14  C   UNL     1      12.722  10.334   6.206  0.00  0.00    +0.085 C 
ENDROOT
BRANCH   9  16
ATOM      5  N   UNL     1      16.077   8.745   2.633  0.00  0.00    -0.237 NA
ATOM      7  N   UNL     1      16.103   6.903   1.080  0.00  0.00    -0.232 NA
ATOM     16  C   UNL     1      14.821   8.392   2.974  0.00  0.00    +0.050 A 
ATOM     17  C   UNL     1      14.148   7.322   2.419  0.00  0.00    +0.052 A 
ATOM     19  C   UNL     1      14.846   6.606   1.468  0.00  0.00    +0.075 A 
ATOM     21  C   UNL     1      16.652   7.969   1.693  0.00  0.00    +0.127 A 
ATOM     28  C   UNL     1      18.041   8.328   1.290  0.00  0.00    +0.088 C 
BRANCH  19  27
ATOM      1  F   UNL     1      12.560   2.201  -1.066  0.00  0.00    -0.205 F 
ATOM     27  C   UNL     1      14.254   5.465   0.811  0.00  0.00    +0.001 A 
ATOM     29  C   UNL     1      14.371   5.317  -0.571  0.00  0.00    +0.013 A 
ATOM     30  C   UNL     1      13.564   4.511   1.559  0.00  0.00    +0.013 A 
ATOM     31  C   UNL     1      13.799   4.214  -1.205  0.00  0.00    +0.039 A 
ATOM     32  C   UNL     1      12.992   3.408   0.925  0.00  0.00    +0.039 A 
ATOM     33  C   UNL     1      13.110   3.260  -0.457  0.00  0.00    +0.123 A 
ENDBRANCH  19  27
ENDBRANCH   9  16
BRANCH  10  15
ATOM     15  C   UNL     1      13.393   6.698   6.954  0.00  0.00    +0.252 C 
BRANCH  15   2
ATOM      2  O   UNL     1      12.394   6.494   7.933  0.00  0.00    -0.449 OA
BRANCH   2  20
ATOM      3  O   UNL     1      10.583   5.135   8.320  0.00  0.00    -0.226 OA
ATOM      6  N   UNL     1      11.116   5.857   6.181  0.00  0.00    -0.278 N 
ATOM     20  C   UNL     1      11.294   5.767   7.546  0.00  0.00    +0.401 C 
ATOM     34  H   UNL     1      11.755   6.454   5.666  0.00  0.00    +0.152 HD
BRANCH   6  18
ATOM     18  C   UNL     1      10.043   5.202   5.465  0.00  0.00    +0.076 C 
ATOM     22  C   UNL     1       8.788   6.081   5.431  0.00  0.00    +0.022 C 
ATOM     23  C   UNL     1      10.484   4.808   4.052  0.00  0.00    +0.022 C 
ATOM     24  C   UNL     1       8.944   7.287   4.504  0.00  0.00    +0.002 C 
ATOM     25  C   UNL     1      10.637   6.015   3.128  0.00  0.00    +0.002 C 
ATOM     26  C   UNL     1       9.372   6.867   3.101  0.00  0.00    +0.000 C 
ENDBRANCH   6  18
ENDBRANCH   2  20
ENDBRANCH  15   2
ENDBRANCH  10  15
TORSDOF 6
ENDMDL
MODEL 9
REMARK VINA RESULT:      -6.9     14.565     17.565
REMARK  Name = 40776883
REMARK  7 active torsions:
REMARK  status: ('A' for Active; 'I' for Inactive)
REMARK    1  A    between atoms: O_2  and  C_15
REMARK    2  A    between atoms: O_2  and  C_20
REMARK    3  A    between atoms: N_6  and  C_18
REMARK    4  A    between atoms: C_9  and  C_16
REMARK    5  A    between atoms: C_10  and  C_15
REMARK    6  A    between atoms: C_19  and  C_27
REMARK    7  A    between atoms: C_21  and  C_28
REMARK                            x       y       z     vdW  Elec       q    Type
REMARK                         _______ _______ _______ _____ _____    ______ ____
ROOT
ATOM      4  N   UNL     1      18.635  -2.892  31.229  0.00  0.00    -0.296 NA
ATOM      8  C   UNL     1      16.203  -2.006  30.935  0.00  0.00    +0.002 C 
ATOM      9  C   UNL     1      16.201  -3.355  31.706  0.00  0.00    +0.055 C 
ATOM     10  C   UNL     1      18.395  -2.527  29.807  0.00  0.00    +0.095 C 
ATOM     11  C   UNL     1      16.905  -2.197  29.573  0.00  0.00    +0.026 C 
ATOM     12  C   UNL     1      17.067  -1.026  31.757  0.00  0.00    +0.019 C 
ATOM     13  C   UNL     1      17.652  -3.916  31.664  0.00  0.00    +0.094 C 
ATOM     14  C   UNL     1      18.431  -1.676  32.051  0.00  0.00    +0.085 C 
ENDROOT
BRANCH   9  16
ATOM      5  N   UNL     1      15.437  -5.147  30.228  0.00  0.00    -0.237 NA
ATOM      7  N   UNL     1      13.347  -6.294  30.574  0.00  0.00    -0.232 NA
ATOM     16  C   UNL     1      15.167  -4.402  31.319  0.00  0.00    +0.050 A 
ATOM     17  C   UNL     1      14.023  -4.542  32.080  0.00  0.00    +0.052 A 
ATOM     19  C   UNL     1      13.140  -5.514  31.655  0.00  0.00    +0.075 A 
ATOM     21  C   UNL     1      14.498  -6.061  29.916  0.00  0.00    +0.127 A 
ATOM     28  C   UNL     1      14.760  -6.903  28.714  0.00  0.00    +0.088 C 
BRANCH  19  27
ATOM      1  F   UNL     1       8.376  -6.464  34.385  0.00  0.00    -0.205 F 
ATOM     27  C   UNL     1      11.906  -5.760  32.363  0.00  0.00    +0.001 A 
ATOM     29  C   UNL     1      11.245  -4.709  32.998  0.00  0.00    +0.013 A 
ATOM     30  C   UNL     1      11.374  -7.049  32.410  0.00  0.00    +0.013 A 
ATOM     31  C   UNL     1      10.053  -4.947  33.682  0.00  0.00    +0.039 A 
ATOM     32  C   UNL     1      10.182  -7.286  33.093  0.00  0.00    +0.039 A 
ATOM     33  C   UNL     1       9.521  -6.236  33.729  0.00  0.00    +0.123 A 
ENDBRANCH  19  27
ENDBRANCH   9  16
BRANCH  10  15
ATOM     15  C   UNL     1      18.901  -3.597  28.838  0.00  0.00    +0.252 C 
BRANCH  15   2
ATOM      2  O   UNL     1      18.029  -3.639  27.725  0.00  0.00    -0.449 OA
BRANCH   2  20
ATOM      3  O   UNL     1      19.821  -3.883  26.309  0.00  0.00    -0.226 OA
ATOM      6  N   UNL     1      17.672  -3.571  25.494  0.00  0.00    -0.278 N 
ATOM     20  C   UNL     1      18.620  -3.713  26.486  0.00  0.00    +0.401 C 
ATOM     34  H   UNL     1      16.703  -3.481  25.784  0.00  0.00    +0.152 HD
BRANCH   6  18
ATOM     18  C   UNL     1      17.977  -3.603  24.081  0.00  0.00    +0.076 C 
ATOM     22  C   UNL     1      16.723  -3.905  23.254  0.00  0.00    +0.022 C 
ATOM     23  C   UNL     1      18.639  -2.298  23.629  0.00  0.00    +0.022 C 
ATOM     24  C   UNL     1      15.746  -2.729  23.223  0.00  0.00    +0.002 C 
ATOM     25  C   UNL     1      17.659  -1.125  23.598  0.00  0.00    +0.002 C 
ATOM     26  C   UNL     1      16.426  -1.444  22.761  0.00  0.00    +0.000 C 
ENDBRANCH   6  18
ENDBRANCH   2  20
ENDBRANCH  15   2
ENDBRANCH  10  15
TORSDOF 6
ENDMDL
MODEL 10
REMARK VINA RESULT:      -6.8     11.218     14.576
REMARK  Name = 40776883
REMARK  7 active torsions:
REMARK  status: ('A' for Active; 'I' for Inactive)
REMARK    1  A    between atoms: O_2  and  C_15
REMARK    2  A    between atoms: O_2  and  C_20
REMARK    3  A    between atoms: N_6  and  C_18
REMARK    4  A    between atoms: C_9  and  C_16
REMARK    5  A    between atoms: C_10  and  C_15
REMARK    6  A    between atoms: C_19  and  C_27
REMARK    7  A    between atoms: C_21  and  C_28
REMARK                            x       y       z     vdW  Elec       q    Type
REMARK                         _______ _______ _______ _____ _____    ______ ____
ROOT
ATOM      4  N   UNL     1      14.051   7.341   5.664  0.00  0.00    -0.296 NA
ATOM      8  C   UNL     1      14.112   9.944   5.751  0.00  0.00    +0.002 C 
ATOM      9  C   UNL     1      13.255   9.380   6.918  0.00  0.00    +0.055 C 
ATOM     10  C   UNL     1      13.716   7.904   4.328  0.00  0.00    +0.095 C 
ATOM     11  C   UNL     1      13.545   9.435   4.409  0.00  0.00    +0.026 C 
ATOM     12  C   UNL     1      15.524   9.339   5.905  0.00  0.00    +0.019 C 
ATOM     13  C   UNL     1      13.099   7.850   6.682  0.00  0.00    +0.094 C 
ATOM     14  C   UNL     1      15.410   7.809   6.025  0.00  0.00    +0.085 C 
ENDROOT
BRANCH   9  16
ATOM      5  N   UNL     1      11.074  10.212   6.190  0.00  0.00    -0.237 NA
ATOM      7  N   UNL     1       9.527  11.262   7.710  0.00  0.00    -0.232 NA
ATOM     16  C   UNL     1      11.926  10.055   7.224  0.00  0.00    +0.050 A 
ATOM     17  C   UNL     1      11.653  10.470   8.512  0.00  0.00    +0.052 A 
ATOM     19  C   UNL     1      10.426  11.073   8.697  0.00  0.00    +0.075 A 
ATOM     21  C   UNL     1       9.909  10.815   6.499  0.00  0.00    +0.127 A 
ATOM     28  C   UNL     1       8.941  11.007   5.381  0.00  0.00    +0.088 C 
BRANCH  19  27
ATOM      1  F   UNL     1       8.863  12.924  13.715  0.00  0.00    -0.205 F 
ATOM     27  C   UNL     1      10.020  11.553   9.997  0.00  0.00    +0.001 A 
ATOM     29  C   UNL     1       8.668  11.741  10.281  0.00  0.00    +0.013 A 
ATOM     30  C   UNL     1      10.982  11.828  10.969  0.00  0.00    +0.013 A 
ATOM     31  C   UNL     1       8.277  12.204  11.537  0.00  0.00    +0.039 A 
ATOM     32  C   UNL     1      10.591  12.292  12.225  0.00  0.00    +0.039 A 
ATOM     33  C   UNL     1       9.238  12.479  12.509  0.00  0.00    +0.123 A 
ENDBRANCH  19  27
ENDBRANCH   9  16
BRANCH  10  15
ATOM     15  C   UNL     1      12.497   7.226   3.700  0.00  0.00    +0.252 C 
BRANCH  15   2
ATOM      2  O   UNL     1      11.484   8.199   3.530  0.00  0.00    -0.449 OA
BRANCH   2  20
ATOM      3  O   UNL     1       9.308   7.790   2.920  0.00  0.00    -0.226 OA
ATOM      6  N   UNL     1      10.053   7.387   5.079  0.00  0.00    -0.278 N 
ATOM     20  C   UNL     1      10.194   7.789   3.768  0.00  0.00    +0.401 C 
ATOM     34  H   UNL     1      10.884   7.396   5.662  0.00  0.00    +0.152 HD
BRANCH   6  18
ATOM     18  C   UNL     1       8.813   6.900   5.641  0.00  0.00    +0.076 C 
ATOM     22  C   UNL     1       8.891   5.397   5.930  0.00  0.00    +0.022 C 
ATOM     23  C   UNL     1       8.430   7.688   6.898  0.00  0.00    +0.022 C 
ATOM     24  C   UNL     1       9.793   5.079   7.124  0.00  0.00    +0.002 C 
ATOM     25  C   UNL     1       9.333   7.366   8.089  0.00  0.00    +0.002 C 
ATOM     26  C   UNL     1       9.386   5.867   8.364  0.00  0.00    +0.000 C 
ENDBRANCH   6  18
ENDBRANCH   2  20
ENDBRANCH  15   2
ENDBRANCH  10  15
TORSDOF 6
ENDMDL
