MODEL 1
REMARK VINA RESULT:      -6.8      0.000      0.000
REMARK  Name = 7682240
REMARK  2 active torsions:
REMARK  status: ('A' for Active; 'I' for Inactive)
REMARK    1  A    between atoms: C_14  and  C_19
REMARK    2  A    between atoms: C_16  and  C_20
REMARK                            x       y       z     vdW  Elec       q    Type
REMARK                         _______ _______ _______ _____ _____    ______ ____
ROOT
ATOM      2  O   UNL     1      13.376  10.327  16.172  0.00  0.00    -0.268 OA
ATOM      3  O   UNL     1      10.591   8.374  19.910  0.00  0.00    -0.270 OA
ATOM      4  N   UNL     1      12.823   8.013  20.506  0.00  0.00    -0.297 N 
ATOM      5  N   UNL     1      14.312   9.479  18.145  0.00  0.00    -0.311 N 
ATOM      7  C   UNL     1      14.190   6.980  18.712  0.00  0.00    +0.027 C 
ATOM      8  C   UNL     1      15.241   8.551  20.287  0.00  0.00    +0.054 C 
ATOM      9  C   UNL     1      15.454   7.250  19.516  0.00  0.00    +0.018 C 
ATOM     10  C   UNL     1      12.975   6.842  19.645  0.00  0.00    +0.113 C 
ATOM     11  C   UNL     1      14.008   8.111  17.699  0.00  0.00    +0.130 C 
ATOM     12  C   UNL     1      14.037   8.395  21.242  0.00  0.00    +0.117 C 
ATOM     13  C   UNL     1      15.010   9.737  19.342  0.00  0.00    +0.035 A 
ATOM     14  C   UNL     1      15.415  11.003  19.632  0.00  0.00    +0.009 A 
ATOM     15  C   UNL     1      13.972  10.497  17.236  0.00  0.00    +0.252 A 
ATOM     16  C   UNL     1      11.605   8.697  20.527  0.00  0.00    +0.247 C 
ATOM     17  C   UNL     1      15.075  12.079  18.718  0.00  0.00    +0.016 A 
ATOM     18  C   UNL     1      14.385  11.872  17.597  0.00  0.00    +0.071 A 
ENDROOT
BRANCH  16  20
ATOM      6  N   UNL     1      11.326  12.242  22.868  0.00  0.00    -0.263 NA
ATOM     20  C   UNL     1      11.509   9.919  21.334  0.00  0.00    +0.040 A 
ATOM     22  C   UNL     1      10.982   9.862  22.617  0.00  0.00    +0.033 A 
ATOM     23  C   UNL     1      11.946  11.130  20.813  0.00  0.00    +0.033 A 
ATOM     26  C   UNL     1      10.914  11.044  23.339  0.00  0.00    +0.111 A 
ATOM     27  C   UNL     1      11.833  12.254  21.615  0.00  0.00    +0.111 A 
ENDBRANCH  16  20
BRANCH  14  19
ATOM      1  S   UNL     1      17.858  11.104  20.832  0.00  0.00    -0.097 S 
ATOM     19  C   UNL     1      16.154  11.282  20.834  0.00  0.00    +0.021 A 
ATOM     21  C   UNL     1      15.679  11.695  22.058  0.00  0.00    +0.016 A 
ATOM     24  C   UNL     1      16.726  11.868  23.008  0.00  0.00    +0.008 A 
ATOM     25  C   UNL     1      17.963  11.581  22.473  0.00  0.00    +0.046 A 
ENDBRANCH  14  19
TORSDOF 2
ENDMDL
MODEL 2
REMARK VINA RESULT:      -6.2     13.978     16.984
REMARK  Name = 7682240
REMARK  2 active torsions:
REMARK  status: ('A' for Active; 'I' for Inactive)
REMARK    1  A    between atoms: C_14  and  C_19
REMARK    2  A    between atoms: C_16  and  C_20
REMARK                            x       y       z     vdW  Elec       q    Type
REMARK                         _______ _______ _______ _____ _____    ______ ____
ROOT
ATOM      2  O   UNL     1       7.262   8.969   4.192  0.00  0.00    -0.268 OA
ATOM      3  O   UNL     1      11.296   9.949   7.075  0.00  0.00    -0.270 OA
ATOM      4  N   UNL     1      11.292   7.637   6.727  0.00  0.00    -0.297 N 
ATOM      5  N   UNL     1       8.836   7.335   4.772  0.00  0.00    -0.311 N 
ATOM      7  C   UNL     1       9.113   6.551   7.200  0.00  0.00    +0.027 C 
ATOM      8  C   UNL     1      10.567   5.639   5.437  0.00  0.00    +0.054 C 
ATOM      9  C   UNL     1       9.617   5.259   6.571  0.00  0.00    +0.018 C 
ATOM     10  C   UNL     1      10.286   7.376   7.754  0.00  0.00    +0.113 C 
ATOM     11  C   UNL     1       8.316   7.324   6.147  0.00  0.00    +0.130 C 
ATOM     12  C   UNL     1      11.756   6.443   6.006  0.00  0.00    +0.117 C 
ATOM     13  C   UNL     1       9.854   6.455   4.352  0.00  0.00    +0.035 A 
ATOM     14  C   UNL     1      10.189   6.384   3.034  0.00  0.00    +0.009 A 
ATOM     15  C   UNL     1       8.165   8.192   3.882  0.00  0.00    +0.252 A 
ATOM     16  C   UNL     1      11.686   8.952   6.470  0.00  0.00    +0.247 C 
ATOM     17  C   UNL     1       9.518   7.260   2.089  0.00  0.00    +0.016 A 
ATOM     18  C   UNL     1       8.578   8.127   2.462  0.00  0.00    +0.071 A 
ENDROOT
BRANCH  16  20
ATOM      6  N   UNL     1      14.432   9.646   3.290  0.00  0.00    -0.263 NA
ATOM     20  C   UNL     1      12.633   9.191   5.373  0.00  0.00    +0.040 A 
ATOM     22  C   UNL     1      12.160   9.463   4.097  0.00  0.00    +0.033 A 
ATOM     23  C   UNL     1      13.999   9.146   5.616  0.00  0.00    +0.033 A 
ATOM     26  C   UNL     1      13.095   9.683   3.097  0.00  0.00    +0.111 A 
ATOM     27  C   UNL     1      14.850   9.378   4.547  0.00  0.00    +0.111 A 
ENDBRANCH  16  20
BRANCH  14  19
ATOM      1  S   UNL     1      12.781   6.058   2.267  0.00  0.00    -0.097 S 
ATOM     19  C   UNL     1      11.203   5.471   2.580  0.00  0.00    +0.021 A 
ATOM     21  C   UNL     1      11.098   4.119   2.344  0.00  0.00    +0.016 A 
ATOM     24  C   UNL     1      12.328   3.556   1.901  0.00  0.00    +0.008 A 
ATOM     25  C   UNL     1      13.328   4.500   1.814  0.00  0.00    +0.046 A 
ENDBRANCH  14  19
TORSDOF 2
ENDMDL
MODEL 3
REMARK VINA RESULT:      -6.1      2.412      4.198
REMARK  Name = 7682240
REMARK  2 active torsions:
REMARK  status: ('A' for Active; 'I' for Inactive)
REMARK    1  A    between atoms: C_14  and  C_19
REMARK    2  A    between atoms: C_16  and  C_20
REMARK                            x       y       z     vdW  Elec       q    Type
REMARK                         _______ _______ _______ _____ _____    ______ ____
ROOT
ATOM      2  O   UNL     1      15.027  12.514  17.865  0.00  0.00    -0.268 OA
ATOM      3  O   UNL     1      15.245   7.629  19.143  0.00  0.00    -0.270 OA
ATOM      4  N   UNL     1      15.511   8.833  21.130  0.00  0.00    -0.297 N 
ATOM      5  N   UNL     1      15.139  11.787  20.089  0.00  0.00    -0.311 N 
ATOM      7  C   UNL     1      17.231  10.617  21.005  0.00  0.00    +0.027 C 
ATOM      8  C   UNL     1      15.262  10.928  22.447  0.00  0.00    +0.054 C 
ATOM      9  C   UNL     1      16.768  11.162  22.349  0.00  0.00    +0.018 C 
ATOM     10  C   UNL     1      16.926   9.113  20.897  0.00  0.00    +0.113 C 
ATOM     11  C   UNL     1      16.550  11.420  19.896  0.00  0.00    +0.130 C 
ATOM     12  C   UNL     1      14.966   9.415  22.366  0.00  0.00    +0.117 C 
ATOM     13  C   UNL     1      14.501  11.670  21.340  0.00  0.00    +0.035 A 
ATOM     14  C   UNL     1      13.250  12.175  21.514  0.00  0.00    +0.009 A 
ATOM     15  C   UNL     1      14.513  12.376  18.975  0.00  0.00    +0.252 A 
ATOM     16  C   UNL     1      14.787   8.115  20.176  0.00  0.00    +0.247 C 
ATOM     17  C   UNL     1      12.573  12.784  20.382  0.00  0.00    +0.016 A 
ATOM     18  C   UNL     1      13.136  12.877  19.179  0.00  0.00    +0.071 A 
ENDROOT
BRANCH  16  20
ATOM      6  N   UNL     1      10.612   7.564  20.811  0.00  0.00    -0.263 NA
ATOM     20  C   UNL     1      13.347   7.924  20.395  0.00  0.00    +0.040 A 
ATOM     22  C   UNL     1      12.443   8.858  19.908  0.00  0.00    +0.033 A 
ATOM     23  C   UNL     1      12.893   6.811  21.089  0.00  0.00    +0.033 A 
ATOM     26  C   UNL     1      11.096   8.633  20.140  0.00  0.00    +0.111 A 
ATOM     27  C   UNL     1      11.526   6.679  21.269  0.00  0.00    +0.111 A 
ENDBRANCH  16  20
BRANCH  14  19
ATOM      1  S   UNL     1      12.875  13.314  23.958  0.00  0.00    -0.097 S 
ATOM     19  C   UNL     1      12.593  12.093  22.791  0.00  0.00    +0.021 A 
ATOM     21  C   UNL     1      11.722  11.131  23.248  0.00  0.00    +0.016 A 
ATOM     24  C   UNL     1      11.278  11.397  24.575  0.00  0.00    +0.008 A 
ATOM     25  C   UNL     1      11.829  12.555  25.082  0.00  0.00    +0.046 A 
ENDBRANCH  14  19
TORSDOF 2
ENDMDL
MODEL 4
REMARK VINA RESULT:      -5.9     28.098     29.945
REMARK  Name = 7682240
REMARK  2 active torsions:
REMARK  status: ('A' for Active; 'I' for Inactive)
REMARK    1  A    between atoms: C_14  and  C_19
REMARK    2  A    between atoms: C_16  and  C_20
REMARK                            x       y       z     vdW  Elec       q    Type
REMARK                         _______ _______ _______ _____ _____    ______ ____
ROOT
ATOM      2  O   UNL     1      -6.704 -14.901  16.534  0.00  0.00    -0.268 OA
ATOM      3  O   UNL     1      -8.030 -10.672  18.963  0.00  0.00    -0.270 OA
ATOM      4  N   UNL     1      -6.175 -10.114  17.652  0.00  0.00    -0.297 N 
ATOM      5  N   UNL     1      -5.692 -12.829  16.123  0.00  0.00    -0.311 N 
ATOM      7  C   UNL     1      -4.258 -11.668  17.906  0.00  0.00    +0.027 C 
ATOM      8  C   UNL     1      -4.654 -10.573  15.739  0.00  0.00    +0.054 C 
ATOM      9  C   UNL     1      -3.568 -11.015  16.717  0.00  0.00    +0.018 C 
ATOM     10  C   UNL     1      -5.207 -10.672  18.594  0.00  0.00    +0.113 C 
ATOM     11  C   UNL     1      -4.996 -12.914  17.415  0.00  0.00    +0.130 C 
ATOM     12  C   UNL     1      -5.586  -9.552  16.428  0.00  0.00    +0.117 C 
ATOM     13  C   UNL     1      -5.472 -11.764  15.225  0.00  0.00    +0.035 A 
ATOM     14  C   UNL     1      -6.008 -11.809  13.975  0.00  0.00    +0.009 A 
ATOM     15  C   UNL     1      -6.490 -13.939  15.795  0.00  0.00    +0.252 A 
ATOM     16  C   UNL     1      -7.540 -10.201  17.938  0.00  0.00    +0.247 C 
ATOM     17  C   UNL     1      -6.842 -12.939  13.606  0.00  0.00    +0.016 A 
ATOM     18  C   UNL     1      -7.097 -13.943  14.445  0.00  0.00    +0.071 A 
ENDROOT
BRANCH  16  20
ATOM      6  N   UNL     1     -10.301  -8.777  15.026  0.00  0.00    -0.263 NA
ATOM     20  C   UNL     1      -8.492  -9.710  16.933  0.00  0.00    +0.040 A 
ATOM     22  C   UNL     1      -8.999  -8.422  17.032  0.00  0.00    +0.033 A 
ATOM     23  C   UNL     1      -8.883 -10.535  15.888  0.00  0.00    +0.033 A 
ATOM     26  C   UNL     1      -9.894  -8.006  16.058  0.00  0.00    +0.111 A 
ATOM     27  C   UNL     1      -9.783 -10.024  14.967  0.00  0.00    +0.111 A 
ENDBRANCH  16  20
BRANCH  14  19
ATOM      1  S   UNL     1      -4.393 -10.819  12.019  0.00  0.00    -0.097 S 
ATOM     19  C   UNL     1      -5.771 -10.748  13.034  0.00  0.00    +0.021 A 
ATOM     21  C   UNL     1      -6.523  -9.617  12.808  0.00  0.00    +0.016 A 
ATOM     24  C   UNL     1      -5.962  -8.797  11.787  0.00  0.00    +0.008 A 
ATOM     25  C   UNL     1      -4.801  -9.333  11.272  0.00  0.00    +0.046 A 
ENDBRANCH  14  19
TORSDOF 2
ENDMDL
MODEL 5
REMARK VINA RESULT:      -5.6      2.742      5.074
REMARK  Name = 7682240
REMARK  2 active torsions:
REMARK  status: ('A' for Active; 'I' for Inactive)
REMARK    1  A    between atoms: C_14  and  C_19
REMARK    2  A    between atoms: C_16  and  C_20
REMARK                            x       y       z     vdW  Elec       q    Type
REMARK                         _______ _______ _______ _____ _____    ______ ____
ROOT
ATOM      2  O   UNL     1      17.897   9.664  21.681  0.00  0.00    -0.268 OA
ATOM      3  O   UNL     1      13.808  11.713  23.833  0.00  0.00    -0.270 OA
ATOM      4  N   UNL     1      13.696  12.269  21.564  0.00  0.00    -0.297 N 
ATOM      5  N   UNL     1      16.210  10.725  20.450  0.00  0.00    -0.311 N 
ATOM      7  C   UNL     1      15.789  13.247  20.662  0.00  0.00    +0.027 C 
ATOM      8  C   UNL     1      14.361  11.879  19.200  0.00  0.00    +0.054 C 
ATOM      9  C   UNL     1      15.240  13.126  19.247  0.00  0.00    +0.018 C 
ATOM     10  C   UNL     1      14.642  13.376  21.679  0.00  0.00    +0.113 C 
ATOM     11  C   UNL     1      16.671  12.030  20.945  0.00  0.00    +0.130 C 
ATOM     12  C   UNL     1      13.196  12.027  20.203  0.00  0.00    +0.117 C 
ATOM     13  C   UNL     1      15.162  10.609  19.514  0.00  0.00    +0.035 A 
ATOM     14  C   UNL     1      14.879   9.400  18.958  0.00  0.00    +0.009 A 
ATOM     15  C   UNL     1      16.965   9.618  20.877  0.00  0.00    +0.252 A 
ATOM     16  C   UNL     1      13.388  11.508  22.695  0.00  0.00    +0.247 C 
ATOM     17  C   UNL     1      15.637   8.235  19.382  0.00  0.00    +0.016 A 
ATOM     18  C   UNL     1      16.608   8.307  20.291  0.00  0.00    +0.071 A 
ENDROOT
BRANCH  16  20
ATOM      6  N   UNL     1      10.820   8.145  22.222  0.00  0.00    -0.263 NA
ATOM     20  C   UNL     1      12.502  10.349  22.532  0.00  0.00    +0.040 A 
ATOM     22  C   UNL     1      13.026   9.129  22.126  0.00  0.00    +0.033 A 
ATOM     23  C   UNL     1      11.143  10.474  22.785  0.00  0.00    +0.033 A 
ATOM     26  C   UNL     1      12.148   8.065  21.987  0.00  0.00    +0.111 A 
ATOM     27  C   UNL     1      10.351   9.350  22.616  0.00  0.00    +0.111 A 
ENDBRANCH  16  20
BRANCH  14  19
ATOM      1  S   UNL     1      12.286   8.728  18.472  0.00  0.00    -0.097 S 
ATOM     19  C   UNL     1      13.835   9.266  17.978  0.00  0.00    +0.021 A 
ATOM     21  C   UNL     1      13.889   9.518  16.626  0.00  0.00    +0.016 A 
ATOM     24  C   UNL     1      12.642   9.267  15.984  0.00  0.00    +0.008 A 
ATOM     25  C   UNL     1      11.682   8.832  16.873  0.00  0.00    +0.046 A 
ENDBRANCH  14  19
TORSDOF 2
ENDMDL
MODEL 6
REMARK VINA RESULT:      -5.6     14.052     16.886
REMARK  Name = 7682240
REMARK  2 active torsions:
REMARK  status: ('A' for Active; 'I' for Inactive)
REMARK    1  A    between atoms: C_14  and  C_19
REMARK    2  A    between atoms: C_16  and  C_20
REMARK                            x       y       z     vdW  Elec       q    Type
REMARK                         _______ _______ _______ _____ _____    ______ ____
ROOT
ATOM      2  O   UNL     1      12.059  11.448   3.835  0.00  0.00    -0.268 OA
ATOM      3  O   UNL     1       8.814   9.806   7.345  0.00  0.00    -0.270 OA
ATOM      4  N   UNL     1       8.277   8.661   5.378  0.00  0.00    -0.297 N 
ATOM      5  N   UNL     1      10.540   9.708   3.446  0.00  0.00    -0.311 N 
ATOM      7  C   UNL     1       8.010  10.132   3.398  0.00  0.00    +0.027 C 
ATOM      8  C   UNL     1       8.882   7.850   3.106  0.00  0.00    +0.054 C 
ATOM      9  C   UNL     1       7.970   8.910   2.492  0.00  0.00    +0.018 C 
ATOM     10  C   UNL     1       7.519   9.774   4.811  0.00  0.00    +0.113 C 
ATOM     11  C   UNL     1       9.438  10.680   3.411  0.00  0.00    +0.130 C 
ATOM     12  C   UNL     1       8.367   7.476   4.513  0.00  0.00    +0.117 C 
ATOM     13  C   UNL     1      10.334   8.336   3.194  0.00  0.00    +0.035 A 
ATOM     14  C   UNL     1      11.402   7.501   3.073  0.00  0.00    +0.009 A 
ATOM     15  C   UNL     1      11.822  10.258   3.625  0.00  0.00    +0.252 A 
ATOM     16  C   UNL     1       8.891   8.813   6.624  0.00  0.00    +0.247 C 
ATOM     17  C   UNL     1      12.740   8.036   3.258  0.00  0.00    +0.016 A 
ATOM     18  C   UNL     1      12.963   9.320   3.533  0.00  0.00    +0.071 A 
ENDROOT
BRANCH  16  20
ATOM      6  N   UNL     1      11.290   5.614   8.088  0.00  0.00    -0.263 NA
ATOM     20  C   UNL     1       9.719   7.710   7.129  0.00  0.00    +0.040 A 
ATOM     22  C   UNL     1       9.165   6.761   7.978  0.00  0.00    +0.033 A 
ATOM     23  C   UNL     1      11.053   7.618   6.756  0.00  0.00    +0.033 A 
ATOM     26  C   UNL     1       9.987   5.740   8.426  0.00  0.00    +0.111 A 
ATOM     27  C   UNL     1      11.790   6.559   7.260  0.00  0.00    +0.111 A 
ENDBRANCH  16  20
BRANCH  14  19
ATOM      1  S   UNL     1      11.140   5.587   1.154  0.00  0.00    -0.097 S 
ATOM     19  C   UNL     1      11.216   6.105   2.785  0.00  0.00    +0.021 A 
ATOM     21  C   UNL     1      11.081   5.056   3.667  0.00  0.00    +0.016 A 
ATOM     24  C   UNL     1      10.913   3.811   2.997  0.00  0.00    +0.008 A 
ATOM     25  C   UNL     1      10.926   3.955   1.626  0.00  0.00    +0.046 A 
ENDBRANCH  14  19
TORSDOF 2
ENDMDL
MODEL 7
REMARK VINA RESULT:      -5.5     14.182     16.618
REMARK  Name = 7682240
REMARK  2 active torsions:
REMARK  status: ('A' for Active; 'I' for Inactive)
REMARK    1  A    between atoms: C_14  and  C_19
REMARK    2  A    between atoms: C_16  and  C_20
REMARK                            x       y       z     vdW  Elec       q    Type
REMARK                         _______ _______ _______ _____ _____    ______ ____
ROOT
ATOM      2  O   UNL     1      20.258  -5.400  22.063  0.00  0.00    -0.268 OA
ATOM      3  O   UNL     1      20.635  -1.279  24.964  0.00  0.00    -0.270 OA
ATOM      4  N   UNL     1      18.410  -1.983  25.122  0.00  0.00    -0.297 N 
ATOM      5  N   UNL     1      18.504  -4.632  23.412  0.00  0.00    -0.311 N 
ATOM      7  C   UNL     1      17.328  -2.403  22.929  0.00  0.00    +0.027 C 
ATOM      8  C   UNL     1      16.671  -3.744  24.883  0.00  0.00    +0.054 C 
ATOM      9  C   UNL     1      16.141  -3.044  23.634  0.00  0.00    +0.018 C 
ATOM     10  C   UNL     1      18.017  -1.381  23.850  0.00  0.00    +0.113 C 
ATOM     11  C   UNL     1      18.286  -3.510  22.487  0.00  0.00    +0.130 C 
ATOM     12  C   UNL     1      17.336  -2.708  25.816  0.00  0.00    +0.117 C 
ATOM     13  C   UNL     1      17.674  -4.850  24.530  0.00  0.00    +0.035 A 
ATOM     14  C   UNL     1      17.808  -5.989  25.263  0.00  0.00    +0.009 A 
ATOM     15  C   UNL     1      19.514  -5.535  23.035  0.00  0.00    +0.252 A 
ATOM     16  C   UNL     1      19.738  -1.886  25.546  0.00  0.00    +0.247 C 
ATOM     17  C   UNL     1      18.845  -6.939  24.904  0.00  0.00    +0.016 A 
ATOM     18  C   UNL     1      19.668  -6.744  23.875  0.00  0.00    +0.071 A 
ENDROOT
BRANCH  16  20
ATOM      6  N   UNL     1      20.855  -3.885  29.136  0.00  0.00    -0.263 NA
ATOM     20  C   UNL     1      20.123  -2.575  26.785  0.00  0.00    +0.040 A 
ATOM     22  C   UNL     1      20.688  -3.842  26.725  0.00  0.00    +0.033 A 
ATOM     23  C   UNL     1      19.922  -1.959  28.012  0.00  0.00    +0.033 A 
ATOM     26  C   UNL     1      21.035  -4.449  27.921  0.00  0.00    +0.111 A 
ATOM     27  C   UNL     1      20.302  -2.652  29.150  0.00  0.00    +0.111 A 
ENDBRANCH  16  20
BRANCH  14  19
ATOM      1  S   UNL     1      17.467  -5.790  27.957  0.00  0.00    -0.097 S 
ATOM     19  C   UNL     1      16.951  -6.245  26.389  0.00  0.00    +0.021 A 
ATOM     21  C   UNL     1      15.706  -6.832  26.404  0.00  0.00    +0.016 A 
ATOM     24  C   UNL     1      15.167  -6.911  27.720  0.00  0.00    +0.008 A 
ATOM     25  C   UNL     1      16.022  -6.380  28.662  0.00  0.00    +0.046 A 
ENDBRANCH  14  19
TORSDOF 2
ENDMDL
MODEL 8
REMARK VINA RESULT:      -5.3     16.777     19.548
REMARK  Name = 7682240
REMARK  2 active torsions:
REMARK  status: ('A' for Active; 'I' for Inactive)
REMARK    1  A    between atoms: C_14  and  C_19
REMARK    2  A    between atoms: C_16  and  C_20
REMARK                            x       y       z     vdW  Elec       q    Type
REMARK                         _______ _______ _______ _____ _____    ______ ____
ROOT
ATOM      2  O   UNL     1      15.464   6.616   1.750  0.00  0.00    -0.268 OA
ATOM      3  O   UNL     1      12.066   6.037  -1.946  0.00  0.00    -0.270 OA
ATOM      4  N   UNL     1      11.236   4.852  -0.110  0.00  0.00    -0.297 N 
ATOM      5  N   UNL     1      13.410   5.537   2.070  0.00  0.00    -0.311 N 
ATOM      7  C   UNL     1      12.882   3.305   0.918  0.00  0.00    +0.027 C 
ATOM      8  C   UNL     1      11.189   4.392   2.334  0.00  0.00    +0.054 C 
ATOM      9  C   UNL     1      11.944   3.086   2.097  0.00  0.00    +0.018 C 
ATOM     10  C   UNL     1      12.086   3.686  -0.342  0.00  0.00    +0.113 C 
ATOM     11  C   UNL     1      13.898   4.383   1.300  0.00  0.00    +0.130 C 
ATOM     12  C   UNL     1      10.371   4.753   1.075  0.00  0.00    +0.117 C 
ATOM     13  C   UNL     1      12.142   5.541   2.685  0.00  0.00    +0.035 A 
ATOM     14  C   UNL     1      11.799   6.557   3.524  0.00  0.00    +0.009 A 
ATOM     15  C   UNL     1      14.341   6.575   2.252  0.00  0.00    +0.252 A 
ATOM     16  C   UNL     1      11.341   5.958  -0.956  0.00  0.00    +0.247 C 
ATOM     17  C   UNL     1      12.734   7.648   3.729  0.00  0.00    +0.016 A 
ATOM     18  C   UNL     1      13.925   7.689   3.133  0.00  0.00    +0.071 A 
ENDROOT
BRANCH  16  20
ATOM      6  N   UNL     1       9.013   9.408  -0.057  0.00  0.00    -0.263 NA
ATOM     20  C   UNL     1      10.538   7.147  -0.646  0.00  0.00    +0.040 A 
ATOM     22  C   UNL     1      11.010   8.083   0.264  0.00  0.00    +0.033 A 
ATOM     23  C   UNL     1       9.309   7.335  -1.265  0.00  0.00    +0.033 A 
ATOM     26  C   UNL     1      10.215   9.189   0.522  0.00  0.00    +0.111 A 
ATOM     27  C   UNL     1       8.591   8.473  -0.937  0.00  0.00    +0.111 A 
ENDBRANCH  16  20
BRANCH  14  19
ATOM      1  S   UNL     1      10.343   5.738   5.674  0.00  0.00    -0.097 S 
ATOM     19  C   UNL     1      10.522   6.565   4.185  0.00  0.00    +0.021 A 
ATOM     21  C   UNL     1       9.351   7.170   3.786  0.00  0.00    +0.016 A 
ATOM     24  C   UNL     1       8.293   6.953   4.714  0.00  0.00    +0.008 A 
ATOM     25  C   UNL     1       8.695   6.189   5.788  0.00  0.00    +0.046 A 
ENDBRANCH  14  19
TORSDOF 2
ENDMDL
MODEL 9
REMARK VINA RESULT:      -5.3     28.345     31.179
REMARK  Name = 7682240
REMARK  2 active torsions:
REMARK  status: ('A' for Active; 'I' for Inactive)
REMARK    1  A    between atoms: C_14  and  C_19
REMARK    2  A    between atoms: C_16  and  C_20
REMARK                            x       y       z     vdW  Elec       q    Type
REMARK                         _______ _______ _______ _____ _____    ______ ____
ROOT
ATOM      2  O   UNL     1     -10.421  -8.806  18.222  0.00  0.00    -0.268 OA
ATOM      3  O   UNL     1      -6.367 -10.869  20.424  0.00  0.00    -0.270 OA
ATOM      4  N   UNL     1      -7.317 -12.551  19.105  0.00  0.00    -0.297 N 
ATOM      5  N   UNL     1      -9.662 -10.964  17.718  0.00  0.00    -0.311 N 
ATOM      7  C   UNL     1      -9.755 -12.849  19.456  0.00  0.00    +0.027 C 
ATOM      8  C   UNL     1      -8.788 -13.269  17.233  0.00  0.00    +0.054 C 
ATOM      9  C   UNL     1      -9.820 -13.766  18.242  0.00  0.00    +0.018 C 
ATOM     10  C   UNL     1      -8.351 -12.882  20.084  0.00  0.00    +0.113 C 
ATOM     11  C   UNL     1     -10.154 -11.439  19.020  0.00  0.00    +0.130 C 
ATOM     12  C   UNL     1      -7.378 -13.331  17.861  0.00  0.00    +0.117 C 
ATOM     13  C   UNL     1      -9.092 -11.838  16.771  0.00  0.00    +0.035 A 
ATOM     14  C   UNL     1      -8.804 -11.388  15.519  0.00  0.00    +0.009 A 
ATOM     15  C   UNL     1      -9.915  -9.609  17.438  0.00  0.00    +0.252 A 
ATOM     16  C   UNL     1      -6.416 -11.520  19.381  0.00  0.00    +0.247 C 
ATOM     17  C   UNL     1      -9.047  -9.993  15.199  0.00  0.00    +0.016 A 
ATOM     18  C   UNL     1      -9.552  -9.134  16.084  0.00  0.00    +0.071 A 
ENDROOT
BRANCH  16  20
ATOM      6  N   UNL     1      -3.598 -10.451  16.373  0.00  0.00    -0.263 NA
ATOM     20  C   UNL     1      -5.444 -11.152  18.344  0.00  0.00    +0.040 A 
ATOM     22  C   UNL     1      -5.793 -10.234  17.362  0.00  0.00    +0.033 A 
ATOM     23  C   UNL     1      -4.177 -11.721  18.347  0.00  0.00    +0.033 A 
ATOM     26  C   UNL     1      -4.840  -9.920  16.406  0.00  0.00    +0.111 A 
ATOM     27  C   UNL     1      -3.299 -11.340  17.347  0.00  0.00    +0.111 A 
ENDBRANCH  16  20
BRANCH  14  19
ATOM      1  S   UNL     1      -9.304 -13.124  13.482  0.00  0.00    -0.097 S 
ATOM     19  C   UNL     1      -8.250 -12.272  14.529  0.00  0.00    +0.021 A 
ATOM     21  C   UNL     1      -6.927 -12.556  14.276  0.00  0.00    +0.016 A 
ATOM     24  C   UNL     1      -6.774 -13.486  13.207  0.00  0.00    +0.008 A 
ATOM     25  C   UNL     1      -7.988 -13.877  12.685  0.00  0.00    +0.046 A 
ENDBRANCH  14  19
TORSDOF 2
ENDMDL
MODEL 10
REMARK VINA RESULT:      -5.3     13.889     16.534
REMARK  Name = 7682240
REMARK  2 active torsions:
REMARK  status: ('A' for Active; 'I' for Inactive)
REMARK    1  A    between atoms: C_14  and  C_19
REMARK    2  A    between atoms: C_16  and  C_20
REMARK                            x       y       z     vdW  Elec       q    Type
REMARK                         _______ _______ _______ _____ _____    ______ ____
ROOT
ATOM      2  O   UNL     1       8.733  11.129   4.255  0.00  0.00    -0.268 OA
ATOM      3  O   UNL     1      12.813   8.907   2.264  0.00  0.00    -0.270 OA
ATOM      4  N   UNL     1      12.879   8.454   4.557  0.00  0.00    -0.297 N 
ATOM      5  N   UNL     1      10.168   9.759   5.500  0.00  0.00    -0.311 N 
ATOM      7  C   UNL     1      12.588  10.458   5.990  0.00  0.00    +0.027 C 
ATOM      8  C   UNL     1      11.753   8.278   6.767  0.00  0.00    +0.054 C 
ATOM      9  C   UNL     1      12.443   9.565   7.214  0.00  0.00    +0.018 C 
ATOM     10  C   UNL     1      13.431   9.760   4.909  0.00  0.00    +0.113 C 
ATOM     11  C   UNL     1      11.190  10.816   5.483  0.00  0.00    +0.130 C 
ATOM     12  C   UNL     1      12.619   7.569   5.702  0.00  0.00    +0.117 C 
ATOM     13  C   UNL     1      10.353   8.552   6.205  0.00  0.00    +0.035 A 
ATOM     14  C   UNL     1       9.320   7.675   6.332  0.00  0.00    +0.009 A 
ATOM     15  C   UNL     1       8.953  10.087   4.872  0.00  0.00    +0.252 A 
ATOM     16  C   UNL     1      12.593   8.166   3.220  0.00  0.00    +0.247 C 
ATOM     17  C   UNL     1       8.053   7.981   5.691  0.00  0.00    +0.016 A 
ATOM     18  C   UNL     1       7.860   9.096   4.987  0.00  0.00    +0.071 A 
ENDROOT
BRANCH  16  20
ATOM      6  N   UNL     1      10.754   4.434   2.313  0.00  0.00    -0.263 NA
ATOM     20  C   UNL     1      11.960   6.879   2.908  0.00  0.00    +0.040 A 
ATOM     22  C   UNL     1      10.575   6.771   2.905  0.00  0.00    +0.033 A 
ATOM     23  C   UNL     1      12.745   5.772   2.614  0.00  0.00    +0.033 A 
ATOM     26  C   UNL     1      10.026   5.535   2.603  0.00  0.00    +0.111 A 
ATOM     27  C   UNL     1      12.098   4.582   2.327  0.00  0.00    +0.111 A 
ENDBRANCH  16  20
BRANCH  14  19
ATOM      1  S   UNL     1       9.855   5.007   6.237  0.00  0.00    -0.097 S 
ATOM     19  C   UNL     1       9.479   6.453   7.073  0.00  0.00    +0.021 A 
ATOM     21  C   UNL     1       9.370   6.252   8.431  0.00  0.00    +0.016 A 
ATOM     24  C   UNL     1       9.598   4.893   8.791  0.00  0.00    +0.008 A 
ATOM     25  C   UNL     1       9.873   4.107   7.693  0.00  0.00    +0.046 A 
ENDBRANCH  14  19
TORSDOF 2
ENDMDL
