REMARK  Name = 45783543
REMARK  11 active torsions:
REMARK  status: ('A' for Active; 'I' for Inactive)
REMARK    1  A    between atoms: O_2  and  C_26
REMARK    2  A    between atoms: O_3  and  C_28
REMARK    3  A    between atoms: O_3  and  C_29
REMARK    4  A    between atoms: O_5  and  C_30
REMARK    5  A    between atoms: O_5  and  C_31
REMARK    6  A    between atoms: N_6  and  C_14
REMARK    7  A    between atoms: C_10  and  C_15
REMARK    8  A    between atoms: C_14  and  C_16
REMARK    9  A    between atoms: C_19  and  C_23
REMARK   10  A    between atoms: C_22  and  C_26
REMARK   11  A    between atoms: C_29  and  C_30
REMARK                            x       y       z     vdW  Elec       q    Type
REMARK                         _______ _______ _______ _____ _____    ______ ____
ROOT
ATOM      6  N   UNL     1      -4.306  -0.857  -0.879  0.00  0.00    -0.287 NA
ATOM     10  C   UNL     1      -3.968  -1.627   0.335  0.00  0.00    +0.146 C 
ATOM     11  C   UNL     1      -4.367  -3.077   0.002  0.00  0.00    +0.030 C 
ATOM     12  C   UNL     1      -4.973  -3.012  -1.392  0.00  0.00    +0.017 C 
ATOM     13  C   UNL     1      -5.410  -1.567  -1.525  0.00  0.00    +0.085 C 
ENDROOT
BRANCH  10  15
ATOM      1  O   UNL     1      -2.216  -1.648   2.039  0.00  0.00    -0.336 OA
ATOM      7  N   UNL     1      -1.470  -1.251  -0.036  0.00  0.00    -0.190 NA
ATOM      8  N   UNL     1      -0.829  -1.484   2.148  0.00  0.00    -0.056 NA
ATOM     15  C   UNL     1      -2.510  -1.495   0.721  0.00  0.00    +0.245 A 
ATOM     19  C   UNL     1      -0.462  -1.254   0.884  0.00  0.00    +0.204 A 
BRANCH  19  23
ATOM      9  N   UNL     1       3.221  -0.818   1.162  0.00  0.00    -0.221 NA
ATOM     23  C   UNL     1       0.903  -1.024   0.507  0.00  0.00    +0.041 A 
ATOM     24  C   UNL     1       1.249  -0.788  -0.819  0.00  0.00    +0.018 A 
ATOM     25  C   UNL     1       1.917  -1.028   1.451  0.00  0.00    +0.126 A 
ATOM     27  C   UNL     1       2.580  -0.568  -1.156  0.00  0.00    +0.068 A 
ATOM     28  C   UNL     1       3.519  -0.592  -0.137  0.00  0.00    +0.215 A 
BRANCH  28   3
ATOM      3  O   UNL     1       4.838  -0.378  -0.443  0.00  0.00    -0.474 OA
BRANCH   3  29
ATOM     29  C   UNL     1       5.760  -0.414   0.639  0.00  0.00    +0.258 C 
BRANCH  29  30
ATOM     30  C   UNL     1       7.160  -0.180   0.105  0.00  0.00    +0.200 C 
BRANCH  30   5
ATOM      5  O   UNL     1       7.482  -1.213  -0.818  0.00  0.00    -0.380 OA
ATOM     31  C   UNL     1       8.780  -1.032  -1.369  0.00  0.00    +0.194 C 
ENDBRANCH  30   5
ENDBRANCH  29  30
ENDBRANCH   3  29
ENDBRANCH  28   3
ENDBRANCH  19  23
ENDBRANCH  10  15
BRANCH   6  14
ATOM     14  C   UNL     1      -4.637   0.535  -0.602  0.00  0.00    +0.120 C 
BRANCH  14  16
ATOM     16  C   UNL     1      -3.404   1.375  -0.400  0.00  0.00    -0.033 A 
ATOM     17  C   UNL     1      -3.219   2.063   0.799  0.00  0.00    +0.006 A 
ATOM     18  C   UNL     1      -2.447   1.465  -1.411  0.00  0.00    +0.006 A 
ATOM     20  C   UNL     1      -2.076   2.841   0.987  0.00  0.00    +0.015 A 
ATOM     21  C   UNL     1      -1.305   2.243  -1.223  0.00  0.00    +0.015 A 
ATOM     22  C   UNL     1      -1.119   2.931  -0.024  0.00  0.00    +0.059 A 
BRANCH  22  26
ATOM      4  O   UNL     1       0.338   4.390   1.190  0.00  0.00    -0.245 OA
ATOM     26  C   UNL     1       0.072   3.742   0.172  0.00  0.00    +0.337 C 
BRANCH  26   2
ATOM      2  O   UNL     1       0.900   3.720  -0.908  0.00  0.00    -0.477 OA
ATOM     32  H   UNL     1       1.701   4.268  -0.766  0.00  0.00    +0.295 HD
ENDBRANCH  26   2
ENDBRANCH  22  26
ENDBRANCH  14  16
ENDBRANCH   6  14
TORSDOF 10
