REMARK  Name = 45784231
REMARK  2 active torsions:
REMARK  status: ('A' for Active; 'I' for Inactive)
REMARK    1  A    between atoms: N_2  and  C_5
REMARK    2  A    between atoms: C_8  and  C_13
REMARK                            x       y       z     vdW  Elec       q    Type
REMARK                         _______ _______ _______ _____ _____    ______ ____
ROOT
ATOM      1  F   UNL     1      -6.198  -0.386  -0.641  0.00  0.00    -0.205 F 
ATOM      3  N   UNL     1      -1.494   0.819  -1.086  0.00  0.00    -0.341 N 
ATOM      4  N   UNL     1      -0.920  -0.119   0.846  0.00  0.00    -0.232 NA
ATOM     13  C   UNL     1      -0.487   0.543  -0.204  0.00  0.00    +0.113 A 
ATOM     14  C   UNL     1      -2.655   0.301  -0.571  0.00  0.00    +0.069 A 
ATOM     15  C   UNL     1      -2.270  -0.280   0.634  0.00  0.00    +0.089 A 
ATOM     16  C   UNL     1      -3.968   0.290  -1.042  0.00  0.00    +0.066 A 
ATOM     17  C   UNL     1      -3.240  -0.913   1.430  0.00  0.00    +0.032 A 
ATOM     18  C   UNL     1      -4.920  -0.345  -0.238  0.00  0.00    +0.125 A 
ATOM     19  C   UNL     1      -4.565  -0.936   0.977  0.00  0.00    +0.040 A 
ATOM     20  H   UNL     1      -1.404   1.317  -1.962  0.00  0.00    +0.167 HD
ENDROOT
BRANCH  13   8
ATOM      2  N   UNL     1       3.175   0.404  -0.089  0.00  0.00    -0.299 NA
ATOM      8  C   UNL     1       0.934   0.981  -0.473  0.00  0.00    +0.070 C 
ATOM      9  C   UNL     1       1.918  -0.194  -0.551  0.00  0.00    +0.096 C 
ATOM     11  C   UNL     1       2.799   1.221   1.065  0.00  0.00    +0.085 C 
ATOM     12  C   UNL     1       1.533   1.921   0.588  0.00  0.00    +0.028 C 
BRANCH   2   5
ATOM      5  C   UNL     1       4.134  -0.636   0.299  0.00  0.00    +0.057 C 
ATOM      6  C   UNL     1       5.548  -0.026   0.394  0.00  0.00    +0.019 C 
ATOM      7  C   UNL     1       4.625  -1.384  -0.958  0.00  0.00    +0.019 C 
ATOM     10  C   UNL     1       6.050  -1.262  -0.381  0.00  0.00    +0.003 C 
ENDBRANCH   2   5
ENDBRANCH  13   8
TORSDOF 2
