MODEL 1
REMARK VINA RESULT:      -6.4      0.000      0.000
REMARK  Name = 75536724
REMARK  9 active torsions:
REMARK  status: ('A' for Active; 'I' for Inactive)
REMARK    1  A    between atoms: O_2  and  C_11
REMARK    2  A    between atoms: N_5  and  C_9
REMARK    3  A    between atoms: N_5  and  C_10
REMARK    4  A    between atoms: N_7  and  C_18
REMARK    5  A    between atoms: N_8  and  C_22
REMARK    6  A    between atoms: C_12  and  C_18
REMARK    7  A    between atoms: C_19  and  C_20
REMARK    8  A    between atoms: C_22  and  C_23
REMARK    9  A    between atoms: C_22  and  C_24
REMARK                            x       y       z     vdW  Elec       q    Type
REMARK                         _______ _______ _______ _____ _____    ______ ____
ROOT
ATOM      1  O   UNL     1     -16.459   4.385  22.140  0.00  0.00    -0.371 OA
ATOM      9  C   UNL     1     -14.353   5.478  22.040  0.00  0.00    +0.111 C 
ATOM     11  C   UNL     1     -14.600   5.011  23.462  0.00  0.00    +0.164 C 
ATOM     12  C   UNL     1     -15.649   3.930  23.238  0.00  0.00    +0.165 C 
ATOM     15  C   UNL     1     -15.758   5.442  21.463  0.00  0.00    +0.181 C 
ENDROOT
BRANCH  11   2
ATOM      2  O   UNL     1     -13.437   4.496  24.079  0.00  0.00    -0.388 OA
ATOM     26  H   UNL     1     -13.365   4.882  24.969  0.00  0.00    +0.210 HD
ENDBRANCH  11   2
BRANCH   9   5
ATOM      5  N   UNL     1     -13.740   6.794  21.957  0.00  0.00    -0.306 NA
ATOM     25  H   UNL     1     -12.912   6.834  22.550  0.00  0.00    +0.123 HD
BRANCH   5  10
ATOM      3  O   UNL     1      -9.730   9.346  18.056  0.00  0.00    -0.276 OA
ATOM      6  N   UNL     1     -11.870   8.681  18.670  0.00  0.00    -0.302 N 
ATOM     10  C   UNL     1     -13.381   7.112  20.577  0.00  0.00    +0.057 C 
ATOM     13  C   UNL     1     -13.754   8.565  20.257  0.00  0.00    +0.037 C 
ATOM     14  C   UNL     1     -11.880   6.884  20.357  0.00  0.00    +0.037 C 
ATOM     16  C   UNL     1     -13.302   8.951  18.849  0.00  0.00    +0.109 C 
ATOM     17  C   UNL     1     -11.467   7.301  18.946  0.00  0.00    +0.109 C 
ATOM     19  C   UNL     1     -10.923   9.607  18.233  0.00  0.00    +0.212 C 
ATOM     20  C   UNL     1     -11.418  11.007  17.972  0.00  0.00    +0.109 C 
ENDBRANCH   5  10
ENDBRANCH   9   5
BRANCH  12  18
ATOM     18  C   UNL     1     -16.525   3.681  24.453  0.00  0.00    +0.140 C 
BRANCH  18   7
ATOM      4  O   UNL     1     -17.452   2.922  27.078  0.00  0.00    -0.253 OA
ATOM      7  N   UNL     1     -15.742   3.580  25.650  0.00  0.00    -0.297 N 
ATOM      8  N   UNL     1     -15.291   3.187  27.880  0.00  0.00    -0.297 N 
ATOM     21  C   UNL     1     -16.270   3.204  26.888  0.00  0.00    +0.300 C 
ATOM     27  H   UNL     1     -14.754   3.809  25.598  0.00  0.00    +0.150 HD
ATOM     28  H   UNL     1     -14.328   3.362  27.609  0.00  0.00    +0.150 HD
BRANCH   8  22
ATOM     22  C   UNL     1     -15.572   2.832  29.250  0.00  0.00    +0.068 C 
ATOM     23  C   UNL     1     -14.590   3.523  30.188  0.00  0.00    +0.027 C 
ATOM     24  C   UNL     1     -15.536   1.320  29.430  0.00  0.00    +0.027 C 
ENDBRANCH   8  22
ENDBRANCH  18   7
ENDBRANCH  12  18
TORSDOF 6
ENDMDL
MODEL 2
REMARK VINA RESULT:      -6.3     17.091     18.410
REMARK  Name = 75536724
REMARK  9 active torsions:
REMARK  status: ('A' for Active; 'I' for Inactive)
REMARK    1  A    between atoms: O_2  and  C_11
REMARK    2  A    between atoms: N_5  and  C_9
REMARK    3  A    between atoms: N_5  and  C_10
REMARK    4  A    between atoms: N_7  and  C_18
REMARK    5  A    between atoms: N_8  and  C_22
REMARK    6  A    between atoms: C_12  and  C_18
REMARK    7  A    between atoms: C_19  and  C_20
REMARK    8  A    between atoms: C_22  and  C_23
REMARK    9  A    between atoms: C_22  and  C_24
REMARK                            x       y       z     vdW  Elec       q    Type
REMARK                         _______ _______ _______ _____ _____    ______ ____
ROOT
ATOM      1  O   UNL     1      -8.687 -10.982  18.557  0.00  0.00    -0.371 OA
ATOM      9  C   UNL     1      -9.233  -9.145  17.156  0.00  0.00    +0.111 C 
ATOM     11  C   UNL     1      -7.724  -9.286  17.220  0.00  0.00    +0.164 C 
ATOM     12  C   UNL     1      -7.583 -10.734  17.670  0.00  0.00    +0.165 C 
ATOM     15  C   UNL     1      -9.663  -9.941  18.376  0.00  0.00    +0.181 C 
ENDROOT
BRANCH  11   2
ATOM      2  O   UNL     1      -7.099  -9.060  15.972  0.00  0.00    -0.388 OA
ATOM     26  H   UNL     1      -6.138  -9.156  16.089  0.00  0.00    +0.210 HD
ENDBRANCH  11   2
BRANCH   9   5
ATOM      5  N   UNL     1      -9.692  -7.765  17.189  0.00  0.00    -0.306 NA
ATOM     25  H   UNL     1      -8.966  -7.144  16.834  0.00  0.00    +0.123 HD
BRANCH   5  10
ATOM      3  O   UNL     1     -12.283  -6.406  11.781  0.00  0.00    -0.276 OA
ATOM      6  N   UNL     1     -12.297  -6.524  14.102  0.00  0.00    -0.302 N 
ATOM     10  C   UNL     1     -10.912  -7.606  16.403  0.00  0.00    +0.057 C 
ATOM     13  C   UNL     1     -11.294  -6.122  16.319  0.00  0.00    +0.037 C 
ATOM     14  C   UNL     1     -10.714  -8.188  14.998  0.00  0.00    +0.037 C 
ATOM     16  C   UNL     1     -12.515  -5.920  15.422  0.00  0.00    +0.109 C 
ATOM     17  C   UNL     1     -11.946  -7.945  14.128  0.00  0.00    +0.109 C 
ATOM     19  C   UNL     1     -12.437  -5.866  12.881  0.00  0.00    +0.212 C 
ATOM     20  C   UNL     1     -12.797  -4.403  12.938  0.00  0.00    +0.109 C 
ENDBRANCH   5  10
ENDBRANCH   9   5
BRANCH  12  18
ATOM     18  C   UNL     1      -6.275 -11.017  18.387  0.00  0.00    +0.140 C 
BRANCH  18   7
ATOM      4  O   UNL     1      -4.438 -12.331  16.592  0.00  0.00    -0.253 OA
ATOM      7  N   UNL     1      -5.165 -10.424  17.701  0.00  0.00    -0.297 N 
ATOM      8  N   UNL     1      -3.324 -10.316  16.312  0.00  0.00    -0.297 N 
ATOM     21  C   UNL     1      -4.319 -11.134  16.844  0.00  0.00    +0.300 C 
ATOM     27  H   UNL     1      -4.974  -9.438  17.857  0.00  0.00    +0.150 HD
ATOM     28  H   UNL     1      -3.353  -9.322  16.521  0.00  0.00    +0.150 HD
BRANCH   8  22
ATOM     22  C   UNL     1      -2.319 -10.802  15.397  0.00  0.00    +0.068 C 
ATOM     23  C   UNL     1      -0.984 -10.119  15.666  0.00  0.00    +0.027 C 
ATOM     24  C   UNL     1      -2.763 -10.596  13.955  0.00  0.00    +0.027 C 
ENDBRANCH   8  22
ENDBRANCH  18   7
ENDBRANCH  12  18
TORSDOF 6
ENDMDL
MODEL 3
REMARK VINA RESULT:      -6.2     16.076     18.450
REMARK  Name = 75536724
REMARK  9 active torsions:
REMARK  status: ('A' for Active; 'I' for Inactive)
REMARK    1  A    between atoms: O_2  and  C_11
REMARK    2  A    between atoms: N_5  and  C_9
REMARK    3  A    between atoms: N_5  and  C_10
REMARK    4  A    between atoms: N_7  and  C_18
REMARK    5  A    between atoms: N_8  and  C_22
REMARK    6  A    between atoms: C_12  and  C_18
REMARK    7  A    between atoms: C_19  and  C_20
REMARK    8  A    between atoms: C_22  and  C_23
REMARK    9  A    between atoms: C_22  and  C_24
REMARK                            x       y       z     vdW  Elec       q    Type
REMARK                         _______ _______ _______ _____ _____    ______ ____
ROOT
ATOM      1  O   UNL     1     -11.870  -7.974  13.975  0.00  0.00    -0.371 OA
ATOM      9  C   UNL     1     -10.111  -8.427  15.504  0.00  0.00    +0.111 C 
ATOM     11  C   UNL     1     -10.534  -6.978  15.652  0.00  0.00    +0.164 C 
ATOM     12  C   UNL     1     -11.929  -7.015  15.045  0.00  0.00    +0.165 C 
ATOM     15  C   UNL     1     -10.684  -8.769  14.139  0.00  0.00    +0.181 C 
ENDROOT
BRANCH  11   2
ATOM      2  O   UNL     1     -10.558  -6.550  17.000  0.00  0.00    -0.388 OA
ATOM     26  H   UNL     1     -10.216  -7.271  17.556  0.00  0.00    +0.210 HD
ENDBRANCH  11   2
BRANCH   9   5
ATOM      5  N   UNL     1      -8.672  -8.626  15.581  0.00  0.00    -0.306 NA
ATOM     25  H   UNL     1      -8.229  -7.820  16.020  0.00  0.00    +0.123 HD
BRANCH   5  10
ATOM      3  O   UNL     1      -6.168 -11.171  20.587  0.00  0.00    -0.276 OA
ATOM      6  N   UNL     1      -6.804 -11.212  18.353  0.00  0.00    -0.302 N 
ATOM     10  C   UNL     1      -8.356  -9.839  16.331  0.00  0.00    +0.057 C 
ATOM     13  C   UNL     1      -6.897 -10.244  16.086  0.00  0.00    +0.037 C 
ATOM     14  C   UNL     1      -8.606  -9.613  17.827  0.00  0.00    +0.037 C 
ATOM     16  C   UNL     1      -6.514 -11.456  16.934  0.00  0.00    +0.109 C 
ATOM     17  C   UNL     1      -8.191 -10.839  18.640  0.00  0.00    +0.109 C 
ATOM     19  C   UNL     1      -5.891 -11.347  19.398  0.00  0.00    +0.212 C 
ATOM     20  C   UNL     1      -4.483 -11.732  19.019  0.00  0.00    +0.109 C 
ENDBRANCH   5  10
ENDBRANCH   9   5
BRANCH  12  18
ATOM     18  C   UNL     1     -12.387  -5.671  14.505  0.00  0.00    +0.140 C 
BRANCH  18   7
ATOM      4  O   UNL     1     -12.358  -3.316  12.839  0.00  0.00    -0.253 OA
ATOM      7  N   UNL     1     -12.301  -5.627  13.075  0.00  0.00    -0.297 N 
ATOM      8  N   UNL     1     -12.203  -4.683  10.970  0.00  0.00    -0.297 N 
ATOM     21  C   UNL     1     -12.293  -4.438  12.339  0.00  0.00    +0.300 C 
ATOM     27  H   UNL     1     -12.258  -6.506  12.568  0.00  0.00    +0.150 HD
ATOM     28  H   UNL     1     -12.078  -5.641  10.659  0.00  0.00    +0.150 HD
BRANCH   8  22
ATOM     22  C   UNL     1     -12.176  -3.626   9.987  0.00  0.00    +0.068 C 
ATOM     23  C   UNL     1     -13.388  -3.725   9.070  0.00  0.00    +0.027 C 
ATOM     24  C   UNL     1     -10.877  -3.668   9.192  0.00  0.00    +0.027 C 
ENDBRANCH   8  22
ENDBRANCH  18   7
ENDBRANCH  12  18
TORSDOF 6
ENDMDL
MODEL 4
REMARK VINA RESULT:      -6.0      3.004     10.054
REMARK  Name = 75536724
REMARK  9 active torsions:
REMARK  status: ('A' for Active; 'I' for Inactive)
REMARK    1  A    between atoms: O_2  and  C_11
REMARK    2  A    between atoms: N_5  and  C_9
REMARK    3  A    between atoms: N_5  and  C_10
REMARK    4  A    between atoms: N_7  and  C_18
REMARK    5  A    between atoms: N_8  and  C_22
REMARK    6  A    between atoms: C_12  and  C_18
REMARK    7  A    between atoms: C_19  and  C_20
REMARK    8  A    between atoms: C_22  and  C_23
REMARK    9  A    between atoms: C_22  and  C_24
REMARK                            x       y       z     vdW  Elec       q    Type
REMARK                         _______ _______ _______ _____ _____    ______ ____
ROOT
ATOM      1  O   UNL     1     -16.971   1.522  25.407  0.00  0.00    -0.371 OA
ATOM      9  C   UNL     1     -16.309   2.995  27.148  0.00  0.00    +0.111 C 
ATOM     11  C   UNL     1     -16.046   3.661  25.811  0.00  0.00    +0.164 C 
ATOM     12  C   UNL     1     -16.974   2.868  24.901  0.00  0.00    +0.165 C 
ATOM     15  C   UNL     1     -16.430   1.536  26.740  0.00  0.00    +0.181 C 
ENDROOT
BRANCH  11   2
ATOM      2  O   UNL     1     -16.365   5.039  25.814  0.00  0.00    -0.388 OA
ATOM     26  H   UNL     1     -17.318   5.133  25.982  0.00  0.00    +0.210 HD
ENDBRANCH  11   2
BRANCH   9   5
ATOM      5  N   UNL     1     -15.260   3.223  28.130  0.00  0.00    -0.306 NA
ATOM     25  H   UNL     1     -14.841   4.142  27.990  0.00  0.00    +0.123 HD
BRANCH   5  10
ATOM      3  O   UNL     1     -16.126   5.856  33.619  0.00  0.00    -0.276 OA
ATOM      6  N   UNL     1     -15.836   4.006  32.243  0.00  0.00    -0.302 N 
ATOM     10  C   UNL     1     -15.789   3.118  29.487  0.00  0.00    +0.057 C 
ATOM     13  C   UNL     1     -14.661   2.763  30.465  0.00  0.00    +0.037 C 
ATOM     14  C   UNL     1     -16.458   4.436  29.896  0.00  0.00    +0.037 C 
ATOM     16  C   UNL     1     -15.171   2.741  31.906  0.00  0.00    +0.109 C 
ATOM     17  C   UNL     1     -16.933   4.379  31.347  0.00  0.00    +0.109 C 
ATOM     19  C   UNL     1     -15.528   4.814  33.336  0.00  0.00    +0.212 C 
ATOM     20  C   UNL     1     -14.384   4.362  34.209  0.00  0.00    +0.109 C 
ENDBRANCH   5  10
ENDBRANCH   9   5
BRANCH  12  18
ATOM     18  C   UNL     1     -16.536   2.870  23.447  0.00  0.00    +0.140 C 
BRANCH  18   7
ATOM      4  O   UNL     1     -16.173   4.953  21.485  0.00  0.00    -0.253 OA
ATOM      7  N   UNL     1     -15.369   3.681  23.254  0.00  0.00    -0.297 N 
ATOM      8  N   UNL     1     -14.033   5.308  22.308  0.00  0.00    -0.297 N 
ATOM     21  C   UNL     1     -15.274   4.675  22.275  0.00  0.00    +0.300 C 
ATOM     27  H   UNL     1     -14.565   3.515  23.851  0.00  0.00    +0.150 HD
ATOM     28  H   UNL     1     -13.383   5.059  23.047  0.00  0.00    +0.150 HD
BRANCH   8  22
ATOM     22  C   UNL     1     -13.676   6.373  21.401  0.00  0.00    +0.068 C 
ATOM     23  C   UNL     1     -12.178   6.350  21.121  0.00  0.00    +0.027 C 
ATOM     24  C   UNL     1     -14.111   7.721  21.960  0.00  0.00    +0.027 C 
ENDBRANCH   8  22
ENDBRANCH  18   7
ENDBRANCH  12  18
TORSDOF 6
ENDMDL
MODEL 5
REMARK VINA RESULT:      -6.0     19.763     20.652
REMARK  Name = 75536724
REMARK  9 active torsions:
REMARK  status: ('A' for Active; 'I' for Inactive)
REMARK    1  A    between atoms: O_2  and  C_11
REMARK    2  A    between atoms: N_5  and  C_9
REMARK    3  A    between atoms: N_5  and  C_10
REMARK    4  A    between atoms: N_7  and  C_18
REMARK    5  A    between atoms: N_8  and  C_22
REMARK    6  A    between atoms: C_12  and  C_18
REMARK    7  A    between atoms: C_19  and  C_20
REMARK    8  A    between atoms: C_22  and  C_23
REMARK    9  A    between atoms: C_22  and  C_24
REMARK                            x       y       z     vdW  Elec       q    Type
REMARK                         _______ _______ _______ _____ _____    ______ ____
ROOT
ATOM      1  O   UNL     1      -5.946 -10.217  17.228  0.00  0.00    -0.371 OA
ATOM      9  C   UNL     1      -3.964 -11.345  16.567  0.00  0.00    +0.111 C 
ATOM     11  C   UNL     1      -4.372 -11.829  17.946  0.00  0.00    +0.164 C 
ATOM     12  C   UNL     1      -5.845 -11.445  17.968  0.00  0.00    +0.165 C 
ATOM     15  C   UNL     1      -4.741 -10.043  16.463  0.00  0.00    +0.181 C 
ENDROOT
BRANCH  11   2
ATOM      2  O   UNL     1      -4.188 -13.221  18.113  0.00  0.00    -0.388 OA
ATOM     26  H   UNL     1      -4.942 -13.571  18.618  0.00  0.00    +0.210 HD
ENDBRANCH  11   2
BRANCH   9   5
ATOM      5  N   UNL     1      -2.529 -11.162  16.413  0.00  0.00    -0.306 NA
ATOM     25  H   UNL     1      -2.029 -11.693  17.126  0.00  0.00    +0.123 HD
BRANCH   5  10
ATOM      3  O   UNL     1      -3.319 -10.860  10.323  0.00  0.00    -0.276 OA
ATOM      6  N   UNL     1      -2.628 -11.939  12.261  0.00  0.00    -0.302 N 
ATOM     10  C   UNL     1      -2.093 -11.578  15.083  0.00  0.00    +0.057 C 
ATOM     13  C   UNL     1      -2.978 -12.723  14.573  0.00  0.00    +0.037 C 
ATOM     14  C   UNL     1      -2.145 -10.389  14.115  0.00  0.00    +0.037 C 
ATOM     16  C   UNL     1      -2.602 -13.112  13.144  0.00  0.00    +0.109 C 
ATOM     17  C   UNL     1      -1.784 -10.825  12.697  0.00  0.00    +0.109 C 
ATOM     19  C   UNL     1      -3.342 -11.844  11.067  0.00  0.00    +0.212 C 
ATOM     20  C   UNL     1      -4.189 -13.032  10.689  0.00  0.00    +0.109 C 
ENDBRANCH   5  10
ENDBRANCH   9   5
BRANCH  12  18
ATOM     18  C   UNL     1      -6.395 -11.247  19.369  0.00  0.00    +0.140 C 
BRANCH  18   7
ATOM      4  O   UNL     1      -9.122 -12.100  18.971  0.00  0.00    -0.253 OA
ATOM      7  N   UNL     1      -7.565 -10.420  19.359  0.00  0.00    -0.297 N 
ATOM      8  N   UNL     1      -9.808  -9.895  19.196  0.00  0.00    -0.297 N 
ATOM     21  C   UNL     1      -8.858 -10.914  19.158  0.00  0.00    +0.300 C 
ATOM     27  H   UNL     1      -7.448  -9.420  19.490  0.00  0.00    +0.150 HD
ATOM     28  H   UNL     1      -9.500  -8.957  19.432  0.00  0.00    +0.150 HD
BRANCH   8  22
ATOM     22  C   UNL     1     -11.220 -10.136  19.017  0.00  0.00    +0.068 C 
ATOM     23  C   UNL     1     -11.788  -9.196  17.961  0.00  0.00    +0.027 C 
ATOM     24  C   UNL     1     -11.960  -9.991  20.340  0.00  0.00    +0.027 C 
ENDBRANCH   8  22
ENDBRANCH  18   7
ENDBRANCH  12  18
TORSDOF 6
ENDMDL
MODEL 6
REMARK VINA RESULT:      -6.0     17.491     19.133
REMARK  Name = 75536724
REMARK  9 active torsions:
REMARK  status: ('A' for Active; 'I' for Inactive)
REMARK    1  A    between atoms: O_2  and  C_11
REMARK    2  A    between atoms: N_5  and  C_9
REMARK    3  A    between atoms: N_5  and  C_10
REMARK    4  A    between atoms: N_7  and  C_18
REMARK    5  A    between atoms: N_8  and  C_22
REMARK    6  A    between atoms: C_12  and  C_18
REMARK    7  A    between atoms: C_19  and  C_20
REMARK    8  A    between atoms: C_22  and  C_23
REMARK    9  A    between atoms: C_22  and  C_24
REMARK                            x       y       z     vdW  Elec       q    Type
REMARK                         _______ _______ _______ _____ _____    ______ ____
ROOT
ATOM      1  O   UNL     1      -7.482 -12.190  19.645  0.00  0.00    -0.371 OA
ATOM      9  C   UNL     1      -8.855 -10.686  18.424  0.00  0.00    +0.111 C 
ATOM     11  C   UNL     1      -7.406 -10.261  18.279  0.00  0.00    +0.164 C 
ATOM     12  C   UNL     1      -6.684 -11.555  18.632  0.00  0.00    +0.165 C 
ATOM     15  C   UNL     1      -8.785 -11.582  19.650  0.00  0.00    +0.181 C 
ENDROOT
BRANCH  11   2
ATOM      2  O   UNL     1      -7.093  -9.824  16.971  0.00  0.00    -0.388 OA
ATOM     26  H   UNL     1      -6.233  -9.371  16.997  0.00  0.00    +0.210 HD
ENDBRANCH  11   2
BRANCH   9   5
ATOM      5  N   UNL     1      -9.776  -9.573  18.588  0.00  0.00    -0.306 NA
ATOM     25  H   UNL     1      -9.267  -8.732  18.859  0.00  0.00    +0.123 HD
BRANCH   5  10
ATOM      3  O   UNL     1     -12.823  -5.597  15.022  0.00  0.00    -0.276 OA
ATOM      6  N   UNL     1     -12.385  -7.735  15.818  0.00  0.00    -0.302 N 
ATOM     10  C   UNL     1     -10.521  -9.329  17.356  0.00  0.00    +0.057 C 
ATOM     13  C   UNL     1     -12.028  -9.364  17.636  0.00  0.00    +0.037 C 
ATOM     14  C   UNL     1     -10.118  -7.976  16.755  0.00  0.00    +0.037 C 
ATOM     16  C   UNL     1     -12.828  -9.018  16.380  0.00  0.00    +0.109 C 
ATOM     17  C   UNL     1     -10.954  -7.659  15.517  0.00  0.00    +0.109 C 
ATOM     19  C   UNL     1     -13.214  -6.652  15.529  0.00  0.00    +0.212 C 
ATOM     20  C   UNL     1     -14.674  -6.808  15.871  0.00  0.00    +0.109 C 
ENDBRANCH   5  10
ENDBRANCH   9   5
BRANCH  12  18
ATOM     18  C   UNL     1      -5.275 -11.334  19.152  0.00  0.00    +0.140 C 
BRANCH  18   7
ATOM      4  O   UNL     1      -4.219  -9.910  16.876  0.00  0.00    -0.253 OA
ATOM      7  N   UNL     1      -4.294 -11.805  18.218  0.00  0.00    -0.297 N 
ATOM      8  N   UNL     1      -2.885 -11.745  16.390  0.00  0.00    -0.297 N 
ATOM     21  C   UNL     1      -3.834 -11.048  17.136  0.00  0.00    +0.300 C 
ATOM     27  H   UNL     1      -3.925 -12.743  18.340  0.00  0.00    +0.150 HD
ATOM     28  H   UNL     1      -2.577 -12.652  16.728  0.00  0.00    +0.150 HD
BRANCH   8  22
ATOM     22  C   UNL     1      -2.250 -11.190  15.219  0.00  0.00    +0.068 C 
ATOM     23  C   UNL     1      -1.830 -12.303  14.267  0.00  0.00    +0.027 C 
ATOM     24  C   UNL     1      -1.061 -10.324  15.614  0.00  0.00    +0.027 C 
ENDBRANCH   8  22
ENDBRANCH  18   7
ENDBRANCH  12  18
TORSDOF 6
ENDMDL
MODEL 7
REMARK VINA RESULT:      -6.0     14.612     18.482
REMARK  Name = 75536724
REMARK  9 active torsions:
REMARK  status: ('A' for Active; 'I' for Inactive)
REMARK    1  A    between atoms: O_2  and  C_11
REMARK    2  A    between atoms: N_5  and  C_9
REMARK    3  A    between atoms: N_5  and  C_10
REMARK    4  A    between atoms: N_7  and  C_18
REMARK    5  A    between atoms: N_8  and  C_22
REMARK    6  A    between atoms: C_12  and  C_18
REMARK    7  A    between atoms: C_19  and  C_20
REMARK    8  A    between atoms: C_22  and  C_23
REMARK    9  A    between atoms: C_22  and  C_24
REMARK                            x       y       z     vdW  Elec       q    Type
REMARK                         _______ _______ _______ _____ _____    ______ ____
ROOT
ATOM      1  O   UNL     1      -2.650  11.364  36.242  0.00  0.00    -0.371 OA
ATOM      9  C   UNL     1      -4.733  10.223  36.273  0.00  0.00    +0.111 C 
ATOM     11  C   UNL     1      -3.612   9.210  36.409  0.00  0.00    +0.164 C 
ATOM     12  C   UNL     1      -2.473  10.095  36.895  0.00  0.00    +0.165 C 
ATOM     15  C   UNL     1      -3.987  11.424  35.714  0.00  0.00    +0.181 C 
ENDROOT
BRANCH  11   2
ATOM      2  O   UNL     1      -3.913   8.184  37.335  0.00  0.00    -0.388 OA
ATOM     26  H   UNL     1      -4.384   7.475  36.864  0.00  0.00    +0.210 HD
ENDBRANCH  11   2
BRANCH   9   5
ATOM      5  N   UNL     1      -5.818   9.781  35.412  0.00  0.00    -0.306 NA
ATOM     25  H   UNL     1      -5.708   8.792  35.188  0.00  0.00    +0.123 HD
BRANCH   5  10
ATOM      3  O   UNL     1     -11.212   7.472  37.252  0.00  0.00    -0.276 OA
ATOM      6  N   UNL     1      -9.855   9.212  36.524  0.00  0.00    -0.302 N 
ATOM     10  C   UNL     1      -7.112  10.007  36.051  0.00  0.00    +0.057 C 
ATOM     13  C   UNL     1      -8.199  10.199  34.985  0.00  0.00    +0.037 C 
ATOM     14  C   UNL     1      -7.461   8.826  36.966  0.00  0.00    +0.037 C 
ATOM     16  C   UNL     1      -9.578  10.342  35.629  0.00  0.00    +0.109 C 
ATOM     17  C   UNL     1      -8.854   8.998  37.570  0.00  0.00    +0.109 C 
ATOM     19  C   UNL     1     -10.983   8.394  36.465  0.00  0.00    +0.212 C 
ATOM     20  C   UNL     1     -11.966   8.677  35.357  0.00  0.00    +0.109 C 
ENDBRANCH   5  10
ENDBRANCH   9   5
BRANCH  12  18
ATOM     18  C   UNL     1      -1.098   9.539  36.571  0.00  0.00    +0.140 C 
BRANCH  18   7
ATOM      4  O   UNL     1      -0.458   8.612  39.227  0.00  0.00    -0.253 OA
ATOM      7  N   UNL     1      -0.971   8.178  37.003  0.00  0.00    -0.297 N 
ATOM      8  N   UNL     1      -0.596   6.427  38.460  0.00  0.00    -0.297 N 
ATOM     21  C   UNL     1      -0.656   7.811  38.315  0.00  0.00    +0.300 C 
ATOM     27  H   UNL     1      -1.102   7.441  36.316  0.00  0.00    +0.150 HD
ATOM     28  H   UNL     1      -0.849   5.847  37.665  0.00  0.00    +0.150 HD
BRANCH   8  22
ATOM     22  C   UNL     1      -0.289   5.784  39.716  0.00  0.00    +0.068 C 
ATOM     23  C   UNL     1       0.863   4.803  39.542  0.00  0.00    +0.027 C 
ATOM     24  C   UNL     1      -1.524   5.092  40.279  0.00  0.00    +0.027 C 
ENDBRANCH   8  22
ENDBRANCH  18   7
ENDBRANCH  12  18
TORSDOF 6
ENDMDL
MODEL 8
REMARK VINA RESULT:      -5.9     19.421     20.476
REMARK  Name = 75536724
REMARK  9 active torsions:
REMARK  status: ('A' for Active; 'I' for Inactive)
REMARK    1  A    between atoms: O_2  and  C_11
REMARK    2  A    between atoms: N_5  and  C_9
REMARK    3  A    between atoms: N_5  and  C_10
REMARK    4  A    between atoms: N_7  and  C_18
REMARK    5  A    between atoms: N_8  and  C_22
REMARK    6  A    between atoms: C_12  and  C_18
REMARK    7  A    between atoms: C_19  and  C_20
REMARK    8  A    between atoms: C_22  and  C_23
REMARK    9  A    between atoms: C_22  and  C_24
REMARK                            x       y       z     vdW  Elec       q    Type
REMARK                         _______ _______ _______ _____ _____    ______ ____
ROOT
ATOM      1  O   UNL     1      -6.969 -12.476  18.298  0.00  0.00    -0.371 OA
ATOM      9  C   UNL     1      -4.954 -13.303  17.353  0.00  0.00    +0.111 C 
ATOM     11  C   UNL     1      -4.657 -12.018  18.103  0.00  0.00    +0.164 C 
ATOM     12  C   UNL     1      -5.858 -11.939  19.036  0.00  0.00    +0.165 C 
ATOM     15  C   UNL     1      -6.459 -13.202  17.167  0.00  0.00    +0.181 C 
ENDROOT
BRANCH  11   2
ATOM      2  O   UNL     1      -3.438 -12.072  18.818  0.00  0.00    -0.388 OA
ATOM     26  H   UNL     1      -2.726 -12.288  18.193  0.00  0.00    +0.210 HD
ENDBRANCH  11   2
BRANCH   9   5
ATOM      5  N   UNL     1      -4.235 -13.423  16.094  0.00  0.00    -0.306 NA
ATOM     25  H   UNL     1      -4.689 -14.110  15.494  0.00  0.00    +0.123 HD
BRANCH   5  10
ATOM      3  O   UNL     1      -3.794 -10.332  10.797  0.00  0.00    -0.276 OA
ATOM      6  N   UNL     1      -3.471 -10.554  13.087  0.00  0.00    -0.302 N 
ATOM     10  C   UNL     1      -4.166 -12.134  15.411  0.00  0.00    +0.057 C 
ATOM     13  C   UNL     1      -2.707 -11.791  15.080  0.00  0.00    +0.037 C 
ATOM     14  C   UNL     1      -5.012 -12.168  14.133  0.00  0.00    +0.037 C 
ATOM     16  C   UNL     1      -2.617 -10.492  14.280  0.00  0.00    +0.109 C 
ATOM     17  C   UNL     1      -4.877 -10.860  13.354  0.00  0.00    +0.109 C 
ATOM     19  C   UNL     1      -3.050 -10.309  11.781  0.00  0.00    +0.212 C 
ATOM     20  C   UNL     1      -1.586 -10.002  11.589  0.00  0.00    +0.109 C 
ENDBRANCH   5  10
ENDBRANCH   9   5
BRANCH  12  18
ATOM     18  C   UNL     1      -6.177 -10.525  19.487  0.00  0.00    +0.140 C 
BRANCH  18   7
ATOM      4  O   UNL     1      -6.787  -9.239  16.978  0.00  0.00    -0.253 OA
ATOM      7  N   UNL     1      -7.467 -10.107  19.022  0.00  0.00    -0.297 N 
ATOM      8  N   UNL     1      -9.025  -9.188  17.587  0.00  0.00    -0.297 N 
ATOM     21  C   UNL     1      -7.679  -9.487  17.787  0.00  0.00    +0.300 C 
ATOM     27  H   UNL     1      -8.268 -10.256  19.628  0.00  0.00    +0.150 HD
ATOM     28  H   UNL     1      -9.697  -9.501  18.281  0.00  0.00    +0.150 HD
BRANCH   8  22
ATOM     22  C   UNL     1      -9.514  -8.544  16.391  0.00  0.00    +0.068 C 
ATOM     23  C   UNL     1     -10.433  -7.385  16.751  0.00  0.00    +0.027 C 
ATOM     24  C   UNL     1     -10.221  -9.551  15.493  0.00  0.00    +0.027 C 
ENDBRANCH   8  22
ENDBRANCH  18   7
ENDBRANCH  12  18
TORSDOF 6
ENDMDL
MODEL 9
REMARK VINA RESULT:      -5.9     18.626     19.606
REMARK  Name = 75536724
REMARK  9 active torsions:
REMARK  status: ('A' for Active; 'I' for Inactive)
REMARK    1  A    between atoms: O_2  and  C_11
REMARK    2  A    between atoms: N_5  and  C_9
REMARK    3  A    between atoms: N_5  and  C_10
REMARK    4  A    between atoms: N_7  and  C_18
REMARK    5  A    between atoms: N_8  and  C_22
REMARK    6  A    between atoms: C_12  and  C_18
REMARK    7  A    between atoms: C_19  and  C_20
REMARK    8  A    between atoms: C_22  and  C_23
REMARK    9  A    between atoms: C_22  and  C_24
REMARK                            x       y       z     vdW  Elec       q    Type
REMARK                         _______ _______ _______ _____ _____    ______ ____
ROOT
ATOM      1  O   UNL     1      -6.779 -13.054  18.609  0.00  0.00    -0.371 OA
ATOM      9  C   UNL     1      -5.299 -11.212  18.375  0.00  0.00    +0.111 C 
ATOM     11  C   UNL     1      -6.583 -10.734  19.026  0.00  0.00    +0.164 C 
ATOM     12  C   UNL     1      -7.144 -12.043  19.565  0.00  0.00    +0.165 C 
ATOM     15  C   UNL     1      -5.745 -12.528  17.760  0.00  0.00    +0.181 C 
ENDROOT
BRANCH  11   2
ATOM      2  O   UNL     1      -6.356  -9.794  20.058  0.00  0.00    -0.388 OA
ATOM     26  H   UNL     1      -6.761 -10.133  20.875  0.00  0.00    +0.210 HD
ENDBRANCH  11   2
BRANCH   9   5
ATOM      5  N   UNL     1      -4.761 -10.282  17.394  0.00  0.00    -0.306 NA
ATOM     25  H   UNL     1      -3.936  -9.816  17.768  0.00  0.00    +0.123 HD
BRANCH   5  10
ATOM      3  O   UNL     1      -1.635 -10.294  12.099  0.00  0.00    -0.276 OA
ATOM      6  N   UNL     1      -3.429 -10.924  13.435  0.00  0.00    -0.302 N 
ATOM     10  C   UNL     1      -4.423 -10.976  16.154  0.00  0.00    +0.057 C 
ATOM     13  C   UNL     1      -5.273 -10.431  14.998  0.00  0.00    +0.037 C 
ATOM     14  C   UNL     1      -2.930 -10.808  15.846  0.00  0.00    +0.037 C 
ATOM     16  C   UNL     1      -4.870 -11.075  13.671  0.00  0.00    +0.109 C 
ATOM     17  C   UNL     1      -2.574 -11.445  14.504  0.00  0.00    +0.109 C 
ATOM     19  C   UNL     1      -2.852 -10.377  12.290  0.00  0.00    +0.212 C 
ATOM     20  C   UNL     1      -3.799  -9.860  11.236  0.00  0.00    +0.109 C 
ENDBRANCH   5  10
ENDBRANCH   9   5
BRANCH  12  18
ATOM     18  C   UNL     1      -8.652 -12.024  19.742  0.00  0.00    +0.140 C 
BRANCH  18   7
ATOM      4  O   UNL     1     -10.131 -11.324  17.366  0.00  0.00    -0.253 OA
ATOM      7  N   UNL     1      -9.200 -10.741  19.412  0.00  0.00    -0.297 N 
ATOM      8  N   UNL     1     -10.327  -9.156  18.168  0.00  0.00    -0.297 N 
ATOM     21  C   UNL     1      -9.908 -10.483  18.234  0.00  0.00    +0.300 C 
ATOM     27  H   UNL     1      -9.054  -9.975  20.063  0.00  0.00    +0.150 HD
ATOM     28  H   UNL     1     -10.159  -8.556  18.970  0.00  0.00    +0.150 HD
BRANCH   8  22
ATOM     22  C   UNL     1     -11.078  -8.628  17.054  0.00  0.00    +0.068 C 
ATOM     23  C   UNL     1     -10.763  -7.151  16.855  0.00  0.00    +0.027 C 
ATOM     24  C   UNL     1     -12.571  -8.851  17.262  0.00  0.00    +0.027 C 
ENDBRANCH   8  22
ENDBRANCH  18   7
ENDBRANCH  12  18
TORSDOF 6
ENDMDL
MODEL 10
REMARK VINA RESULT:      -5.7     29.181     34.924
REMARK  Name = 75536724
REMARK  9 active torsions:
REMARK  status: ('A' for Active; 'I' for Inactive)
REMARK    1  A    between atoms: O_2  and  C_11
REMARK    2  A    between atoms: N_5  and  C_9
REMARK    3  A    between atoms: N_5  and  C_10
REMARK    4  A    between atoms: N_7  and  C_18
REMARK    5  A    between atoms: N_8  and  C_22
REMARK    6  A    between atoms: C_12  and  C_18
REMARK    7  A    between atoms: C_19  and  C_20
REMARK    8  A    between atoms: C_22  and  C_23
REMARK    9  A    between atoms: C_22  and  C_24
REMARK                            x       y       z     vdW  Elec       q    Type
REMARK                         _______ _______ _______ _____ _____    ______ ____
ROOT
ATOM      1  O   UNL     1      14.182   8.920   1.970  0.00  0.00    -0.371 OA
ATOM      9  C   UNL     1      13.159   7.444   3.523  0.00  0.00    +0.111 C 
ATOM     11  C   UNL     1      14.647   7.157   3.477  0.00  0.00    +0.164 C 
ATOM     12  C   UNL     1      15.180   8.461   2.898  0.00  0.00    +0.165 C 
ATOM     15  C   UNL     1      12.959   8.209   2.225  0.00  0.00    +0.181 C 
ENDROOT
BRANCH  11   2
ATOM      2  O   UNL     1      15.193   6.887   4.753  0.00  0.00    -0.388 OA
ATOM     26  H   UNL     1      14.863   7.557   5.376  0.00  0.00    +0.210 HD
ENDBRANCH  11   2
BRANCH   9   5
ATOM      5  N   UNL     1      12.336   6.248   3.608  0.00  0.00    -0.306 NA
ATOM     25  H   UNL     1      12.916   5.437   3.823  0.00  0.00    +0.123 HD
BRANCH   5  10
ATOM      3  O   UNL     1      10.620   5.564   9.472  0.00  0.00    -0.276 OA
ATOM      6  N   UNL     1      10.173   5.698   7.196  0.00  0.00    -0.302 N 
ATOM     10  C   UNL     1      11.298   6.403   4.623  0.00  0.00    +0.057 C 
ATOM     13  C   UNL     1      10.576   5.068   4.846  0.00  0.00    +0.037 C 
ATOM     14  C   UNL     1      11.915   6.904   5.935  0.00  0.00    +0.037 C 
ATOM     16  C   UNL     1       9.549   5.181   5.972  0.00  0.00    +0.109 C 
ATOM     17  C   UNL     1      10.861   6.981   7.038  0.00  0.00    +0.109 C 
ATOM     19  C   UNL     1      10.117   5.090   8.449  0.00  0.00    +0.212 C 
ATOM     20  C   UNL     1       9.393   3.770   8.529  0.00  0.00    +0.109 C 
ENDBRANCH   5  10
ENDBRANCH   9   5
BRANCH  12  18
ATOM     18  C   UNL     1      16.511   8.304   2.185  0.00  0.00    +0.140 C 
BRANCH  18   7
ATOM      4  O   UNL     1      19.135   9.257   2.914  0.00  0.00    -0.253 OA
ATOM      7  N   UNL     1      17.472   7.638   3.015  0.00  0.00    -0.297 N 
ATOM      8  N   UNL     1      19.460   7.317   4.145  0.00  0.00    -0.297 N 
ATOM     21  C   UNL     1      18.728   8.171   3.321  0.00  0.00    +0.300 C 
ATOM     27  H   UNL     1      17.233   6.724   3.388  0.00  0.00    +0.150 HD
ATOM     28  H   UNL     1      19.008   6.475   4.490  0.00  0.00    +0.150 HD
BRANCH   8  22
ATOM     22  C   UNL     1      20.791   7.629   4.609  0.00  0.00    +0.068 C 
ATOM     23  C   UNL     1      21.748   6.492   4.275  0.00  0.00    +0.027 C 
ATOM     24  C   UNL     1      20.781   7.922   6.104  0.00  0.00    +0.027 C 
ENDBRANCH   8  22
ENDBRANCH  18   7
ENDBRANCH  12  18
TORSDOF 6
ENDMDL
