REMARK  Name = 45361553
REMARK  11 active torsions:
REMARK  status: ('A' for Active; 'I' for Inactive)
REMARK    1  A    between atoms: O_1  and  C_12
REMARK    2  A    between atoms: N_5  and  C_16
REMARK    3  A    between atoms: N_6  and  C_26
REMARK    4  A    between atoms: N_7  and  C_27
REMARK    5  A    between atoms: C_9  and  C_19
REMARK    6  A    between atoms: C_11  and  C_21
REMARK    7  A    between atoms: C_15  and  C_20
REMARK    8  A    between atoms: C_20  and  C_22
REMARK    9  A    between atoms: C_20  and  C_23
REMARK   10  A    between atoms: C_24  and  C_25
REMARK   11  A    between atoms: C_26  and  C_27
REMARK                            x       y       z     vdW  Elec       q    Type
REMARK                         _______ _______ _______ _____ _____    ______ ____
ROOT
ATOM      9  C   UNL     1       0.825  -0.245  -1.655  0.00  0.00    -0.027 C 
ATOM     10  C   UNL     1       0.994  -0.444  -0.112  0.00  0.00    +0.028 C 
ATOM     11  C   UNL     1       2.505  -0.657   0.262  0.00  0.00    +0.012 C 
ATOM     12  C   UNL     1       0.013  -1.525   0.427  0.00  0.00    +0.122 C 
ATOM     13  C   UNL     1      -0.655   0.074  -1.976  0.00  0.00    +0.007 C 
ATOM     14  C   UNL     1       1.675   0.967  -2.103  0.00  0.00    +0.009 C 
ATOM     15  C   UNL     1      -1.453  -1.257   0.015  0.00  0.00    +0.029 C 
ATOM     16  C   UNL     1       3.361   0.531  -0.259  0.00  0.00    +0.076 C 
ATOM     17  C   UNL     1      -1.614  -1.002  -1.484  0.00  0.00    +0.007 C 
ATOM     18  C   UNL     1       3.147   0.830  -1.743  0.00  0.00    +0.023 C 
ATOM     19  C   UNL     1       1.252  -1.495  -2.466  0.00  0.00    +0.011 C 
ATOM     21  C   UNL     1       2.747  -0.832   1.771  0.00  0.00    +0.010 C 
ENDROOT
BRANCH  16   5
ATOM      3  O   UNL     1       5.343   2.540   0.271  0.00  0.00    -0.270 OA
ATOM      5  N   UNL     1       4.774   0.313  -0.034  0.00  0.00    -0.308 N 
ATOM     24  C   UNL     1       5.653   1.353   0.215  0.00  0.00    +0.244 C 
ATOM     36  H   UNL     1       5.121  -0.629  -0.177  0.00  0.00    +0.149 HD
BRANCH  24  25
ATOM      8  N   UNL     1       9.752   0.236   0.739  0.00  0.00    -0.263 NA
ATOM     25  C   UNL     1       7.076   0.966   0.398  0.00  0.00    +0.040 A 
ATOM     28  C   UNL     1       8.089   1.869   0.096  0.00  0.00    +0.033 A 
ATOM     29  C   UNL     1       7.399  -0.301   0.871  0.00  0.00    +0.033 A 
ATOM     30  C   UNL     1       9.400   1.458   0.282  0.00  0.00    +0.111 A 
ATOM     31  C   UNL     1       8.740  -0.614   1.022  0.00  0.00    +0.111 A 
ENDBRANCH  24  25
ENDBRANCH  16   5
BRANCH  12   1
ATOM      1  O   UNL     1       0.042  -1.526   1.855  0.00  0.00    -0.391 OA
ATOM     37  H   UNL     1      -0.227  -0.643   2.163  0.00  0.00    +0.210 HD
ENDBRANCH  12   1
BRANCH  15  20
ATOM     20  C   UNL     1      -2.383  -2.399   0.443  0.00  0.00    +0.077 C 
ATOM     22  C   UNL     1      -1.934  -3.708  -0.195  0.00  0.00    +0.017 C 
BRANCH  20  23
ATOM      2  O   UNL     1      -4.327  -2.393  -1.001  0.00  0.00    -0.276 OA
ATOM      6  N   UNL     1      -4.479  -1.355   1.068  0.00  0.00    -0.314 N 
ATOM     23  C   UNL     1      -3.824  -2.063   0.071  0.00  0.00    +0.216 C 
ATOM     38  H   UNL     1      -3.979  -1.107   1.916  0.00  0.00    +0.149 HD
BRANCH   6  26
ATOM     26  C   UNL     1      -5.852  -0.923   0.946  0.00  0.00    +0.119 C 
BRANCH  26  27
ATOM     27  C   UNL     1      -5.940   0.461   0.320  0.00  0.00    +0.103 C 
BRANCH  27   7
ATOM      4  O   UNL     1      -9.411   2.818   0.439  0.00  0.00    -0.377 OA
ATOM      7  N   UNL     1      -7.335   0.883   0.214  0.00  0.00    -0.297 NA
ATOM     32  C   UNL     1      -7.479   1.973  -0.761  0.00  0.00    +0.112 C 
ATOM     33  C   UNL     1      -7.852   1.307   1.523  0.00  0.00    +0.112 C 
ATOM     34  C   UNL     1      -8.940   2.405  -0.844  0.00  0.00    +0.175 C 
ATOM     35  C   UNL     1      -9.305   1.754   1.385  0.00  0.00    +0.175 C 
ENDBRANCH  27   7
ENDBRANCH  26  27
ENDBRANCH   6  26
ENDBRANCH  20  23
ENDBRANCH  15  20
TORSDOF 8
