REMARK  Name = 11882524
REMARK  11 active torsions:
REMARK  status: ('A' for Active; 'I' for Inactive)
REMARK    1  A    between atoms: S_1  and  N_10
REMARK    2  A    between atoms: S_1  and  C_22
REMARK    3  A    between atoms: O_3  and  C_13
REMARK    4  A    between atoms: O_4  and  C_15
REMARK    5  A    between atoms: O_9  and  C_32
REMARK    6  A    between atoms: N_10  and  C_14
REMARK    7  A    between atoms: N_11  and  C_20
REMARK    8  A    between atoms: C_17  and  C_19
REMARK    9  A    between atoms: C_20  and  C_21
REMARK   10  A    between atoms: C_20  and  C_24
REMARK   11  A    between atoms: C_21  and  C_23
REMARK                            x       y       z     vdW  Elec       q    Type
REMARK                         _______ _______ _______ _____ _____    ______ ____
ROOT
ATOM     13  C   UNL     1      -2.488   1.981   0.822  0.00  0.00    +0.166 C 
ATOM     14  C   UNL     1      -1.795   0.667   0.416  0.00  0.00    +0.131 C 
ATOM     15  C   UNL     1      -1.740   3.201   0.271  0.00  0.00    +0.149 C 
ATOM     16  C   UNL     1      -0.265   3.221   0.705  0.00  0.00    +0.074 C 
ATOM     17  C   UNL     1       0.373   1.860   0.715  0.00  0.00    +0.015 C 
ATOM     18  C   UNL     1      -0.300   0.708   0.579  0.00  0.00    +0.004 C 
ENDROOT
BRANCH  17  19
ATOM      5  O   UNL     1       2.388   2.222   1.868  0.00  0.00    -0.271 OA
ATOM     11  N   UNL     1       2.450   1.178  -0.216  0.00  0.00    -0.300 N 
ATOM     19  C   UNL     1       1.829   1.780   0.864  0.00  0.00    +0.241 C 
ATOM     36  H   UNL     1       1.895   0.930  -1.030  0.00  0.00    +0.150 HD
BRANCH  11  20
ATOM     20  C   UNL     1       3.881   0.989  -0.299  0.00  0.00    +0.163 C 
BRANCH  20  24
ATOM      8  O   UNL     1       3.902   2.940  -1.748  0.00  0.00    -0.274 OA
ATOM     12  N   UNL     1       5.681   2.601  -0.333  0.00  0.00    -0.328 N 
ATOM     24  C   UNL     1       4.467   2.261  -0.893  0.00  0.00    +0.231 C 
ATOM     37  H   UNL     1       6.174   3.437  -0.629  0.00  0.00    +0.145 HD
ATOM     38  H   UNL     1       6.134   2.033   0.375  0.00  0.00    +0.145 HD
ENDBRANCH  20  24
BRANCH  20  21
ATOM     21  C   UNL     1       4.255  -0.224  -1.158  0.00  0.00    +0.067 C 
BRANCH  21  23
ATOM     23  C   UNL     1       3.675  -1.514  -0.631  0.00  0.00    -0.045 A 
ATOM     26  C   UNL     1       4.396  -2.281   0.284  0.00  0.00    +0.007 A 
ATOM     27  C   UNL     1       2.418  -1.940  -1.061  0.00  0.00    +0.007 A 
ATOM     30  C   UNL     1       3.859  -3.473   0.770  0.00  0.00    +0.045 A 
ATOM     31  C   UNL     1       1.882  -3.132  -0.575  0.00  0.00    +0.045 A 
ATOM     32  C   UNL     1       2.602  -3.898   0.341  0.00  0.00    +0.117 A 
BRANCH  32   9
ATOM      9  O   UNL     1       2.079  -5.061   0.816  0.00  0.00    -0.507 OA
ATOM     39  H   UNL     1       1.204  -5.200   0.414  0.00  0.00    +0.292 HD
ENDBRANCH  32   9
ENDBRANCH  21  23
ENDBRANCH  20  21
ENDBRANCH  11  20
ENDBRANCH  17  19
BRANCH  13   3
ATOM      3  O   UNL     1      -2.539   2.081   2.247  0.00  0.00    -0.387 OA
ATOM     34  H   UNL     1      -3.008   2.904   2.466  0.00  0.00    +0.210 HD
ENDBRANCH  13   3
BRANCH  15   4
ATOM      4  O   UNL     1      -1.831   3.232  -1.152  0.00  0.00    -0.389 OA
ATOM     35  H   UNL     1      -1.385   4.040  -1.458  0.00  0.00    +0.210 HD
ENDBRANCH  15   4
BRANCH  14  10
ATOM     10  N   UNL     1      -2.344  -0.458   1.213  0.00  0.00    -0.180 NA
ATOM     33  H   UNL     1      -2.700  -0.205   2.143  0.00  0.00    +0.149 HD
BRANCH  10   1
ATOM      1  S   UNL     1      -3.121  -1.726   0.369  0.00  0.00    +0.065 S 
ATOM      6  O   UNL     1      -3.710  -2.649   1.319  0.00  0.00    -0.153 OA
ATOM      7  O   UNL     1      -2.243  -2.189  -0.687  0.00  0.00    -0.153 OA
BRANCH   1  22
ATOM      2  S   UNL     1      -5.794  -0.476   0.475  0.00  0.00    -0.077 S 
ATOM     22  C   UNL     1      -4.503  -1.005  -0.517  0.00  0.00    +0.142 A 
ATOM     25  C   UNL     1      -4.752  -0.782  -1.854  0.00  0.00    +0.036 A 
ATOM     28  C   UNL     1      -6.020  -0.168  -2.066  0.00  0.00    +0.010 A 
ATOM     29  C   UNL     1      -6.692   0.054  -0.884  0.00  0.00    +0.047 A 
ENDBRANCH   1  22
ENDBRANCH  10   1
ENDBRANCH  14  10
TORSDOF 11
