MODEL 1
REMARK VINA RESULT:      -7.7      0.000      0.000
REMARK  Name = 45783585
REMARK  6 active torsions:
REMARK  status: ('A' for Active; 'I' for Inactive)
REMARK    1  A    between atoms: O_2  and  C_19
REMARK    2  A    between atoms: O_2  and  C_27
REMARK    3  A    between atoms: N_3  and  C_8
REMARK    4  A    between atoms: N_4  and  C_18
REMARK    5  A    between atoms: C_9  and  C_17
REMARK    6  A    between atoms: C_25  and  C_26
REMARK                            x       y       z     vdW  Elec       q    Type
REMARK                         _______ _______ _______ _____ _____    ______ ____
ROOT
ATOM      1  O   UNL     1      14.813   6.691  19.142  0.00  0.00    -0.336 OA
ATOM      5  N   UNL     1      15.993   7.561  20.837  0.00  0.00    -0.190 NA
ATOM      6  N   UNL     1      16.065   6.064  19.107  0.00  0.00    -0.056 NA
ATOM     17  C   UNL     1      14.855   7.556  20.189  0.00  0.00    +0.245 A 
ATOM     25  C   UNL     1      16.703   6.630  20.136  0.00  0.00    +0.204 A 
ENDROOT
BRANCH  25  26
ATOM      7  N   UNL     1      19.942   6.601  21.964  0.00  0.00    -0.221 NA
ATOM     26  C   UNL     1      18.051   6.288  20.490  0.00  0.00    +0.041 A 
ATOM     27  C   UNL     1      20.611   5.690  21.220  0.00  0.00    +0.215 A 
ATOM     28  C   UNL     1      18.772   5.358  19.750  0.00  0.00    +0.018 A 
ATOM     29  C   UNL     1      18.676   6.876  21.578  0.00  0.00    +0.126 A 
ATOM     30  C   UNL     1      20.076   5.047  20.115  0.00  0.00    +0.068 A 
BRANCH  27   2
ATOM      2  O   UNL     1      21.896   5.402  21.600  0.00  0.00    -0.473 OA
BRANCH   2  19
ATOM     19  C   UNL     1      22.579   4.407  20.846  0.00  0.00    +0.175 C 
ATOM     20  C   UNL     1      22.724   3.136  21.683  0.00  0.00    +0.044 C 
ATOM     21  C   UNL     1      23.938   4.945  20.400  0.00  0.00    +0.044 C 
ATOM     22  C   UNL     1      23.536   2.072  20.952  0.00  0.00    +0.004 C 
ATOM     23  C   UNL     1      24.750   3.881  19.669  0.00  0.00    +0.004 C 
ATOM     24  C   UNL     1      24.893   2.610  20.504  0.00  0.00    +0.000 C 
ENDBRANCH   2  19
ENDBRANCH  27   2
ENDBRANCH  25  26
BRANCH  17   9
ATOM      3  N   UNL     1      12.691   8.386  19.282  0.00  0.00    -0.288 NA
ATOM      9  C   UNL     1      13.601   8.368  20.444  0.00  0.00    +0.146 C 
ATOM     10  C   UNL     1      11.338   8.536  19.820  0.00  0.00    +0.085 C 
ATOM     13  C   UNL     1      12.752   7.804  21.599  0.00  0.00    +0.030 C 
ATOM     14  C   UNL     1      11.366   7.593  21.005  0.00  0.00    +0.017 C 
BRANCH   3   8
ATOM      4  N   UNL     1      14.965  10.708  16.544  0.00  0.00    -0.305 NA
ATOM      8  C   UNL     1      13.015   9.430  18.313  0.00  0.00    +0.060 C 
ATOM     11  C   UNL     1      13.446   8.803  16.984  0.00  0.00    +0.034 C 
ATOM     12  C   UNL     1      14.124  10.344  18.843  0.00  0.00    +0.034 C 
ATOM     15  C   UNL     1      13.885   9.880  15.988  0.00  0.00    +0.085 C 
ATOM     16  C   UNL     1      14.542  11.370  17.786  0.00  0.00    +0.085 C 
ATOM     18  C   UNL     1      15.408  11.697  15.562  0.00  0.00    +0.104 C 
ENDBRANCH   3   8
ENDBRANCH  17   9
TORSDOF 5
ENDMDL
MODEL 2
REMARK VINA RESULT:      -7.4     29.444     33.707
REMARK  Name = 45783585
REMARK  6 active torsions:
REMARK  status: ('A' for Active; 'I' for Inactive)
REMARK    1  A    between atoms: O_2  and  C_19
REMARK    2  A    between atoms: O_2  and  C_27
REMARK    3  A    between atoms: N_3  and  C_8
REMARK    4  A    between atoms: N_4  and  C_18
REMARK    5  A    between atoms: C_9  and  C_17
REMARK    6  A    between atoms: C_25  and  C_26
REMARK                            x       y       z     vdW  Elec       q    Type
REMARK                         _______ _______ _______ _____ _____    ______ ____
ROOT
ATOM      1  O   UNL     1     -17.039   3.843  26.168  0.00  0.00    -0.336 OA
ATOM      5  N   UNL     1     -15.694   2.961  24.608  0.00  0.00    -0.190 NA
ATOM      6  N   UNL     1     -16.692   4.896  25.312  0.00  0.00    -0.056 NA
ATOM     17  C   UNL     1     -16.411   2.741  25.681  0.00  0.00    +0.245 A 
ATOM     25  C   UNL     1     -15.897   4.298  24.420  0.00  0.00    +0.204 A 
ENDROOT
BRANCH  25  26
ATOM      7  N   UNL     1     -15.527   6.536  21.473  0.00  0.00    -0.221 NA
ATOM     26  C   UNL     1     -15.290   5.006  23.330  0.00  0.00    +0.041 A 
ATOM     27  C   UNL     1     -14.204   6.380  21.239  0.00  0.00    +0.215 A 
ATOM     28  C   UNL     1     -13.933   4.871  23.056  0.00  0.00    +0.018 A 
ATOM     29  C   UNL     1     -16.036   5.842  22.517  0.00  0.00    +0.126 A 
ATOM     30  C   UNL     1     -13.372   5.569  21.993  0.00  0.00    +0.068 A 
BRANCH  27   2
ATOM      2  O   UNL     1     -13.675   7.078  20.184  0.00  0.00    -0.473 OA
BRANCH   2  19
ATOM     19  C   UNL     1     -12.622   7.988  20.482  0.00  0.00    +0.175 C 
ATOM     20  C   UNL     1     -13.201   9.382  20.722  0.00  0.00    +0.044 C 
ATOM     21  C   UNL     1     -11.606   7.989  19.341  0.00  0.00    +0.044 C 
ATOM     22  C   UNL     1     -12.102  10.415  20.950  0.00  0.00    +0.004 C 
ATOM     23  C   UNL     1     -10.507   9.022  19.569  0.00  0.00    +0.004 C 
ATOM     24  C   UNL     1     -11.085  10.415  19.810  0.00  0.00    +0.000 C 
ENDBRANCH   2  19
ENDBRANCH  27   2
ENDBRANCH  25  26
BRANCH  17   9
ATOM      3  N   UNL     1     -16.954   1.673  27.863  0.00  0.00    -0.288 NA
ATOM      9  C   UNL     1     -16.630   1.448  26.440  0.00  0.00    +0.146 C 
ATOM     10  C   UNL     1     -17.793   0.548  28.279  0.00  0.00    +0.085 C 
ATOM     13  C   UNL     1     -17.817   0.632  25.893  0.00  0.00    +0.030 C 
ATOM     14  C   UNL     1     -18.723   0.396  27.094  0.00  0.00    +0.017 C 
BRANCH   3   8
ATOM      4  N   UNL     1     -14.601   2.281  31.350  0.00  0.00    -0.305 NA
ATOM      8  C   UNL     1     -15.771   1.818  28.707  0.00  0.00    +0.060 C 
ATOM     11  C   UNL     1     -15.763   0.742  29.797  0.00  0.00    +0.034 C 
ATOM     12  C   UNL     1     -15.720   3.209  29.346  0.00  0.00    +0.034 C 
ATOM     15  C   UNL     1     -14.582   0.938  30.752  0.00  0.00    +0.085 C 
ATOM     16  C   UNL     1     -14.541   3.324  30.317  0.00  0.00    +0.085 C 
ATOM     18  C   UNL     1     -13.497   2.434  32.297  0.00  0.00    +0.104 C 
ENDBRANCH   3   8
ENDBRANCH  17   9
TORSDOF 5
ENDMDL
MODEL 3
REMARK VINA RESULT:      -7.3     28.238     32.277
REMARK  Name = 45783585
REMARK  6 active torsions:
REMARK  status: ('A' for Active; 'I' for Inactive)
REMARK    1  A    between atoms: O_2  and  C_19
REMARK    2  A    between atoms: O_2  and  C_27
REMARK    3  A    between atoms: N_3  and  C_8
REMARK    4  A    between atoms: N_4  and  C_18
REMARK    5  A    between atoms: C_9  and  C_17
REMARK    6  A    between atoms: C_25  and  C_26
REMARK                            x       y       z     vdW  Elec       q    Type
REMARK                         _______ _______ _______ _____ _____    ______ ____
ROOT
ATOM      1  O   UNL     1      -8.920 -11.368  15.741  0.00  0.00    -0.336 OA
ATOM      5  N   UNL     1      -8.817  -9.369  16.748  0.00  0.00    -0.190 NA
ATOM      6  N   UNL     1      -9.887 -10.569  15.120  0.00  0.00    -0.056 NA
ATOM     17  C   UNL     1      -8.336 -10.586  16.686  0.00  0.00    +0.245 A 
ATOM     25  C   UNL     1      -9.766  -9.406  15.768  0.00  0.00    +0.204 A 
ENDROOT
BRANCH  25  26
ATOM      7  N   UNL     1     -12.387  -7.298  14.183  0.00  0.00    -0.221 NA
ATOM     26  C   UNL     1     -10.578  -8.264  15.463  0.00  0.00    +0.041 A 
ATOM     27  C   UNL     1     -12.159  -6.132  14.830  0.00  0.00    +0.215 A 
ATOM     28  C   UNL     1     -10.374  -7.048  16.106  0.00  0.00    +0.018 A 
ATOM     29  C   UNL     1     -11.588  -8.336  14.518  0.00  0.00    +0.126 A 
ATOM     30  C   UNL     1     -11.175  -5.957  15.789  0.00  0.00    +0.068 A 
BRANCH  27   2
ATOM      2  O   UNL     1     -12.962  -5.072  14.499  0.00  0.00    -0.473 OA
BRANCH   2  19
ATOM     19  C   UNL     1     -13.261  -4.902  13.118  0.00  0.00    +0.175 C 
ATOM     20  C   UNL     1     -12.283  -3.904  12.499  0.00  0.00    +0.044 C 
ATOM     21  C   UNL     1     -14.710  -4.441  12.961  0.00  0.00    +0.044 C 
ATOM     22  C   UNL     1     -12.624  -3.614  11.041  0.00  0.00    +0.004 C 
ATOM     23  C   UNL     1     -15.051  -4.151  11.503  0.00  0.00    +0.004 C 
ATOM     24  C   UNL     1     -14.073  -3.156  10.883  0.00  0.00    +0.000 C 
ENDBRANCH   2  19
ENDBRANCH  27   2
ENDBRANCH  25  26
BRANCH  17   9
ATOM      3  N   UNL     1      -5.938 -10.545  17.350  0.00  0.00    -0.288 NA
ATOM      9  C   UNL     1      -7.238 -11.227  17.509  0.00  0.00    +0.146 C 
ATOM     10  C   UNL     1      -5.213 -10.739  18.607  0.00  0.00    +0.085 C 
ATOM     13  C   UNL     1      -7.523 -11.178  19.023  0.00  0.00    +0.030 C 
ATOM     14  C   UNL     1      -6.301 -10.507  19.635  0.00  0.00    +0.017 C 
BRANCH   3   8
ATOM      4  N   UNL     1      -3.107 -10.558  14.180  0.00  0.00    -0.305 NA
ATOM      8  C   UNL     1      -5.176 -11.021  16.198  0.00  0.00    +0.060 C 
ATOM     11  C   UNL     1      -3.682 -11.066  16.534  0.00  0.00    +0.034 C 
ATOM     12  C   UNL     1      -5.410 -10.124  14.978  0.00  0.00    +0.034 C 
ATOM     15  C   UNL     1      -2.857 -11.467  15.307  0.00  0.00    +0.085 C 
ATOM     16  C   UNL     1      -4.528 -10.555  13.803  0.00  0.00    +0.085 C 
ATOM     18  C   UNL     1      -2.275 -10.923  13.034  0.00  0.00    +0.104 C 
ENDBRANCH   3   8
ENDBRANCH  17   9
TORSDOF 5
ENDMDL
MODEL 4
REMARK VINA RESULT:      -7.3      2.239     10.248
REMARK  Name = 45783585
REMARK  6 active torsions:
REMARK  status: ('A' for Active; 'I' for Inactive)
REMARK    1  A    between atoms: O_2  and  C_19
REMARK    2  A    between atoms: O_2  and  C_27
REMARK    3  A    between atoms: N_3  and  C_8
REMARK    4  A    between atoms: N_4  and  C_18
REMARK    5  A    between atoms: C_9  and  C_17
REMARK    6  A    between atoms: C_25  and  C_26
REMARK                            x       y       z     vdW  Elec       q    Type
REMARK                         _______ _______ _______ _____ _____    ______ ____
ROOT
ATOM      1  O   UNL     1      21.427   5.861  22.149  0.00  0.00    -0.336 OA
ATOM      5  N   UNL     1      20.392   4.834  20.448  0.00  0.00    -0.190 NA
ATOM      6  N   UNL     1      20.213   6.536  21.966  0.00  0.00    -0.056 NA
ATOM     17  C   UNL     1      21.452   4.874  21.216  0.00  0.00    +0.245 A 
ATOM     25  C   UNL     1      19.661   5.873  20.946  0.00  0.00    +0.204 A 
ENDROOT
BRANCH  25  26
ATOM      7  N   UNL     1      16.675   5.846  18.730  0.00  0.00    -0.221 NA
ATOM     26  C   UNL     1      18.381   6.223  20.401  0.00  0.00    +0.041 A 
ATOM     27  C   UNL     1      15.957   6.837  19.308  0.00  0.00    +0.215 A 
ATOM     28  C   UNL     1      17.614   7.236  20.966  0.00  0.00    +0.018 A 
ATOM     29  C   UNL     1      17.871   5.565  19.294  0.00  0.00    +0.126 A 
ATOM     30  C   UNL     1      16.379   7.554  20.416  0.00  0.00    +0.068 A 
BRANCH  27   2
ATOM      2  O   UNL     1      14.743   7.132  18.746  0.00  0.00    -0.473 OA
BRANCH   2  19
ATOM     19  C   UNL     1      13.763   7.705  19.605  0.00  0.00    +0.175 C 
ATOM     20  C   UNL     1      12.680   6.670  19.910  0.00  0.00    +0.044 C 
ATOM     21  C   UNL     1      13.177   8.957  18.952  0.00  0.00    +0.044 C 
ATOM     22  C   UNL     1      11.554   7.267  20.749  0.00  0.00    +0.004 C 
ATOM     23  C   UNL     1      12.052   9.553  19.792  0.00  0.00    +0.004 C 
ATOM     24  C   UNL     1      10.971   8.519  20.098  0.00  0.00    +0.000 C 
ENDBRANCH   2  19
ENDBRANCH  27   2
ENDBRANCH  25  26
BRANCH  17   9
ATOM      3  N   UNL     1      23.910   4.714  21.571  0.00  0.00    -0.288 NA
ATOM      9  C   UNL     1      22.679   3.986  21.205  0.00  0.00    +0.146 C 
ATOM     10  C   UNL     1      24.799   3.735  22.197  0.00  0.00    +0.085 C 
ATOM     13  C   UNL     1      22.588   2.834  22.225  0.00  0.00    +0.030 C 
ATOM     14  C   UNL     1      23.841   2.962  23.081  0.00  0.00    +0.017 C 
BRANCH   3   8
ATOM      4  N   UNL     1      26.927   6.559  19.212  0.00  0.00    -0.305 NA
ATOM      8  C   UNL     1      24.542   5.382  20.436  0.00  0.00    +0.060 C 
ATOM     11  C   UNL     1      25.686   4.525  19.887  0.00  0.00    +0.034 C 
ATOM     12  C   UNL     1      25.070   6.763  20.837  0.00  0.00    +0.034 C 
ATOM     15  C   UNL     1      26.425   5.254  18.760  0.00  0.00    +0.085 C 
ATOM     16  C   UNL     1      25.830   7.418  19.680  0.00  0.00    +0.085 C 
ATOM     18  C   UNL     1      27.673   7.219  18.142  0.00  0.00    +0.104 C 
ENDBRANCH   3   8
ENDBRANCH  17   9
TORSDOF 5
ENDMDL
MODEL 5
REMARK VINA RESULT:      -7.2      2.186     10.775
REMARK  Name = 45783585
REMARK  6 active torsions:
REMARK  status: ('A' for Active; 'I' for Inactive)
REMARK    1  A    between atoms: O_2  and  C_19
REMARK    2  A    between atoms: O_2  and  C_27
REMARK    3  A    between atoms: N_3  and  C_8
REMARK    4  A    between atoms: N_4  and  C_18
REMARK    5  A    between atoms: C_9  and  C_17
REMARK    6  A    between atoms: C_25  and  C_26
REMARK                            x       y       z     vdW  Elec       q    Type
REMARK                         _______ _______ _______ _____ _____    ______ ____
ROOT
ATOM      1  O   UNL     1      21.315   6.015  23.054  0.00  0.00    -0.336 OA
ATOM      5  N   UNL     1      21.025   6.192  20.839  0.00  0.00    -0.190 NA
ATOM      6  N   UNL     1      19.940   6.192  22.854  0.00  0.00    -0.056 NA
ATOM     17  C   UNL     1      21.879   6.027  21.818  0.00  0.00    +0.245 A 
ATOM     25  C   UNL     1      19.848   6.289  21.525  0.00  0.00    +0.204 A 
ENDROOT
BRANCH  25  26
ATOM      7  N   UNL     1      17.131   5.917  19.013  0.00  0.00    -0.221 NA
ATOM     26  C   UNL     1      18.597   6.483  20.850  0.00  0.00    +0.041 A 
ATOM     27  C   UNL     1      16.241   6.804  19.513  0.00  0.00    +0.215 A 
ATOM     28  C   UNL     1      17.657   7.387  21.332  0.00  0.00    +0.018 A 
ATOM     29  C   UNL     1      18.289   5.780  19.698  0.00  0.00    +0.126 A 
ATOM     30  C   UNL     1      16.454   7.556  20.657  0.00  0.00    +0.068 A 
BRANCH  27   2
ATOM      2  O   UNL     1      15.063   6.953  18.829  0.00  0.00    -0.473 OA
BRANCH   2  19
ATOM     19  C   UNL     1      14.034   7.692  19.478  0.00  0.00    +0.175 C 
ATOM     20  C   UNL     1      12.880   6.758  19.840  0.00  0.00    +0.044 C 
ATOM     21  C   UNL     1      13.572   8.833  18.572  0.00  0.00    +0.044 C 
ATOM     22  C   UNL     1      11.710   7.522  20.452  0.00  0.00    +0.004 C 
ATOM     23  C   UNL     1      12.402   9.596  19.184  0.00  0.00    +0.004 C 
ATOM     24  C   UNL     1      11.249   8.663  19.547  0.00  0.00    +0.000 C 
ENDBRANCH   2  19
ENDBRANCH  27   2
ENDBRANCH  25  26
BRANCH  17   9
ATOM      3  N   UNL     1      23.789   4.741  20.873  0.00  0.00    -0.288 NA
ATOM      9  C   UNL     1      23.382   5.850  21.759  0.00  0.00    +0.146 C 
ATOM     10  C   UNL     1      25.111   5.093  20.352  0.00  0.00    +0.085 C 
ATOM     13  C   UNL     1      24.106   7.088  21.196  0.00  0.00    +0.030 C 
ATOM     14  C   UNL     1      24.941   6.565  20.035  0.00  0.00    +0.017 C 
BRANCH   3   8
ATOM      4  N   UNL     1      25.278   1.252  22.791  0.00  0.00    -0.305 NA
ATOM      8  C   UNL     1      23.791   3.442  21.541  0.00  0.00    +0.060 C 
ATOM     11  C   UNL     1      24.405   3.565  22.938  0.00  0.00    +0.034 C 
ATOM     12  C   UNL     1      24.565   2.405  20.720  0.00  0.00    +0.034 C 
ATOM     15  C   UNL     1      24.507   2.195  23.614  0.00  0.00    +0.085 C 
ATOM     16  C   UNL     1      24.663   1.073  21.469  0.00  0.00    +0.085 C 
ATOM     18  C   UNL     1      25.410  -0.034  23.473  0.00  0.00    +0.104 C 
ENDBRANCH   3   8
ENDBRANCH  17   9
TORSDOF 5
ENDMDL
MODEL 6
REMARK VINA RESULT:      -7.2     26.951     30.494
REMARK  Name = 45783585
REMARK  6 active torsions:
REMARK  status: ('A' for Active; 'I' for Inactive)
REMARK    1  A    between atoms: O_2  and  C_19
REMARK    2  A    between atoms: O_2  and  C_27
REMARK    3  A    between atoms: N_3  and  C_8
REMARK    4  A    between atoms: N_4  and  C_18
REMARK    5  A    between atoms: C_9  and  C_17
REMARK    6  A    between atoms: C_25  and  C_26
REMARK                            x       y       z     vdW  Elec       q    Type
REMARK                         _______ _______ _______ _____ _____    ______ ____
ROOT
ATOM      1  O   UNL     1      -2.169 -10.540  14.501  0.00  0.00    -0.336 OA
ATOM      5  N   UNL     1      -4.397 -10.695  14.331  0.00  0.00    -0.190 NA
ATOM      6  N   UNL     1      -2.658 -10.568  15.813  0.00  0.00    -0.056 NA
ATOM     17  C   UNL     1      -3.257 -10.620  13.692  0.00  0.00    +0.245 A 
ATOM     25  C   UNL     1      -3.979 -10.660  15.630  0.00  0.00    +0.204 A 
ENDROOT
BRANCH  25  26
ATOM      7  N   UNL     1      -7.063 -10.113  17.635  0.00  0.00    -0.221 NA
ATOM     26  C   UNL     1      -4.907 -10.717  16.722  0.00  0.00    +0.041 A 
ATOM     27  C   UNL     1      -6.720 -10.782  18.760  0.00  0.00    +0.215 A 
ATOM     28  C   UNL     1      -4.592 -11.394  17.895  0.00  0.00    +0.018 A 
ATOM     29  C   UNL     1      -6.144 -10.099  16.643  0.00  0.00    +0.126 A 
ATOM     30  C   UNL     1      -5.510 -11.432  18.937  0.00  0.00    +0.068 A 
BRANCH  27   2
ATOM      2  O   UNL     1      -7.643 -10.804  19.773  0.00  0.00    -0.473 OA
BRANCH   2  19
ATOM     19  C   UNL     1      -8.869 -11.476  19.508  0.00  0.00    +0.175 C 
ATOM     20  C   UNL     1     -10.032 -10.672  20.089  0.00  0.00    +0.044 C 
ATOM     21  C   UNL     1      -8.816 -12.889  20.089  0.00  0.00    +0.044 C 
ATOM     22  C   UNL     1     -11.361 -11.401  19.915  0.00  0.00    +0.004 C 
ATOM     23  C   UNL     1     -10.145 -13.617  19.915  0.00  0.00    +0.004 C 
ATOM     24  C   UNL     1     -11.307 -12.813  20.493  0.00  0.00    +0.000 C 
ENDBRANCH   2  19
ENDBRANCH  27   2
ENDBRANCH  25  26
BRANCH  17   9
ATOM      3  N   UNL     1      -3.716  -9.529  11.502  0.00  0.00    -0.288 NA
ATOM      9  C   UNL     1      -2.992 -10.610  12.200  0.00  0.00    +0.146 C 
ATOM     10  C   UNL     1      -2.903  -9.171  10.339  0.00  0.00    +0.085 C 
ATOM     13  C   UNL     1      -1.508 -10.370  11.862  0.00  0.00    +0.030 C 
ATOM     14  C   UNL     1      -1.505  -9.172  10.921  0.00  0.00    +0.017 C 
BRANCH   3   8
ATOM      4  N   UNL     1      -7.596  -9.223   9.794  0.00  0.00    -0.305 NA
ATOM      8  C   UNL     1      -5.079  -9.897  11.127  0.00  0.00    +0.060 C 
ATOM     11  C   UNL     1      -5.224  -9.908   9.603  0.00  0.00    +0.034 C 
ATOM     12  C   UNL     1      -6.097  -8.931  11.742  0.00  0.00    +0.034 C 
ATOM     15  C   UNL     1      -6.671 -10.195   9.193  0.00  0.00    +0.085 C 
ATOM     16  C   UNL     1      -7.515  -9.249  11.261  0.00  0.00    +0.085 C 
ATOM     18  C   UNL     1      -8.966  -9.479   9.352  0.00  0.00    +0.104 C 
ENDBRANCH   3   8
ENDBRANCH  17   9
TORSDOF 5
ENDMDL
MODEL 7
REMARK VINA RESULT:      -7.1     28.215     32.836
REMARK  Name = 45783585
REMARK  6 active torsions:
REMARK  status: ('A' for Active; 'I' for Inactive)
REMARK    1  A    between atoms: O_2  and  C_19
REMARK    2  A    between atoms: O_2  and  C_27
REMARK    3  A    between atoms: N_3  and  C_8
REMARK    4  A    between atoms: N_4  and  C_18
REMARK    5  A    between atoms: C_9  and  C_17
REMARK    6  A    between atoms: C_25  and  C_26
REMARK                            x       y       z     vdW  Elec       q    Type
REMARK                         _______ _______ _______ _____ _____    ______ ____
ROOT
ATOM      1  O   UNL     1      -8.105 -10.123   7.595  0.00  0.00    -0.336 OA
ATOM      5  N   UNL     1      -7.295  -8.098   8.107  0.00  0.00    -0.190 NA
ATOM      6  N   UNL     1      -9.214  -9.330   7.917  0.00  0.00    -0.056 NA
ATOM     17  C   UNL     1      -7.017  -9.321   7.731  0.00  0.00    +0.245 A 
ATOM     25  C   UNL     1      -8.655  -8.151   8.208  0.00  0.00    +0.204 A 
ENDROOT
BRANCH  25  26
ATOM      7  N   UNL     1     -11.414  -6.122   9.658  0.00  0.00    -0.221 NA
ATOM     26  C   UNL     1      -9.426  -7.009   8.605  0.00  0.00    +0.041 A 
ATOM     27  C   UNL     1     -10.947  -4.882   9.386  0.00  0.00    +0.215 A 
ATOM     28  C   UNL     1      -8.980  -5.718   8.343  0.00  0.00    +0.018 A 
ATOM     29  C   UNL     1     -10.638  -7.156   9.259  0.00  0.00    +0.126 A 
ATOM     30  C   UNL     1      -9.749  -4.629   8.738  0.00  0.00    +0.068 A 
BRANCH  27   2
ATOM      2  O   UNL     1     -11.723  -3.826   9.785  0.00  0.00    -0.473 OA
BRANCH   2  19
ATOM     19  C   UNL     1     -12.783  -4.116  10.690  0.00  0.00    +0.175 C 
ATOM     20  C   UNL     1     -14.061  -3.419  10.226  0.00  0.00    +0.044 C 
ATOM     21  C   UNL     1     -12.386  -3.681  12.101  0.00  0.00    +0.044 C 
ATOM     22  C   UNL     1     -15.203  -3.621  11.217  0.00  0.00    +0.004 C 
ATOM     23  C   UNL     1     -13.527  -3.882  13.092  0.00  0.00    +0.004 C 
ATOM     24  C   UNL     1     -14.805  -3.188  12.627  0.00  0.00    +0.000 C 
ENDBRANCH   2  19
ENDBRANCH  27   2
ENDBRANCH  25  26
BRANCH  17   9
ATOM      3  N   UNL     1      -5.422 -11.163   8.238  0.00  0.00    -0.288 NA
ATOM      9  C   UNL     1      -5.672  -9.951   7.432  0.00  0.00    +0.146 C 
ATOM     10  C   UNL     1      -4.549 -12.020   7.435  0.00  0.00    +0.085 C 
ATOM     13  C   UNL     1      -5.547 -10.420   5.970  0.00  0.00    +0.030 C 
ATOM     14  C   UNL     1      -5.165 -11.892   6.057  0.00  0.00    +0.017 C 
BRANCH   3   8
ATOM      4  N   UNL     1      -2.512 -10.726  11.305  0.00  0.00    -0.305 NA
ATOM      8  C   UNL     1      -4.851 -10.873   9.551  0.00  0.00    +0.060 C 
ATOM     11  C   UNL     1      -3.817  -9.748   9.442  0.00  0.00    +0.034 C 
ATOM     12  C   UNL     1      -4.201 -12.122  10.154  0.00  0.00    +0.034 C 
ATOM     15  C   UNL     1      -3.136  -9.498  10.791  0.00  0.00    +0.085 C 
ATOM     16  C   UNL     1      -3.505 -11.795  11.478  0.00  0.00    +0.085 C 
ATOM     18  C   UNL     1      -1.822 -10.459  12.567  0.00  0.00    +0.104 C 
ENDBRANCH   3   8
ENDBRANCH  17   9
TORSDOF 5
ENDMDL
MODEL 8
REMARK VINA RESULT:      -6.8     30.637     34.274
REMARK  Name = 45783585
REMARK  6 active torsions:
REMARK  status: ('A' for Active; 'I' for Inactive)
REMARK    1  A    between atoms: O_2  and  C_19
REMARK    2  A    between atoms: O_2  and  C_27
REMARK    3  A    between atoms: N_3  and  C_8
REMARK    4  A    between atoms: N_4  and  C_18
REMARK    5  A    between atoms: C_9  and  C_17
REMARK    6  A    between atoms: C_25  and  C_26
REMARK                            x       y       z     vdW  Elec       q    Type
REMARK                         _______ _______ _______ _____ _____    ______ ____
ROOT
ATOM      1  O   UNL     1     -16.862   2.455  22.710  0.00  0.00    -0.336 OA
ATOM      5  N   UNL     1     -17.349   4.004  24.253  0.00  0.00    -0.190 NA
ATOM      6  N   UNL     1     -16.552   1.881  23.949  0.00  0.00    -0.056 NA
ATOM     17  C   UNL     1     -17.325   3.703  22.979  0.00  0.00    +0.245 A 
ATOM     25  C   UNL     1     -16.865   2.855  24.809  0.00  0.00    +0.204 A 
ENDROOT
BRANCH  25  26
ATOM      7  N   UNL     1     -16.368   3.755  28.383  0.00  0.00    -0.221 NA
ATOM     26  C   UNL     1     -16.707   2.713  26.227  0.00  0.00    +0.041 A 
ATOM     27  C   UNL     1     -16.395   2.519  28.931  0.00  0.00    +0.215 A 
ATOM     28  C   UNL     1     -16.729   1.459  26.828  0.00  0.00    +0.018 A 
ATOM     29  C   UNL     1     -16.525   3.819  27.041  0.00  0.00    +0.126 A 
ATOM     30  C   UNL     1     -16.571   1.352  28.205  0.00  0.00    +0.068 A 
BRANCH  27   2
ATOM      2  O   UNL     1     -16.237   2.439  30.290  0.00  0.00    -0.473 OA
BRANCH   2  19
ATOM     19  C   UNL     1     -15.370   3.395  30.890  0.00  0.00    +0.175 C 
ATOM     20  C   UNL     1     -14.130   2.690  31.439  0.00  0.00    +0.044 C 
ATOM     21  C   UNL     1     -16.120   4.150  31.988  0.00  0.00    +0.044 C 
ATOM     22  C   UNL     1     -13.214   3.660  32.179  0.00  0.00    +0.004 C 
ATOM     23  C   UNL     1     -15.204   5.119  32.728  0.00  0.00    +0.004 C 
ATOM     24  C   UNL     1     -13.964   4.416  33.274  0.00  0.00    +0.000 C 
ENDBRANCH   2  19
ENDBRANCH  27   2
ENDBRANCH  25  26
BRANCH  17   9
ATOM      3  N   UNL     1     -16.645   4.708  20.806  0.00  0.00    -0.288 NA
ATOM      9  C   UNL     1     -17.736   4.543  21.787  0.00  0.00    +0.146 C 
ATOM     10  C   UNL     1     -17.285   4.867  19.499  0.00  0.00    +0.085 C 
ATOM     13  C   UNL     1     -18.891   3.912  20.986  0.00  0.00    +0.030 C 
ATOM     14  C   UNL     1     -18.377   3.818  19.555  0.00  0.00    +0.017 C 
BRANCH   3   8
ATOM      4  N   UNL     1     -13.286   7.303  20.582  0.00  0.00    -0.305 NA
ATOM      8  C   UNL     1     -15.753   5.821  21.119  0.00  0.00    +0.060 C 
ATOM     11  C   UNL     1     -15.598   6.735  19.901  0.00  0.00    +0.034 C 
ATOM     12  C   UNL     1     -14.379   5.313  21.568  0.00  0.00    +0.034 C 
ATOM     15  C   UNL     1     -14.589   7.853  20.179  0.00  0.00    +0.085 C 
ATOM     16  C   UNL     1     -13.409   6.476  21.790  0.00  0.00    +0.085 C 
ATOM     18  C   UNL     1     -12.320   8.380  20.793  0.00  0.00    +0.104 C 
ENDBRANCH   3   8
ENDBRANCH  17   9
TORSDOF 5
ENDMDL
MODEL 9
REMARK VINA RESULT:      -6.7      3.337      9.243
REMARK  Name = 45783585
REMARK  6 active torsions:
REMARK  status: ('A' for Active; 'I' for Inactive)
REMARK    1  A    between atoms: O_2  and  C_19
REMARK    2  A    between atoms: O_2  and  C_27
REMARK    3  A    between atoms: N_3  and  C_8
REMARK    4  A    between atoms: N_4  and  C_18
REMARK    5  A    between atoms: C_9  and  C_17
REMARK    6  A    between atoms: C_25  and  C_26
REMARK                            x       y       z     vdW  Elec       q    Type
REMARK                         _______ _______ _______ _____ _____    ______ ____
ROOT
ATOM      1  O   UNL     1      12.813   7.607  17.462  0.00  0.00    -0.336 OA
ATOM      5  N   UNL     1      14.583   8.963  17.678  0.00  0.00    -0.190 NA
ATOM      6  N   UNL     1      12.827   8.415  16.318  0.00  0.00    -0.056 NA
ATOM     17  C   UNL     1      13.880   7.994  18.209  0.00  0.00    +0.245 A 
ATOM     25  C   UNL     1      13.898   9.188  16.519  0.00  0.00    +0.204 A 
ENDROOT
BRANCH  25  26
ATOM      7  N   UNL     1      15.511  10.770  13.565  0.00  0.00    -0.221 NA
ATOM     26  C   UNL     1      14.311  10.194  15.583  0.00  0.00    +0.041 A 
ATOM     27  C   UNL     1      15.134  12.054  13.765  0.00  0.00    +0.215 A 
ATOM     28  C   UNL     1      13.945  11.524  15.755  0.00  0.00    +0.018 A 
ATOM     29  C   UNL     1      15.087   9.871  14.482  0.00  0.00    +0.126 A 
ATOM     30  C   UNL     1      14.361  12.478  14.833  0.00  0.00    +0.068 A 
BRANCH  27   2
ATOM      2  O   UNL     1      15.557  12.975  12.843  0.00  0.00    -0.473 OA
BRANCH   2  19
ATOM     19  C   UNL     1      16.174  12.466  11.666  0.00  0.00    +0.175 C 
ATOM     20  C   UNL     1      17.661  12.817  11.672  0.00  0.00    +0.044 C 
ATOM     21  C   UNL     1      15.468  13.028  10.432  0.00  0.00    +0.044 C 
ATOM     22  C   UNL     1      18.347  12.376  10.383  0.00  0.00    +0.004 C 
ATOM     23  C   UNL     1      16.154  12.587   9.143  0.00  0.00    +0.004 C 
ATOM     24  C   UNL     1      17.640  12.936   9.150  0.00  0.00    +0.000 C 
ENDBRANCH   2  19
ENDBRANCH  27   2
ENDBRANCH  25  26
BRANCH  17   9
ATOM      3  N   UNL     1      14.947   8.011  20.457  0.00  0.00    -0.288 NA
ATOM      9  C   UNL     1      14.090   7.261  19.517  0.00  0.00    +0.146 C 
ATOM     10  C   UNL     1      14.520   7.624  21.803  0.00  0.00    +0.085 C 
ATOM     13  C   UNL     1      12.776   7.027  20.286  0.00  0.00    +0.030 C 
ATOM     14  C   UNL     1      13.012   7.626  21.666  0.00  0.00    +0.017 C 
BRANCH   3   8
ATOM      4  N   UNL     1      18.842   6.398  21.000  0.00  0.00    -0.305 NA
ATOM      8  C   UNL     1      16.374   7.779  20.246  0.00  0.00    +0.060 C 
ATOM     11  C   UNL     1      16.626   6.309  19.899  0.00  0.00    +0.034 C 
ATOM     12  C   UNL     1      17.182   8.168  21.488  0.00  0.00    +0.034 C 
ATOM     15  C   UNL     1      18.125   6.026  19.771  0.00  0.00    +0.085 C 
ATOM     16  C   UNL     1      18.663   7.823  21.310  0.00  0.00    +0.085 C 
ATOM     18  C   UNL     1      20.263   6.074  20.882  0.00  0.00    +0.104 C 
ENDBRANCH   3   8
ENDBRANCH  17   9
TORSDOF 5
ENDMDL
MODEL 10
REMARK VINA RESULT:      -6.7      6.813      8.752
REMARK  Name = 45783585
REMARK  6 active torsions:
REMARK  status: ('A' for Active; 'I' for Inactive)
REMARK    1  A    between atoms: O_2  and  C_19
REMARK    2  A    between atoms: O_2  and  C_27
REMARK    3  A    between atoms: N_3  and  C_8
REMARK    4  A    between atoms: N_4  and  C_18
REMARK    5  A    between atoms: C_9  and  C_17
REMARK    6  A    between atoms: C_25  and  C_26
REMARK                            x       y       z     vdW  Elec       q    Type
REMARK                         _______ _______ _______ _____ _____    ______ ____
ROOT
ATOM      1  O   UNL     1      11.998   7.731  18.280  0.00  0.00    -0.336 OA
ATOM      5  N   UNL     1      13.312   9.491  18.722  0.00  0.00    -0.190 NA
ATOM      6  N   UNL     1      12.313   8.302  17.041  0.00  0.00    -0.056 NA
ATOM     17  C   UNL     1      12.626   8.491  19.215  0.00  0.00    +0.245 A 
ATOM     25  C   UNL     1      13.090   9.334  17.384  0.00  0.00    +0.204 A 
ENDROOT
BRANCH  25  26
ATOM      7  N   UNL     1      13.574  11.204  14.206  0.00  0.00    -0.221 NA
ATOM     26  C   UNL     1      13.658  10.227  16.416  0.00  0.00    +0.041 A 
ATOM     27  C   UNL     1      14.686  11.905  14.526  0.00  0.00    +0.215 A 
ATOM     28  C   UNL     1      14.801  10.965  16.707  0.00  0.00    +0.018 A 
ATOM     29  C   UNL     1      13.088  10.382  15.164  0.00  0.00    +0.126 A 
ATOM     30  C   UNL     1      15.330  11.822  15.750  0.00  0.00    +0.068 A 
BRANCH  27   2
ATOM      2  O   UNL     1      15.189  12.743  13.565  0.00  0.00    -0.473 OA
BRANCH   2  19
ATOM     19  C   UNL     1      16.516  12.484  13.121  0.00  0.00    +0.175 C 
ATOM     20  C   UNL     1      17.443  13.604  13.591  0.00  0.00    +0.044 C 
ATOM     21  C   UNL     1      16.530  12.344  11.599  0.00  0.00    +0.044 C 
ATOM     22  C   UNL     1      18.860  13.422  13.057  0.00  0.00    +0.004 C 
ATOM     23  C   UNL     1      17.947  12.162  11.065  0.00  0.00    +0.004 C 
ATOM     24  C   UNL     1      18.873  13.280  11.536  0.00  0.00    +0.000 C 
ENDBRANCH   2  19
ENDBRANCH  27   2
ENDBRANCH  25  26
BRANCH  17   9
ATOM      3  N   UNL     1      11.308   8.762  21.309  0.00  0.00    -0.288 NA
ATOM      9  C   UNL     1      12.441   8.073  20.660  0.00  0.00    +0.146 C 
ATOM     10  C   UNL     1      10.801   7.847  22.333  0.00  0.00    +0.085 C 
ATOM     13  C   UNL     1      12.126   6.573  20.809  0.00  0.00    +0.030 C 
ATOM     14  C   UNL     1      10.830   6.517  21.607  0.00  0.00    +0.017 C 
BRANCH   3   8
ATOM      4  N   UNL     1      12.616  11.663  24.125  0.00  0.00    -0.305 NA
ATOM      8  C   UNL     1      11.668  10.063  21.865  0.00  0.00    +0.060 C 
ATOM     11  C   UNL     1      13.133  10.064  22.308  0.00  0.00    +0.034 C 
ATOM     12  C   UNL     1      10.764  10.422  23.050  0.00  0.00    +0.034 C 
ATOM     15  C   UNL     1      13.501  11.387  22.985  0.00  0.00    +0.085 C 
ATOM     16  C   UNL     1      11.210  11.732  23.704  0.00  0.00    +0.085 C 
ATOM     18  C   UNL     1      13.012  12.903  24.792  0.00  0.00    +0.104 C 
ENDBRANCH   3   8
ENDBRANCH  17   9
TORSDOF 5
ENDMDL
