MODEL 1
REMARK VINA RESULT:      -8.5      0.000      0.000
REMARK  Name = 11912431
REMARK  4 active torsions:
REMARK  status: ('A' for Active; 'I' for Inactive)
REMARK    1  A    between atoms: O_7  and  C_33
REMARK    2  A    between atoms: O_7  and  C_34
REMARK    3  A    between atoms: C_19  and  C_22
REMARK    4  A    between atoms: C_20  and  C_23
REMARK                            x       y       z     vdW  Elec       q    Type
REMARK                         _______ _______ _______ _____ _____    ______ ____
ROOT
ATOM      5  O   UNL     1      15.126   6.080  21.583  0.00  0.00    -0.267 OA
ATOM      6  O   UNL     1      11.727   7.304  17.975  0.00  0.00    -0.270 OA
ATOM      8  N   UNL     1      11.613   8.983  19.599  0.00  0.00    -0.297 N 
ATOM      9  N   UNL     1      13.910   8.070  21.565  0.00  0.00    -0.311 N 
ATOM     10  C   UNL     1      11.374   8.138  21.925  0.00  0.00    +0.027 C 
ATOM     11  C   UNL     1      12.609  10.226  21.505  0.00  0.00    +0.054 C 
ATOM     12  C   UNL     1      11.628   9.544  22.457  0.00  0.00    +0.018 C 
ATOM     13  C   UNL     1      10.776   8.201  20.507  0.00  0.00    +0.113 C 
ATOM     14  C   UNL     1      12.690   7.352  21.962  0.00  0.00    +0.130 C 
ATOM     15  C   UNL     1      11.984  10.318  20.098  0.00  0.00    +0.117 C 
ATOM     16  C   UNL     1      13.916   9.460  21.428  0.00  0.00    +0.027 A 
ATOM     17  C   UNL     1      15.066  10.109  21.187  0.00  0.00    +0.022 A 
ATOM     18  C   UNL     1      15.084   7.303  21.436  0.00  0.00    +0.259 A 
ATOM     19  C   UNL     1      12.036   8.418  18.394  0.00  0.00    +0.247 C 
ATOM     20  C   UNL     1      16.348   8.053  21.118  0.00  0.00    +0.047 A 
ATOM     21  C   UNL     1      16.298   9.391  21.024  0.00  0.00    +0.015 A 
ENDROOT
BRANCH  19  22
ATOM      1  F   UNL     1      15.512  11.384  15.170  0.00  0.00    -0.205 F 
ATOM     22  C   UNL     1      12.947   9.198  17.549  0.00  0.00    +0.037 A 
ATOM     24  C   UNL     1      14.201   9.560  18.033  0.00  0.00    +0.016 A 
ATOM     25  C   UNL     1      12.554   9.569  16.265  0.00  0.00    +0.016 A 
ATOM     28  C   UNL     1      15.068  10.300  17.229  0.00  0.00    +0.039 A 
ATOM     29  C   UNL     1      13.422  10.309  15.461  0.00  0.00    +0.039 A 
ATOM     32  C   UNL     1      14.679  10.675  15.944  0.00  0.00    +0.123 A 
ENDBRANCH  19  22
BRANCH  20  23
ATOM     23  C   UNL     1      17.620   7.345  20.894  0.00  0.00    -0.012 A 
ATOM     26  C   UNL     1      18.769   7.739  21.580  0.00  0.00    +0.012 A 
ATOM     27  C   UNL     1      17.676   6.279  19.996  0.00  0.00    +0.012 A 
ATOM     30  C   UNL     1      19.973   7.068  21.367  0.00  0.00    +0.046 A 
ATOM     31  C   UNL     1      18.880   5.608  19.783  0.00  0.00    +0.046 A 
ATOM     33  C   UNL     1      20.029   6.003  20.469  0.00  0.00    +0.130 A 
BRANCH  33   7
ATOM      7  O   UNL     1      21.204   5.347  20.263  0.00  0.00    -0.406 OA
BRANCH   7  34
ATOM      2  F   UNL     1      21.419   4.553  22.397  0.00  0.00    -0.133 F 
ATOM      3  F   UNL     1      22.775   3.833  20.842  0.00  0.00    -0.133 F 
ATOM      4  F   UNL     1      20.686   3.190  20.820  0.00  0.00    -0.133 F 
ATOM     34  C   UNL     1      21.506   4.228  21.089  0.00  0.00    +0.575 C 
ENDBRANCH   7  34
ENDBRANCH  33   7
ENDBRANCH  20  23
TORSDOF 4
ENDMDL
MODEL 2
REMARK VINA RESULT:      -8.0      2.229      3.119
REMARK  Name = 11912431
REMARK  4 active torsions:
REMARK  status: ('A' for Active; 'I' for Inactive)
REMARK    1  A    between atoms: O_7  and  C_33
REMARK    2  A    between atoms: O_7  and  C_34
REMARK    3  A    between atoms: C_19  and  C_22
REMARK    4  A    between atoms: C_20  and  C_23
REMARK                            x       y       z     vdW  Elec       q    Type
REMARK                         _______ _______ _______ _____ _____    ______ ____
ROOT
ATOM      5  O   UNL     1      15.871   6.215  18.543  0.00  0.00    -0.267 OA
ATOM      6  O   UNL     1      14.618  10.805  16.691  0.00  0.00    -0.270 OA
ATOM      8  N   UNL     1      13.147  10.372  18.457  0.00  0.00    -0.297 N 
ATOM      9  N   UNL     1      14.263   7.608  19.500  0.00  0.00    -0.311 N 
ATOM     10  C   UNL     1      12.043   8.147  18.340  0.00  0.00    +0.027 C 
ATOM     11  C   UNL     1      12.555   9.144  20.533  0.00  0.00    +0.054 C 
ATOM     12  C   UNL     1      11.512   8.342  19.756  0.00  0.00    +0.018 C 
ATOM     13  C   UNL     1      12.273   9.511  17.662  0.00  0.00    +0.113 C 
ATOM     14  C   UNL     1      13.326   7.310  18.406  0.00  0.00    +0.130 C 
ATOM     15  C   UNL     1      12.750  10.521  19.867  0.00  0.00    +0.117 C 
ATOM     16  C   UNL     1      13.883   8.412  20.576  0.00  0.00    +0.027 A 
ATOM     17  C   UNL     1      14.708   8.570  21.624  0.00  0.00    +0.022 A 
ATOM     18  C   UNL     1      15.513   6.959  19.458  0.00  0.00    +0.259 A 
ATOM     19  C   UNL     1      14.285  10.929  17.869  0.00  0.00    +0.247 C 
ATOM     20  C   UNL     1      16.434   7.194  20.623  0.00  0.00    +0.047 A 
ATOM     21  C   UNL     1      16.005   7.955  21.642  0.00  0.00    +0.015 A 
ENDROOT
BRANCH  19  22
ATOM      1  F   UNL     1      17.715  13.925  21.112  0.00  0.00    -0.205 F 
ATOM     22  C   UNL     1      15.186  11.715  18.718  0.00  0.00    +0.037 A 
ATOM     24  C   UNL     1      15.069  13.102  18.754  0.00  0.00    +0.016 A 
ATOM     25  C   UNL     1      16.152  11.070  19.487  0.00  0.00    +0.016 A 
ATOM     28  C   UNL     1      15.925  13.850  19.563  0.00  0.00    +0.039 A 
ATOM     29  C   UNL     1      17.007  11.818  20.296  0.00  0.00    +0.039 A 
ATOM     32  C   UNL     1      16.894  13.208  20.334  0.00  0.00    +0.123 A 
ENDBRANCH  19  22
BRANCH  20  23
ATOM     23  C   UNL     1      17.791   6.621  20.651  0.00  0.00    -0.012 A 
ATOM     26  C   UNL     1      18.149   5.632  19.734  0.00  0.00    +0.012 A 
ATOM     27  C   UNL     1      18.718   7.066  21.593  0.00  0.00    +0.012 A 
ATOM     30  C   UNL     1      19.433   5.089  19.761  0.00  0.00    +0.046 A 
ATOM     31  C   UNL     1      20.002   6.523  21.620  0.00  0.00    +0.046 A 
ATOM     33  C   UNL     1      20.360   5.534  20.703  0.00  0.00    +0.130 A 
BRANCH  33   7
ATOM      7  O   UNL     1      21.614   5.005  20.729  0.00  0.00    -0.406 OA
BRANCH   7  34
ATOM      2  F   UNL     1      21.631   3.808  22.678  0.00  0.00    -0.133 F 
ATOM      3  F   UNL     1      23.057   3.309  21.099  0.00  0.00    -0.133 F 
ATOM      4  F   UNL     1      20.945   2.820  20.825  0.00  0.00    -0.133 F 
ATOM     34  C   UNL     1      21.796   3.732  21.340  0.00  0.00    +0.575 C 
ENDBRANCH   7  34
ENDBRANCH  33   7
ENDBRANCH  20  23
TORSDOF 4
ENDMDL
MODEL 3
REMARK VINA RESULT:      -7.9     14.217     18.481
REMARK  Name = 11912431
REMARK  4 active torsions:
REMARK  status: ('A' for Active; 'I' for Inactive)
REMARK    1  A    between atoms: O_7  and  C_33
REMARK    2  A    between atoms: O_7  and  C_34
REMARK    3  A    between atoms: C_19  and  C_22
REMARK    4  A    between atoms: C_20  and  C_23
REMARK                            x       y       z     vdW  Elec       q    Type
REMARK                         _______ _______ _______ _____ _____    ______ ____
ROOT
ATOM      5  O   UNL     1      10.543   3.880   3.109  0.00  0.00    -0.267 OA
ATOM      6  O   UNL     1      15.301   3.942   1.259  0.00  0.00    -0.270 OA
ATOM      8  N   UNL     1      13.974   5.119  -0.267  0.00  0.00    -0.297 N 
ATOM      9  N   UNL     1      11.183   5.072   1.209  0.00  0.00    -0.311 N 
ATOM     10  C   UNL     1      11.910   3.919  -0.960  0.00  0.00    +0.027 C 
ATOM     11  C   UNL     1      11.906   6.377  -0.820  0.00  0.00    +0.054 C 
ATOM     12  C   UNL     1      11.407   5.187  -1.639  0.00  0.00    +0.018 C 
ATOM     13  C   UNL     1      13.450   3.914  -0.907  0.00  0.00    +0.113 C 
ATOM     14  C   UNL     1      11.284   3.825   0.436  0.00  0.00    +0.130 C 
ATOM     15  C   UNL     1      13.448   6.384  -0.806  0.00  0.00    +0.117 C 
ATOM     16  C   UNL     1      11.388   6.314   0.604  0.00  0.00    +0.027 A 
ATOM     17  C   UNL     1      11.170   7.445   1.294  0.00  0.00    +0.022 A 
ATOM     18  C   UNL     1      10.767   4.955   2.550  0.00  0.00    +0.259 A 
ATOM     19  C   UNL     1      14.860   4.998   0.807  0.00  0.00    +0.247 C 
ATOM     20  C   UNL     1      10.578   6.239   3.311  0.00  0.00    +0.047 A 
ATOM     21  C   UNL     1      10.764   7.403   2.670  0.00  0.00    +0.015 A 
ENDROOT
BRANCH  19  22
ATOM      1  F   UNL     1      16.522   9.677   3.376  0.00  0.00    -0.205 F 
ATOM     22  C   UNL     1      15.297   6.224   1.482  0.00  0.00    +0.037 A 
ATOM     24  C   UNL     1      16.363   6.956   0.966  0.00  0.00    +0.016 A 
ATOM     25  C   UNL     1      14.642   6.652   2.634  0.00  0.00    +0.016 A 
ATOM     28  C   UNL     1      16.778   8.124   1.607  0.00  0.00    +0.039 A 
ATOM     29  C   UNL     1      15.057   7.820   3.275  0.00  0.00    +0.039 A 
ATOM     32  C   UNL     1      16.125   8.555   2.761  0.00  0.00    +0.123 A 
ENDBRANCH  19  22
BRANCH  20  23
ATOM     23  C   UNL     1      10.212   6.232   4.738  0.00  0.00    -0.012 A 
ATOM     26  C   UNL     1       8.868   6.243   5.114  0.00  0.00    +0.012 A 
ATOM     27  C   UNL     1      11.208   6.215   5.714  0.00  0.00    +0.012 A 
ATOM     30  C   UNL     1       8.522   6.237   6.465  0.00  0.00    +0.046 A 
ATOM     31  C   UNL     1      10.862   6.209   7.065  0.00  0.00    +0.046 A 
ATOM     33  C   UNL     1       9.518   6.220   7.441  0.00  0.00    +0.130 A 
BRANCH  33   7
ATOM      7  O   UNL     1       9.180   6.213   8.759  0.00  0.00    -0.406 OA
BRANCH   7  34
ATOM      2  F   UNL     1       8.293   4.809  10.332  0.00  0.00    -0.133 F 
ATOM      3  F   UNL     1      10.460   5.066  10.223  0.00  0.00    -0.133 F 
ATOM      4  F   UNL     1       9.438   3.943   8.652  0.00  0.00    -0.133 F 
ATOM     34  C   UNL     1       9.328   4.998   9.486  0.00  0.00    +0.575 C 
ENDBRANCH   7  34
ENDBRANCH  33   7
ENDBRANCH  20  23
TORSDOF 4
ENDMDL
MODEL 4
REMARK VINA RESULT:      -7.9     27.083     29.290
REMARK  Name = 11912431
REMARK  4 active torsions:
REMARK  status: ('A' for Active; 'I' for Inactive)
REMARK    1  A    between atoms: O_7  and  C_33
REMARK    2  A    between atoms: O_7  and  C_34
REMARK    3  A    between atoms: C_19  and  C_22
REMARK    4  A    between atoms: C_20  and  C_23
REMARK                            x       y       z     vdW  Elec       q    Type
REMARK                         _______ _______ _______ _____ _____    ______ ____
ROOT
ATOM      5  O   UNL     1     -12.977  10.021  20.530  0.00  0.00    -0.267 OA
ATOM      6  O   UNL     1     -14.414  11.962  16.031  0.00  0.00    -0.270 OA
ATOM      8  N   UNL     1     -12.082  11.793  15.973  0.00  0.00    -0.297 N 
ATOM      9  N   UNL     1     -11.512  10.418  18.758  0.00  0.00    -0.311 N 
ATOM     10  C   UNL     1     -10.939  12.780  17.948  0.00  0.00    +0.027 C 
ATOM     11  C   UNL     1      -9.957  10.825  16.819  0.00  0.00    +0.054 C 
ATOM     12  C   UNL     1      -9.625  12.154  17.495  0.00  0.00    +0.018 C 
ATOM     13  C   UNL     1     -11.865  13.019  16.741  0.00  0.00    +0.113 C 
ATOM     14  C   UNL     1     -11.583  11.867  18.998  0.00  0.00    +0.130 C 
ATOM     15  C   UNL     1     -10.852  11.079  15.590  0.00  0.00    +0.117 C 
ATOM     16  C   UNL     1     -10.670   9.890  17.778  0.00  0.00    +0.027 A 
ATOM     17  C   UNL     1     -10.525   8.560  17.657  0.00  0.00    +0.022 A 
ATOM     18  C   UNL     1     -12.250   9.594  19.631  0.00  0.00    +0.259 A 
ATOM     19  C   UNL     1     -13.386  11.367  15.712  0.00  0.00    +0.247 C 
ATOM     20  C   UNL     1     -12.104   8.109  19.440  0.00  0.00    +0.047 A 
ATOM     21  C   UNL     1     -11.260   7.659  18.499  0.00  0.00    +0.015 A 
ENDROOT
BRANCH  19  22
ATOM      1  F   UNL     1     -14.069   6.491  13.061  0.00  0.00    -0.205 F 
ATOM     22  C   UNL     1     -13.567  10.088  15.017  0.00  0.00    +0.037 A 
ATOM     24  C   UNL     1     -13.552  10.048  13.625  0.00  0.00    +0.016 A 
ATOM     25  C   UNL     1     -13.751   8.919  15.752  0.00  0.00    +0.016 A 
ATOM     28  C   UNL     1     -13.722   8.832  12.963  0.00  0.00    +0.039 A 
ATOM     29  C   UNL     1     -13.921   7.703  15.090  0.00  0.00    +0.039 A 
ATOM     32  C   UNL     1     -13.907   7.660  13.696  0.00  0.00    +0.123 A 
ENDBRANCH  19  22
BRANCH  20  23
ATOM     23  C   UNL     1     -12.881   7.156  20.251  0.00  0.00    -0.012 A 
ATOM     26  C   UNL     1     -12.237   6.356  21.196  0.00  0.00    +0.012 A 
ATOM     27  C   UNL     1     -14.261   7.053  20.076  0.00  0.00    +0.012 A 
ATOM     30  C   UNL     1     -12.973   5.454  21.964  0.00  0.00    +0.046 A 
ATOM     31  C   UNL     1     -14.997   6.150  20.843  0.00  0.00    +0.046 A 
ATOM     33  C   UNL     1     -14.353   5.351  21.788  0.00  0.00    +0.130 A 
BRANCH  33   7
ATOM      7  O   UNL     1     -15.071   4.471  22.538  0.00  0.00    -0.406 OA
BRANCH   7  34
ATOM      2  F   UNL     1     -15.553   6.289  23.839  0.00  0.00    -0.133 F 
ATOM      3  F   UNL     1     -15.334   4.327  24.775  0.00  0.00    -0.133 F 
ATOM      4  F   UNL     1     -17.101   4.738  23.557  0.00  0.00    -0.133 F 
ATOM     34  C   UNL     1     -15.776   4.968  23.670  0.00  0.00    +0.575 C 
ENDBRANCH   7  34
ENDBRANCH  33   7
ENDBRANCH  20  23
TORSDOF 4
ENDMDL
MODEL 5
REMARK VINA RESULT:      -7.8     27.533     30.560
REMARK  Name = 11912431
REMARK  4 active torsions:
REMARK  status: ('A' for Active; 'I' for Inactive)
REMARK    1  A    between atoms: O_7  and  C_33
REMARK    2  A    between atoms: O_7  and  C_34
REMARK    3  A    between atoms: C_19  and  C_22
REMARK    4  A    between atoms: C_20  and  C_23
REMARK                            x       y       z     vdW  Elec       q    Type
REMARK                         _______ _______ _______ _____ _____    ______ ____
ROOT
ATOM      5  O   UNL     1      -6.612 -10.057  14.060  0.00  0.00    -0.267 OA
ATOM      6  O   UNL     1      -4.406 -14.354  12.408  0.00  0.00    -0.270 OA
ATOM      8  N   UNL     1      -2.693 -13.004  13.253  0.00  0.00    -0.297 N 
ATOM      9  N   UNL     1      -4.351 -10.550  14.347  0.00  0.00    -0.311 N 
ATOM     10  C   UNL     1      -2.708 -10.675  12.385  0.00  0.00    +0.027 C 
ATOM     11  C   UNL     1      -1.919 -11.121  14.674  0.00  0.00    +0.054 C 
ATOM     12  C   UNL     1      -1.659 -10.287  13.421  0.00  0.00    +0.018 C 
ATOM     13  C   UNL     1      -2.605 -12.175  12.052  0.00  0.00    +0.113 C 
ATOM     14  C   UNL     1      -4.094 -10.297  12.922  0.00  0.00    +0.130 C 
ATOM     15  C   UNL     1      -1.775 -12.619  14.338  0.00  0.00    +0.117 C 
ATOM     16  C   UNL     1      -3.308 -10.858  15.225  0.00  0.00    +0.027 A 
ATOM     17  C   UNL     1      -3.544 -10.963  16.542  0.00  0.00    +0.022 A 
ATOM     18  C   UNL     1      -5.673 -10.362  14.797  0.00  0.00    +0.259 A 
ATOM     19  C   UNL     1      -3.639 -14.030  13.313  0.00  0.00    +0.247 C 
ATOM     20  C   UNL     1      -5.914 -10.534  16.272  0.00  0.00    +0.047 A 
ATOM     21  C   UNL     1      -4.870 -10.804  17.069  0.00  0.00    +0.015 A 
ENDROOT
BRANCH  19  22
ATOM      1  F   UNL     1      -4.093 -16.902  18.089  0.00  0.00    -0.205 F 
ATOM     22  C   UNL     1      -3.760 -14.785  14.565  0.00  0.00    +0.037 A 
ATOM     24  C   UNL     1      -2.976 -15.917  14.770  0.00  0.00    +0.016 A 
ATOM     25  C   UNL     1      -4.656 -14.363  15.545  0.00  0.00    +0.016 A 
ATOM     28  C   UNL     1      -3.089 -16.634  15.961  0.00  0.00    +0.039 A 
ATOM     29  C   UNL     1      -4.769 -15.080  16.736  0.00  0.00    +0.039 A 
ATOM     32  C   UNL     1      -3.985 -16.215  16.944  0.00  0.00    +0.123 A 
ENDBRANCH  19  22
BRANCH  20  23
ATOM     23  C   UNL     1      -7.269 -10.428  16.840  0.00  0.00    -0.012 A 
ATOM     26  C   UNL     1      -7.991 -11.583  17.143  0.00  0.00    +0.012 A 
ATOM     27  C   UNL     1      -7.831  -9.174  17.075  0.00  0.00    +0.012 A 
ATOM     30  C   UNL     1      -9.274 -11.483  17.680  0.00  0.00    +0.046 A 
ATOM     31  C   UNL     1      -9.114  -9.073  17.612  0.00  0.00    +0.046 A 
ATOM     33  C   UNL     1      -9.836 -10.228  17.915  0.00  0.00    +0.130 A 
BRANCH  33   7
ATOM      7  O   UNL     1     -11.088 -10.130  18.441  0.00  0.00    -0.406 OA
BRANCH   7  34
ATOM      2  F   UNL     1     -10.083 -10.297  20.489  0.00  0.00    -0.133 F 
ATOM      3  F   UNL     1     -11.722 -11.651  19.983  0.00  0.00    -0.133 F 
ATOM      4  F   UNL     1     -12.158  -9.546  20.376  0.00  0.00    -0.133 F 
ATOM     34  C   UNL     1     -11.258 -10.391  19.830  0.00  0.00    +0.575 C 
ENDBRANCH   7  34
ENDBRANCH  33   7
ENDBRANCH  20  23
TORSDOF 4
ENDMDL
MODEL 6
REMARK VINA RESULT:      -7.8     14.432     18.713
REMARK  Name = 11912431
REMARK  4 active torsions:
REMARK  status: ('A' for Active; 'I' for Inactive)
REMARK    1  A    between atoms: O_7  and  C_33
REMARK    2  A    between atoms: O_7  and  C_34
REMARK    3  A    between atoms: C_19  and  C_22
REMARK    4  A    between atoms: C_20  and  C_23
REMARK                            x       y       z     vdW  Elec       q    Type
REMARK                         _______ _______ _______ _____ _____    ______ ____
ROOT
ATOM      5  O   UNL     1       8.032   7.921   3.119  0.00  0.00    -0.267 OA
ATOM      6  O   UNL     1       9.385   4.969  -0.821  0.00  0.00    -0.270 OA
ATOM      8  N   UNL     1      10.640   6.935  -0.996  0.00  0.00    -0.297 N 
ATOM      9  N   UNL     1       9.742   8.452   1.624  0.00  0.00    -0.311 N 
ATOM     10  C   UNL     1       9.295   9.020  -0.834  0.00  0.00    +0.027 C 
ATOM     11  C   UNL     1      11.606   8.987   0.016  0.00  0.00    +0.054 C 
ATOM     12  C   UNL     1      10.580   9.835  -0.734  0.00  0.00    +0.018 C 
ATOM     13  C   UNL     1       9.551   7.706  -1.595  0.00  0.00    +0.113 C 
ATOM     14  C   UNL     1       8.757   8.773   0.580  0.00  0.00    +0.130 C 
ATOM     15  C   UNL     1      11.883   7.692  -0.774  0.00  0.00    +0.117 C 
ATOM     16  C   UNL     1      11.110   8.634   1.406  0.00  0.00    +0.027 A 
ATOM     17  C   UNL     1      11.983   8.455   2.410  0.00  0.00    +0.022 A 
ATOM     18  C   UNL     1       9.233   8.059   2.877  0.00  0.00    +0.259 A 
ATOM     19  C   UNL     1      10.422   5.603  -0.636  0.00  0.00    +0.247 C 
ATOM     20  C   UNL     1      10.239   7.819   3.969  0.00  0.00    +0.047 A 
ATOM     21  C   UNL     1      11.538   8.036   3.708  0.00  0.00    +0.015 A 
ENDROOT
BRANCH  19  22
ATOM      1  F   UNL     1      14.562   2.877   1.953  0.00  0.00    -0.205 F 
ATOM     22  C   UNL     1      11.507   4.886   0.043  0.00  0.00    +0.037 A 
ATOM     24  C   UNL     1      12.473   4.220  -0.706  0.00  0.00    +0.016 A 
ATOM     25  C   UNL     1      11.568   4.879   1.435  0.00  0.00    +0.016 A 
ATOM     28  C   UNL     1      13.505   3.539  -0.061  0.00  0.00    +0.039 A 
ATOM     29  C   UNL     1      12.601   4.199   2.080  0.00  0.00    +0.039 A 
ATOM     32  C   UNL     1      13.569   3.529   1.332  0.00  0.00    +0.123 A 
ENDBRANCH  19  22
BRANCH  20  23
ATOM     23  C   UNL     1       9.823   7.339   5.298  0.00  0.00    -0.012 A 
ATOM     26  C   UNL     1       9.477   8.254   6.293  0.00  0.00    +0.012 A 
ATOM     27  C   UNL     1       9.775   5.971   5.563  0.00  0.00    +0.012 A 
ATOM     30  C   UNL     1       9.083   7.799   7.552  0.00  0.00    +0.046 A 
ATOM     31  C   UNL     1       9.382   5.516   6.821  0.00  0.00    +0.046 A 
ATOM     33  C   UNL     1       9.035   6.431   7.816  0.00  0.00    +0.130 A 
BRANCH  33   7
ATOM      7  O   UNL     1       8.650   5.987   9.044  0.00  0.00    -0.406 OA
BRANCH   7  34
ATOM      2  F   UNL     1       9.405   3.837   8.846  0.00  0.00    -0.133 F 
ATOM      3  F   UNL     1       8.801   4.587  10.808  0.00  0.00    -0.133 F 
ATOM      4  F   UNL     1      10.657   5.314   9.911  0.00  0.00    -0.133 F 
ATOM     34  C   UNL     1       9.391   4.929   9.641  0.00  0.00    +0.575 C 
ENDBRANCH   7  34
ENDBRANCH  33   7
ENDBRANCH  20  23
TORSDOF 4
ENDMDL
MODEL 7
REMARK VINA RESULT:      -7.8      4.299     10.041
REMARK  Name = 11912431
REMARK  4 active torsions:
REMARK  status: ('A' for Active; 'I' for Inactive)
REMARK    1  A    between atoms: O_7  and  C_33
REMARK    2  A    between atoms: O_7  and  C_34
REMARK    3  A    between atoms: C_19  and  C_22
REMARK    4  A    between atoms: C_20  and  C_23
REMARK                            x       y       z     vdW  Elec       q    Type
REMARK                         _______ _______ _______ _____ _____    ______ ____
ROOT
ATOM      5  O   UNL     1      20.048   3.749  20.495  0.00  0.00    -0.267 OA
ATOM      6  O   UNL     1      22.451   3.689  24.999  0.00  0.00    -0.270 OA
ATOM      8  N   UNL     1      23.904   4.712  23.479  0.00  0.00    -0.297 N 
ATOM      9  N   UNL     1      22.108   4.771  20.882  0.00  0.00    -0.311 N 
ATOM     10  C   UNL     1      24.239   3.435  21.372  0.00  0.00    +0.027 C 
ATOM     11  C   UNL     1      24.316   5.895  21.335  0.00  0.00    +0.054 C 
ATOM     12  C   UNL     1      24.962   4.633  20.767  0.00  0.00    +0.018 C 
ATOM     13  C   UNL     1      24.369   3.449  22.907  0.00  0.00    +0.113 C 
ATOM     14  C   UNL     1      22.775   3.461  20.917  0.00  0.00    +0.130 C 
ATOM     15  C   UNL     1      24.487   5.918  22.867  0.00  0.00    +0.117 C 
ATOM     16  C   UNL     1      22.840   5.956  20.990  0.00  0.00    +0.027 A 
ATOM     17  C   UNL     1      22.231   7.142  20.832  0.00  0.00    +0.022 A 
ATOM     18  C   UNL     1      20.722   4.771  20.630  0.00  0.00    +0.259 A 
ATOM     19  C   UNL     1      22.938   4.696  24.487  0.00  0.00    +0.247 C 
ATOM     20  C   UNL     1      20.060   6.116  20.506  0.00  0.00    +0.047 A 
ATOM     21  C   UNL     1      20.818   7.219  20.592  0.00  0.00    +0.015 A 
ENDROOT
BRANCH  19  22
ATOM      1  F   UNL     1      21.008   9.603  26.347  0.00  0.00    -0.205 F 
ATOM     22  C   UNL     1      22.430   5.982  24.976  0.00  0.00    +0.037 A 
ATOM     24  C   UNL     1      23.040   6.598  26.065  0.00  0.00    +0.016 A 
ATOM     25  C   UNL     1      21.342   6.582  24.347  0.00  0.00    +0.016 A 
ATOM     28  C   UNL     1      22.559   7.823  26.530  0.00  0.00    +0.039 A 
ATOM     29  C   UNL     1      20.861   7.806  24.811  0.00  0.00    +0.039 A 
ATOM     32  C   UNL     1      21.469   8.426  25.903  0.00  0.00    +0.123 A 
ENDBRANCH  19  22
BRANCH  20  23
ATOM     23  C   UNL     1      18.604   6.234  20.311  0.00  0.00    -0.012 A 
ATOM     26  C   UNL     1      17.803   6.752  21.329  0.00  0.00    +0.012 A 
ATOM     27  C   UNL     1      18.026   5.827  19.109  0.00  0.00    +0.012 A 
ATOM     30  C   UNL     1      16.425   6.863  21.144  0.00  0.00    +0.046 A 
ATOM     31  C   UNL     1      16.648   5.938  18.924  0.00  0.00    +0.046 A 
ATOM     33  C   UNL     1      15.848   6.456  19.942  0.00  0.00    +0.130 A 
BRANCH  33   7
ATOM      7  O   UNL     1      14.503   6.566  19.761  0.00  0.00    -0.406 OA
BRANCH   7  34
ATOM      2  F   UNL     1      12.832   8.103  19.479  0.00  0.00    -0.133 F 
ATOM      3  F   UNL     1      13.813   7.248  17.723  0.00  0.00    -0.133 F 
ATOM      4  F   UNL     1      14.905   8.673  18.969  0.00  0.00    -0.133 F 
ATOM     34  C   UNL     1      14.013   7.661  18.995  0.00  0.00    +0.575 C 
ENDBRANCH   7  34
ENDBRANCH  33   7
ENDBRANCH  20  23
TORSDOF 4
ENDMDL
MODEL 8
REMARK VINA RESULT:      -7.7     21.652     24.426
REMARK  Name = 11912431
REMARK  4 active torsions:
REMARK  status: ('A' for Active; 'I' for Inactive)
REMARK    1  A    between atoms: O_7  and  C_33
REMARK    2  A    between atoms: O_7  and  C_34
REMARK    3  A    between atoms: C_19  and  C_22
REMARK    4  A    between atoms: C_20  and  C_23
REMARK                            x       y       z     vdW  Elec       q    Type
REMARK                         _______ _______ _______ _____ _____    ______ ____
ROOT
ATOM      5  O   UNL     1       9.503  -9.348  32.458  0.00  0.00    -0.267 OA
ATOM      6  O   UNL     1       9.075  -8.069  37.382  0.00  0.00    -0.270 OA
ATOM      8  N   UNL     1       8.536  -6.158  36.145  0.00  0.00    -0.297 N 
ATOM      9  N   UNL     1       8.705  -7.286  33.200  0.00  0.00    -0.311 N 
ATOM     10  C   UNL     1      10.199  -5.578  34.391  0.00  0.00    +0.027 C 
ATOM     11  C   UNL     1       7.815  -5.080  34.027  0.00  0.00    +0.054 C 
ATOM     12  C   UNL     1       9.232  -4.545  33.822  0.00  0.00    +0.018 C 
ATOM     13  C   UNL     1       9.930  -5.796  35.891  0.00  0.00    +0.113 C 
ATOM     14  C   UNL     1      10.064  -6.876  33.585  0.00  0.00    +0.130 C 
ATOM     15  C   UNL     1       7.543  -5.258  35.535  0.00  0.00    +0.117 C 
ATOM     16  C   UNL     1       7.626  -6.408  33.320  0.00  0.00    +0.027 A 
ATOM     17  C   UNL     1       6.417  -6.756  32.848  0.00  0.00    +0.022 A 
ATOM     18  C   UNL     1       8.570  -8.559  32.612  0.00  0.00    +0.259 A 
ATOM     19  C   UNL     1       8.247  -7.316  36.872  0.00  0.00    +0.247 C 
ATOM     20  C   UNL     1       7.194  -8.939  32.138  0.00  0.00    +0.047 A 
ATOM     21  C   UNL     1       6.201  -8.045  32.255  0.00  0.00    +0.015 A 
ENDROOT
BRANCH  19  22
ATOM      1  F   UNL     1       2.883  -8.772  37.485  0.00  0.00    -0.205 F 
ATOM     22  C   UNL     1       6.839  -7.696  37.032  0.00  0.00    +0.037 A 
ATOM     24  C   UNL     1       6.242  -8.547  36.105  0.00  0.00    +0.016 A 
ATOM     25  C   UNL     1       6.108  -7.207  38.111  0.00  0.00    +0.016 A 
ATOM     28  C   UNL     1       4.904  -8.910  36.258  0.00  0.00    +0.039 A 
ATOM     29  C   UNL     1       4.770  -7.571  38.264  0.00  0.00    +0.039 A 
ATOM     32  C   UNL     1       4.168  -8.422  37.337  0.00  0.00    +0.123 A 
ENDBRANCH  19  22
BRANCH  20  23
ATOM     23  C   UNL     1       6.924 -10.272  31.571  0.00  0.00    -0.012 A 
ATOM     26  C   UNL     1       7.165 -10.516  30.218  0.00  0.00    +0.012 A 
ATOM     27  C   UNL     1       6.428 -11.290  32.385  0.00  0.00    +0.012 A 
ATOM     30  C   UNL     1       6.909 -11.778  29.681  0.00  0.00    +0.046 A 
ATOM     31  C   UNL     1       6.172 -12.551  31.848  0.00  0.00    +0.046 A 
ATOM     33  C   UNL     1       6.413 -12.795  30.496  0.00  0.00    +0.130 A 
BRANCH  33   7
ATOM      7  O   UNL     1       6.165 -14.027  29.972  0.00  0.00    -0.406 OA
BRANCH   7  34
ATOM      2  F   UNL     1       4.290 -15.081  30.750  0.00  0.00    -0.133 F 
ATOM      3  F   UNL     1       4.774 -15.183  28.622  0.00  0.00    -0.133 F 
ATOM      4  F   UNL     1       4.056 -13.299  29.465  0.00  0.00    -0.133 F 
ATOM     34  C   UNL     1       4.812 -14.389  29.715  0.00  0.00    +0.575 C 
ENDBRANCH   7  34
ENDBRANCH  33   7
ENDBRANCH  20  23
TORSDOF 4
ENDMDL
MODEL 9
REMARK VINA RESULT:      -7.7     28.167     31.684
REMARK  Name = 11912431
REMARK  4 active torsions:
REMARK  status: ('A' for Active; 'I' for Inactive)
REMARK    1  A    between atoms: O_7  and  C_33
REMARK    2  A    between atoms: O_7  and  C_34
REMARK    3  A    between atoms: C_19  and  C_22
REMARK    4  A    between atoms: C_20  and  C_23
REMARK                            x       y       z     vdW  Elec       q    Type
REMARK                         _______ _______ _______ _____ _____    ______ ____
ROOT
ATOM      5  O   UNL     1     -11.210  -9.415  18.605  0.00  0.00    -0.267 OA
ATOM      6  O   UNL     1      -6.484 -10.586  20.139  0.00  0.00    -0.270 OA
ATOM      8  N   UNL     1      -7.386 -12.532  19.205  0.00  0.00    -0.297 N 
ATOM      9  N   UNL     1     -10.185 -11.470  18.199  0.00  0.00    -0.311 N 
ATOM     10  C   UNL     1      -9.637 -13.130  20.073  0.00  0.00    +0.027 C 
ATOM     11  C   UNL     1      -9.043 -13.668  17.745  0.00  0.00    +0.054 C 
ATOM     12  C   UNL     1      -9.771 -14.188  18.984  0.00  0.00    +0.018 C 
ATOM     13  C   UNL     1      -8.153 -12.880  20.400  0.00  0.00    +0.113 C 
ATOM     14  C   UNL     1     -10.349 -11.853  19.609  0.00  0.00    +0.130 C 
ATOM     15  C   UNL     1      -7.550 -13.459  18.073  0.00  0.00    +0.117 C 
ATOM     16  C   UNL     1      -9.643 -12.360  17.269  0.00  0.00    +0.027 A 
ATOM     17  C   UNL     1      -9.616 -12.039  15.965  0.00  0.00    +0.022 A 
ATOM     18  C   UNL     1     -10.695 -10.213  17.820  0.00  0.00    +0.259 A 
ATOM     19  C   UNL     1      -6.622 -11.362  19.194  0.00  0.00    +0.247 C 
ATOM     20  C   UNL     1     -10.606  -9.862  16.360  0.00  0.00    +0.047 A 
ATOM     21  C   UNL     1     -10.100 -10.767  15.508  0.00  0.00    +0.015 A 
ENDROOT
BRANCH  19  22
ATOM      1  F   UNL     1      -4.007  -9.964  14.454  0.00  0.00    -0.205 F 
ATOM     22  C   UNL     1      -5.937 -10.997  17.950  0.00  0.00    +0.037 A 
ATOM     24  C   UNL     1      -6.605 -10.248  16.985  0.00  0.00    +0.016 A 
ATOM     25  C   UNL     1      -4.620 -11.399  17.741  0.00  0.00    +0.016 A 
ATOM     28  C   UNL     1      -5.953  -9.899  15.802  0.00  0.00    +0.039 A 
ATOM     29  C   UNL     1      -3.968 -11.050  16.558  0.00  0.00    +0.039 A 
ATOM     32  C   UNL     1      -4.634 -10.300  15.589  0.00  0.00    +0.123 A 
ENDBRANCH  19  22
BRANCH  20  23
ATOM     23  C   UNL     1     -11.047  -8.546  15.864  0.00  0.00    -0.012 A 
ATOM     26  C   UNL     1     -10.186  -7.450  15.934  0.00  0.00    +0.012 A 
ATOM     27  C   UNL     1     -12.323  -8.396  15.323  0.00  0.00    +0.012 A 
ATOM     30  C   UNL     1     -10.604  -6.205  15.464  0.00  0.00    +0.046 A 
ATOM     31  C   UNL     1     -12.741  -7.151  14.854  0.00  0.00    +0.046 A 
ATOM     33  C   UNL     1     -11.880  -6.055  14.924  0.00  0.00    +0.130 A 
BRANCH  33   7
ATOM      7  O   UNL     1     -12.287  -4.840  14.465  0.00  0.00    -0.406 OA
BRANCH   7  34
ATOM      2  F   UNL     1     -12.023  -3.510  12.623  0.00  0.00    -0.133 F 
ATOM      3  F   UNL     1     -13.843  -4.702  12.835  0.00  0.00    -0.133 F 
ATOM      4  F   UNL     1     -11.957  -5.705  12.374  0.00  0.00    -0.133 F 
ATOM     34  C   UNL     1     -12.511  -4.688  13.068  0.00  0.00    +0.575 C 
ENDBRANCH   7  34
ENDBRANCH  33   7
ENDBRANCH  20  23
TORSDOF 4
ENDMDL
MODEL 10
REMARK VINA RESULT:      -7.7     27.797     30.205
REMARK  Name = 11912431
REMARK  4 active torsions:
REMARK  status: ('A' for Active; 'I' for Inactive)
REMARK    1  A    between atoms: O_7  and  C_33
REMARK    2  A    between atoms: O_7  and  C_34
REMARK    3  A    between atoms: C_19  and  C_22
REMARK    4  A    between atoms: C_20  and  C_23
REMARK                            x       y       z     vdW  Elec       q    Type
REMARK                         _______ _______ _______ _____ _____    ______ ____
ROOT
ATOM      5  O   UNL     1      -6.606 -13.257  15.242  0.00  0.00    -0.267 OA
ATOM      6  O   UNL     1     -11.415 -12.056  16.467  0.00  0.00    -0.270 OA
ATOM      8  N   UNL     1     -10.122 -11.678  18.380  0.00  0.00    -0.297 N 
ATOM      9  N   UNL     1      -7.231 -12.317  17.283  0.00  0.00    -0.311 N 
ATOM     10  C   UNL     1      -8.647 -13.579  19.005  0.00  0.00    +0.027 C 
ATOM     11  C   UNL     1      -7.927 -11.270  19.465  0.00  0.00    +0.054 C 
ATOM     12  C   UNL     1      -7.944 -12.691  20.026  0.00  0.00    +0.018 C 
ATOM     13  C   UNL     1     -10.087 -13.087  18.768  0.00  0.00    +0.113 C 
ATOM     14  C   UNL     1      -7.821 -13.593  17.713  0.00  0.00    +0.130 C 
ATOM     15  C   UNL     1      -9.373 -10.774  19.268  0.00  0.00    +0.117 C 
ATOM     16  C   UNL     1      -7.189 -11.215  18.141  0.00  0.00    +0.027 A 
ATOM     17  C   UNL     1      -6.536 -10.100  17.776  0.00  0.00    +0.022 A 
ATOM     18  C   UNL     1      -6.621 -12.296  16.013  0.00  0.00    +0.259 A 
ATOM     19  C   UNL     1     -10.789 -11.303  17.211  0.00  0.00    +0.247 C 
ATOM     20  C   UNL     1      -5.939 -11.016  15.613  0.00  0.00    +0.047 A 
ATOM     21  C   UNL     1      -5.908 -10.001  16.490  0.00  0.00    +0.015 A 
ENDROOT
BRANCH  19  22
ATOM      1  F   UNL     1     -10.557  -5.933  15.670  0.00  0.00    -0.205 F 
ATOM     22  C   UNL     1     -10.729  -9.895  16.805  0.00  0.00    +0.037 A 
ATOM     24  C   UNL     1     -11.707  -9.006  17.243  0.00  0.00    +0.016 A 
ATOM     25  C   UNL     1      -9.693  -9.453  15.986  0.00  0.00    +0.016 A 
ATOM     28  C   UNL     1     -11.650  -7.666  16.858  0.00  0.00    +0.039 A 
ATOM     29  C   UNL     1      -9.635  -8.113  15.601  0.00  0.00    +0.039 A 
ATOM     32  C   UNL     1     -10.614  -7.220  16.038  0.00  0.00    +0.123 A 
ENDBRANCH  19  22
BRANCH  20  23
ATOM     23  C   UNL     1      -5.328 -10.861  14.282  0.00  0.00    -0.012 A 
ATOM     26  C   UNL     1      -3.940 -10.798  14.154  0.00  0.00    +0.012 A 
ATOM     27  C   UNL     1      -6.137 -10.778  13.149  0.00  0.00    +0.012 A 
ATOM     30  C   UNL     1      -3.362 -10.650  12.893  0.00  0.00    +0.046 A 
ATOM     31  C   UNL     1      -5.559 -10.631  11.888  0.00  0.00    +0.046 A 
ATOM     33  C   UNL     1      -4.171 -10.567  11.760  0.00  0.00    +0.130 A 
BRANCH  33   7
ATOM      7  O   UNL     1      -3.607 -10.425  10.529  0.00  0.00    -0.406 OA
BRANCH   7  34
ATOM      2  F   UNL     1      -2.063  -8.764  10.228  0.00  0.00    -0.133 F 
ATOM      3  F   UNL     1      -4.118  -8.238  10.753  0.00  0.00    -0.133 F 
ATOM      4  F   UNL     1      -3.687  -8.992   8.748  0.00  0.00    -0.133 F 
ATOM     34  C   UNL     1      -3.357  -9.108  10.052  0.00  0.00    +0.575 C 
ENDBRANCH   7  34
ENDBRANCH  33   7
ENDBRANCH  20  23
TORSDOF 4
ENDMDL
