MODEL 1
REMARK VINA RESULT:      -7.1      0.000      0.000
REMARK  Name = 51137827
REMARK  4 active torsions:
REMARK  status: ('A' for Active; 'I' for Inactive)
REMARK    1  A    between atoms: C_7  and  C_11
REMARK    2  A    between atoms: C_12  and  C_13
REMARK    3  A    between atoms: C_14  and  C_15
REMARK    4  A    between atoms: C_15  and  C_18
REMARK                            x       y       z     vdW  Elec       q    Type
REMARK                         _______ _______ _______ _____ _____    ______ ____
ROOT
ATOM      2  O   UNL     1      13.695  10.954  19.352  0.00  0.00    -0.270 OA
ATOM      3  N   UNL     1      13.872   8.720  19.960  0.00  0.00    -0.297 N 
ATOM      7  C   UNL     1      14.689   6.594  20.654  0.00  0.00    +0.095 C 
ATOM      8  C   UNL     1      14.787   7.591  21.819  0.00  0.00    +0.033 C 
ATOM      9  C   UNL     1      13.679   7.287  19.728  0.00  0.00    +0.121 C 
ATOM     10  C   UNL     1      14.682   8.953  21.146  0.00  0.00    +0.109 C 
ATOM     12  C   UNL     1      13.446   9.765  19.156  0.00  0.00    +0.247 C 
ENDROOT
BRANCH  12  13
ATOM      6  N   UNL     1      11.119   8.792  15.715  0.00  0.00    -0.263 NA
ATOM     13  C   UNL     1      12.644   9.428  17.970  0.00  0.00    +0.040 A 
ATOM     16  C   UNL     1      13.122   9.724  16.698  0.00  0.00    +0.033 A 
ATOM     17  C   UNL     1      11.405   8.815  18.116  0.00  0.00    +0.033 A 
ATOM     19  C   UNL     1      12.329   9.388  15.613  0.00  0.00    +0.111 A 
ATOM     20  C   UNL     1      10.688   8.521  16.967  0.00  0.00    +0.111 A 
ENDBRANCH  12  13
BRANCH   7  11
ATOM      1  O   UNL     1      17.123   6.385  20.899  0.00  0.00    -0.424 OA
ATOM      4  N   UNL     1      16.375   5.937  18.838  0.00  0.00    -0.112 NA
ATOM      5  N   UNL     1      17.749   5.782  18.838  0.00  0.00    -0.112 NA
ATOM     11  C   UNL     1      16.054   6.289  20.062  0.00  0.00    +0.222 A 
ATOM     14  C   UNL     1      18.142   6.054  20.060  0.00  0.00    +0.222 A 
BRANCH  14  15
ATOM     15  C   UNL     1      19.495   6.047  20.630  0.00  0.00    +0.132 C 
BRANCH  15  18
ATOM     18  C   UNL     1      19.755   7.130  21.672  0.00  0.00    -0.038 A 
ATOM     21  C   UNL     1      20.113   6.774  22.973  0.00  0.00    +0.004 A 
ATOM     22  C   UNL     1      19.635   8.476  21.325  0.00  0.00    +0.004 A 
ATOM     23  C   UNL     1      20.351   7.765  23.926  0.00  0.00    +0.000 A 
ATOM     24  C   UNL     1      19.873   9.466  22.277  0.00  0.00    +0.000 A 
ATOM     25  C   UNL     1      20.232   9.111  23.578  0.00  0.00    +0.000 A 
ENDBRANCH  15  18
ENDBRANCH  14  15
ENDBRANCH   7  11
TORSDOF 4
ENDMDL
MODEL 2
REMARK VINA RESULT:      -6.9      2.793      4.507
REMARK  Name = 51137827
REMARK  4 active torsions:
REMARK  status: ('A' for Active; 'I' for Inactive)
REMARK    1  A    between atoms: C_7  and  C_11
REMARK    2  A    between atoms: C_12  and  C_13
REMARK    3  A    between atoms: C_14  and  C_15
REMARK    4  A    between atoms: C_15  and  C_18
REMARK                            x       y       z     vdW  Elec       q    Type
REMARK                         _______ _______ _______ _____ _____    ______ ____
ROOT
ATOM      2  O   UNL     1      10.437   9.322  22.446  0.00  0.00    -0.270 OA
ATOM      3  N   UNL     1      11.675   9.575  20.498  0.00  0.00    -0.297 N 
ATOM      7  C   UNL     1      13.007   9.181  18.565  0.00  0.00    +0.095 C 
ATOM      8  C   UNL     1      11.619   8.553  18.372  0.00  0.00    +0.033 C 
ATOM      9  C   UNL     1      12.750  10.176  19.706  0.00  0.00    +0.121 C 
ATOM     10  C   UNL     1      11.055   8.470  19.784  0.00  0.00    +0.109 C 
ATOM     12  C   UNL     1      11.300   9.904  21.791  0.00  0.00    +0.247 C 
ENDROOT
BRANCH  12  13
ATOM      6  N   UNL     1      13.321  13.166  23.656  0.00  0.00    -0.263 NA
ATOM     13  C   UNL     1      11.995  11.029  22.436  0.00  0.00    +0.040 A 
ATOM     16  C   UNL     1      11.446  12.306  22.395  0.00  0.00    +0.033 A 
ATOM     17  C   UNL     1      13.207  10.820  23.086  0.00  0.00    +0.033 A 
ATOM     19  C   UNL     1      12.141  13.331  23.015  0.00  0.00    +0.111 A 
ATOM     20  C   UNL     1      13.823  11.912  23.675  0.00  0.00    +0.111 A 
ENDBRANCH  12  13
BRANCH   7  11
ATOM      1  O   UNL     1      14.568   8.038  20.078  0.00  0.00    -0.424 OA
ATOM      4  N   UNL     1      14.601   7.260  17.980  0.00  0.00    -0.112 NA
ATOM      5  N   UNL     1      15.517   6.535  18.720  0.00  0.00    -0.112 NA
ATOM     11  C   UNL     1      14.071   8.125  18.814  0.00  0.00    +0.222 A 
ATOM     14  C   UNL     1      15.463   7.023  19.937  0.00  0.00    +0.222 A 
BRANCH  14  15
ATOM     15  C   UNL     1      16.216   6.633  21.135  0.00  0.00    +0.132 C 
BRANCH  15  18
ATOM     18  C   UNL     1      17.684   7.048  21.131  0.00  0.00    -0.038 A 
ATOM     21  C   UNL     1      18.658   6.161  20.669  0.00  0.00    +0.004 A 
ATOM     22  C   UNL     1      18.053   8.313  21.588  0.00  0.00    +0.004 A 
ATOM     23  C   UNL     1      20.000   6.541  20.665  0.00  0.00    +0.000 A 
ATOM     24  C   UNL     1      19.394   8.693  21.584  0.00  0.00    +0.000 A 
ATOM     25  C   UNL     1      20.368   7.806  21.122  0.00  0.00    +0.000 A 
ENDBRANCH  15  18
ENDBRANCH  14  15
ENDBRANCH   7  11
TORSDOF 4
ENDMDL
MODEL 3
REMARK VINA RESULT:      -6.7      2.588      3.741
REMARK  Name = 51137827
REMARK  4 active torsions:
REMARK  status: ('A' for Active; 'I' for Inactive)
REMARK    1  A    between atoms: C_7  and  C_11
REMARK    2  A    between atoms: C_12  and  C_13
REMARK    3  A    between atoms: C_14  and  C_15
REMARK    4  A    between atoms: C_15  and  C_18
REMARK                            x       y       z     vdW  Elec       q    Type
REMARK                         _______ _______ _______ _____ _____    ______ ____
ROOT
ATOM      2  O   UNL     1      13.077   9.470  18.623  0.00  0.00    -0.270 OA
ATOM      3  N   UNL     1      14.591   9.444  20.383  0.00  0.00    -0.297 N 
ATOM      7  C   UNL     1      16.557   9.230  21.708  0.00  0.00    +0.095 C 
ATOM      8  C   UNL     1      16.715  10.410  20.737  0.00  0.00    +0.033 C 
ATOM      9  C   UNL     1      15.035   9.024  21.713  0.00  0.00    +0.121 C 
ATOM     10  C   UNL     1      15.645  10.162  19.682  0.00  0.00    +0.109 C 
ATOM     12  C   UNL     1      13.380   9.159  19.773  0.00  0.00    +0.247 C 
ENDROOT
BRANCH  12  13
ATOM      6  N   UNL     1      10.483   7.001  22.044  0.00  0.00    -0.263 NA
ATOM     13  C   UNL     1      12.382   8.415  20.557  0.00  0.00    +0.040 A 
ATOM     16  C   UNL     1      12.368   7.024  20.530  0.00  0.00    +0.033 A 
ATOM     17  C   UNL     1      11.447   9.099  21.327  0.00  0.00    +0.033 A 
ATOM     19  C   UNL     1      11.407   6.371  21.284  0.00  0.00    +0.111 A 
ATOM     20  C   UNL     1      10.528   8.352  22.045  0.00  0.00    +0.111 A 
ENDBRANCH  12  13
BRANCH   7  11
ATOM      1  O   UNL     1      18.746   8.237  21.207  0.00  0.00    -0.424 OA
ATOM      4  N   UNL     1      17.030   6.819  20.975  0.00  0.00    -0.112 NA
ATOM      5  N   UNL     1      18.192   6.137  20.666  0.00  0.00    -0.112 NA
ATOM     11  C   UNL     1      17.401   8.039  21.285  0.00  0.00    +0.222 A 
ATOM     14  C   UNL     1      19.167   7.003  20.815  0.00  0.00    +0.222 A 
BRANCH  14  15
ATOM     15  C   UNL     1      20.612   6.827  20.623  0.00  0.00    +0.132 C 
BRANCH  15  18
ATOM     18  C   UNL     1      21.204   5.603  21.314  0.00  0.00    -0.038 A 
ATOM     21  C   UNL     1      21.195   4.366  20.668  0.00  0.00    +0.004 A 
ATOM     22  C   UNL     1      21.754   5.720  22.590  0.00  0.00    +0.004 A 
ATOM     23  C   UNL     1      21.737   3.246  21.300  0.00  0.00    +0.000 A 
ATOM     24  C   UNL     1      22.296   4.600  23.222  0.00  0.00    +0.000 A 
ATOM     25  C   UNL     1      22.287   3.363  22.576  0.00  0.00    +0.000 A 
ENDBRANCH  15  18
ENDBRANCH  14  15
ENDBRANCH   7  11
TORSDOF 4
ENDMDL
MODEL 4
REMARK VINA RESULT:      -6.7      4.077      7.569
REMARK  Name = 51137827
REMARK  4 active torsions:
REMARK  status: ('A' for Active; 'I' for Inactive)
REMARK    1  A    between atoms: C_7  and  C_11
REMARK    2  A    between atoms: C_12  and  C_13
REMARK    3  A    between atoms: C_14  and  C_15
REMARK    4  A    between atoms: C_15  and  C_18
REMARK                            x       y       z     vdW  Elec       q    Type
REMARK                         _______ _______ _______ _____ _____    ______ ____
ROOT
ATOM      2  O   UNL     1      14.968   7.637  18.007  0.00  0.00    -0.270 OA
ATOM      3  N   UNL     1      13.864   7.090  19.974  0.00  0.00    -0.297 N 
ATOM      7  C   UNL     1      12.308   6.985  21.773  0.00  0.00    +0.095 C 
ATOM      8  C   UNL     1      11.655   6.443  20.493  0.00  0.00    +0.033 C 
ATOM      9  C   UNL     1      13.802   6.905  21.425  0.00  0.00    +0.121 C 
ATOM     10  C   UNL     1      12.543   6.972  19.375  0.00  0.00    +0.109 C 
ATOM     12  C   UNL     1      14.977   7.419  19.217  0.00  0.00    +0.247 C 
ENDROOT
BRANCH  12  13
ATOM      6  N   UNL     1      18.720   7.740  21.238  0.00  0.00    -0.263 NA
ATOM     13  C   UNL     1      16.267   7.529  19.915  0.00  0.00    +0.040 A 
ATOM     16  C   UNL     1      16.597   8.699  20.590  0.00  0.00    +0.033 A 
ATOM     17  C   UNL     1      17.162   6.465  19.900  0.00  0.00    +0.033 A 
ATOM     19  C   UNL     1      17.825   8.754  21.230  0.00  0.00    +0.111 A 
ATOM     20  C   UNL     1      18.364   6.620  20.571  0.00  0.00    +0.111 A 
ENDBRANCH  12  13
BRANCH   7  11
ATOM      1  O   UNL     1      12.663   9.384  22.159  0.00  0.00    -0.424 OA
ATOM      4  N   UNL     1      10.546   8.720  22.449  0.00  0.00    -0.112 NA
ATOM      5  N   UNL     1      10.606  10.080  22.694  0.00  0.00    -0.112 NA
ATOM     11  C   UNL     1      11.769   8.358  22.139  0.00  0.00    +0.222 A 
ATOM     14  C   UNL     1      11.859  10.423  22.512  0.00  0.00    +0.222 A 
BRANCH  14  15
ATOM     15  C   UNL     1      12.495  11.741  22.635  0.00  0.00    +0.132 C 
BRANCH  15  18
ATOM     18  C   UNL     1      11.725  12.745  23.486  0.00  0.00    -0.038 A 
ATOM     21  C   UNL     1      10.807  13.608  22.886  0.00  0.00    +0.004 A 
ATOM     22  C   UNL     1      11.938  12.801  24.864  0.00  0.00    +0.004 A 
ATOM     23  C   UNL     1      10.102  14.527  23.665  0.00  0.00    +0.000 A 
ATOM     24  C   UNL     1      11.233  13.719  25.642  0.00  0.00    +0.000 A 
ATOM     25  C   UNL     1      10.315  14.582  25.042  0.00  0.00    +0.000 A 
ENDBRANCH  15  18
ENDBRANCH  14  15
ENDBRANCH   7  11
TORSDOF 4
ENDMDL
MODEL 5
REMARK VINA RESULT:      -6.5     27.515     29.413
REMARK  Name = 51137827
REMARK  4 active torsions:
REMARK  status: ('A' for Active; 'I' for Inactive)
REMARK    1  A    between atoms: C_7  and  C_11
REMARK    2  A    between atoms: C_12  and  C_13
REMARK    3  A    between atoms: C_14  and  C_15
REMARK    4  A    between atoms: C_15  and  C_18
REMARK                            x       y       z     vdW  Elec       q    Type
REMARK                         _______ _______ _______ _____ _____    ______ ____
ROOT
ATOM      2  O   UNL     1      -6.525 -10.634  20.023  0.00  0.00    -0.270 OA
ATOM      3  N   UNL     1      -6.244 -11.889  18.090  0.00  0.00    -0.297 N 
ATOM      7  C   UNL     1      -5.328 -12.986  16.186  0.00  0.00    +0.095 C 
ATOM      8  C   UNL     1      -4.795 -13.645  17.467  0.00  0.00    +0.033 C 
ATOM      9  C   UNL     1      -6.565 -12.237  16.704  0.00  0.00    +0.121 C 
ATOM     10  C   UNL     1      -5.068 -12.610  18.551  0.00  0.00    +0.109 C 
ATOM     12  C   UNL     1      -6.875 -10.947  18.887  0.00  0.00    +0.247 C 
ENDROOT
BRANCH  12  13
ATOM      6  N   UNL     1     -10.276  -8.945  17.266  0.00  0.00    -0.263 NA
ATOM     13  C   UNL     1      -8.048 -10.258  18.326  0.00  0.00    +0.040 A 
ATOM     16  C   UNL     1      -7.878  -9.209  17.429  0.00  0.00    +0.033 A 
ATOM     17  C   UNL     1      -9.330 -10.651  18.694  0.00  0.00    +0.033 A 
ATOM     19  C   UNL     1      -9.014  -8.591  16.932  0.00  0.00    +0.111 A 
ATOM     20  C   UNL     1     -10.401  -9.968  18.140  0.00  0.00    +0.111 A 
ENDBRANCH  12  13
BRANCH   7  11
ATOM      1  O   UNL     1      -3.781 -12.608  14.317  0.00  0.00    -0.424 OA
ATOM      4  N   UNL     1      -3.717 -11.014  15.886  0.00  0.00    -0.112 NA
ATOM      5  N   UNL     1      -2.807 -10.680  14.900  0.00  0.00    -0.112 NA
ATOM     11  C   UNL     1      -4.263 -12.145  15.503  0.00  0.00    +0.222 A 
ATOM     14  C   UNL     1      -2.879 -11.638  14.005  0.00  0.00    +0.222 A 
BRANCH  14  15
ATOM     15  C   UNL     1      -2.139 -11.800  12.748  0.00  0.00    +0.132 C 
BRANCH  15  18
ATOM     18  C   UNL     1      -2.812 -11.185  11.526  0.00  0.00    -0.038 A 
ATOM     21  C   UNL     1      -2.588  -9.845  11.207  0.00  0.00    +0.004 A 
ATOM     22  C   UNL     1      -3.652 -11.961  10.726  0.00  0.00    +0.004 A 
ATOM     23  C   UNL     1      -3.204  -9.282  10.089  0.00  0.00    +0.000 A 
ATOM     24  C   UNL     1      -4.267 -11.399   9.609  0.00  0.00    +0.000 A 
ATOM     25  C   UNL     1      -4.043 -10.059   9.290  0.00  0.00    +0.000 A 
ENDBRANCH  15  18
ENDBRANCH  14  15
ENDBRANCH   7  11
TORSDOF 4
ENDMDL
MODEL 6
REMARK VINA RESULT:      -6.4      2.690      6.638
REMARK  Name = 51137827
REMARK  4 active torsions:
REMARK  status: ('A' for Active; 'I' for Inactive)
REMARK    1  A    between atoms: C_7  and  C_11
REMARK    2  A    between atoms: C_12  and  C_13
REMARK    3  A    between atoms: C_14  and  C_15
REMARK    4  A    between atoms: C_15  and  C_18
REMARK                            x       y       z     vdW  Elec       q    Type
REMARK                         _______ _______ _______ _____ _____    ______ ____
ROOT
ATOM      2  O   UNL     1      15.049   7.094  18.169  0.00  0.00    -0.270 OA
ATOM      3  N   UNL     1      13.939   7.188  20.206  0.00  0.00    -0.297 N 
ATOM      7  C   UNL     1      12.409   7.693  21.958  0.00  0.00    +0.095 C 
ATOM      8  C   UNL     1      11.697   6.872  20.871  0.00  0.00    +0.033 C 
ATOM      9  C   UNL     1      13.887   7.411  21.652  0.00  0.00    +0.121 C 
ATOM     10  C   UNL     1      12.604   7.009  19.656  0.00  0.00    +0.109 C 
ATOM     12  C   UNL     1      15.061   7.214  19.393  0.00  0.00    +0.247 C 
ENDROOT
BRANCH  12  13
ATOM      6  N   UNL     1      18.849   7.798  21.266  0.00  0.00    -0.263 NA
ATOM     13  C   UNL     1      16.366   7.415  20.040  0.00  0.00    +0.040 A 
ATOM     16  C   UNL     1      16.719   8.670  20.526  0.00  0.00    +0.033 A 
ATOM     17  C   UNL     1      17.254   6.352  20.167  0.00  0.00    +0.033 A 
ATOM     19  C   UNL     1      17.960   8.807  21.125  0.00  0.00    +0.111 A 
ATOM     20  C   UNL     1      18.471   6.594  20.782  0.00  0.00    +0.111 A 
ENDBRANCH  12  13
BRANCH   7  11
ATOM      1  O   UNL     1      12.872  10.048  21.441  0.00  0.00    -0.424 OA
ATOM      4  N   UNL     1      10.846   9.693  22.322  0.00  0.00    -0.112 NA
ATOM      5  N   UNL     1      10.975  11.048  22.079  0.00  0.00    -0.112 NA
ATOM     11  C   UNL     1      11.976   9.149  21.933  0.00  0.00    +0.222 A 
ATOM     14  C   UNL     1      12.173  11.208  21.565  0.00  0.00    +0.222 A 
BRANCH  14  15
ATOM     15  C   UNL     1      12.841  12.436  21.117  0.00  0.00    +0.132 C 
BRANCH  15  18
ATOM     18  C   UNL     1      13.853  12.240  19.994  0.00  0.00    -0.038 A 
ATOM     21  C   UNL     1      15.219  12.338  20.262  0.00  0.00    +0.004 A 
ATOM     22  C   UNL     1      13.415  11.962  18.699  0.00  0.00    +0.004 A 
ATOM     23  C   UNL     1      16.146  12.158  19.235  0.00  0.00    +0.000 A 
ATOM     24  C   UNL     1      14.341  11.782  17.673  0.00  0.00    +0.000 A 
ATOM     25  C   UNL     1      15.707  11.880  17.941  0.00  0.00    +0.000 A 
ENDBRANCH  15  18
ENDBRANCH  14  15
ENDBRANCH   7  11
TORSDOF 4
ENDMDL
MODEL 7
REMARK VINA RESULT:      -6.4      3.751      5.937
REMARK  Name = 51137827
REMARK  4 active torsions:
REMARK  status: ('A' for Active; 'I' for Inactive)
REMARK    1  A    between atoms: C_7  and  C_11
REMARK    2  A    between atoms: C_12  and  C_13
REMARK    3  A    between atoms: C_14  and  C_15
REMARK    4  A    between atoms: C_15  and  C_18
REMARK                            x       y       z     vdW  Elec       q    Type
REMARK                         _______ _______ _______ _____ _____    ______ ____
ROOT
ATOM      2  O   UNL     1      13.852  12.123  11.609  0.00  0.00    -0.270 OA
ATOM      3  N   UNL     1      14.236  12.073  13.899  0.00  0.00    -0.297 N 
ATOM      7  C   UNL     1      14.836  11.411  16.105  0.00  0.00    +0.095 C 
ATOM      8  C   UNL     1      16.100  11.531  15.240  0.00  0.00    +0.033 C 
ATOM      9  C   UNL     1      13.817  12.224  15.293  0.00  0.00    +0.121 C 
ATOM     10  C   UNL     1      15.571  11.502  13.813  0.00  0.00    +0.109 C 
ATOM     12  C   UNL     1      13.485  12.335  12.764  0.00  0.00    +0.247 C 
ENDROOT
BRANCH  12  13
ATOM      6  N   UNL     1       9.582  13.966  13.319  0.00  0.00    -0.263 NA
ATOM     13  C   UNL     1      12.139  12.898  12.953  0.00  0.00    +0.040 A 
ATOM     16  C   UNL     1      11.983  14.246  13.256  0.00  0.00    +0.033 A 
ATOM     17  C   UNL     1      11.018  12.083  12.833  0.00  0.00    +0.033 A 
ATOM     19  C   UNL     1      10.695  14.726  13.428  0.00  0.00    +0.111 A 
ATOM     20  C   UNL     1       9.774  12.661  13.023  0.00  0.00    +0.111 A 
ENDBRANCH  12  13
BRANCH   7  11
ATOM      1  O   UNL     1      14.617   9.526  17.663  0.00  0.00    -0.424 OA
ATOM      4  N   UNL     1      14.055   9.032  15.554  0.00  0.00    -0.112 NA
ATOM      5  N   UNL     1      13.886   7.893  16.320  0.00  0.00    -0.112 NA
ATOM     11  C   UNL     1      14.481   9.959  16.380  0.00  0.00    +0.222 A 
ATOM     14  C   UNL     1      14.225   8.228  17.543  0.00  0.00    +0.222 A 
BRANCH  14  15
ATOM     15  C   UNL     1      14.238   7.416  18.765  0.00  0.00    +0.132 C 
BRANCH  15  18
ATOM     18  C   UNL     1      15.625   7.141  19.336  0.00  0.00    -0.038 A 
ATOM     21  C   UNL     1      16.101   7.899  20.406  0.00  0.00    +0.004 A 
ATOM     22  C   UNL     1      16.418   6.133  18.788  0.00  0.00    +0.004 A 
ATOM     23  C   UNL     1      17.370   7.648  20.929  0.00  0.00    +0.000 A 
ATOM     24  C   UNL     1      17.687   5.882  19.310  0.00  0.00    +0.000 A 
ATOM     25  C   UNL     1      18.163   6.639  20.381  0.00  0.00    +0.000 A 
ENDBRANCH  15  18
ENDBRANCH  14  15
ENDBRANCH   7  11
TORSDOF 4
ENDMDL
MODEL 8
REMARK VINA RESULT:      -6.3     27.185     29.063
REMARK  Name = 51137827
REMARK  4 active torsions:
REMARK  status: ('A' for Active; 'I' for Inactive)
REMARK    1  A    between atoms: C_7  and  C_11
REMARK    2  A    between atoms: C_12  and  C_13
REMARK    3  A    between atoms: C_14  and  C_15
REMARK    4  A    between atoms: C_15  and  C_18
REMARK                            x       y       z     vdW  Elec       q    Type
REMARK                         _______ _______ _______ _____ _____    ______ ____
ROOT
ATOM      2  O   UNL     1      -3.079 -12.926  10.967  0.00  0.00    -0.270 OA
ATOM      3  N   UNL     1      -2.713 -11.593  12.833  0.00  0.00    -0.297 N 
ATOM      7  C   UNL     1      -2.521 -10.778  15.061  0.00  0.00    +0.095 C 
ATOM      8  C   UNL     1      -1.443 -11.843  14.806  0.00  0.00    +0.033 C 
ATOM      9  C   UNL     1      -2.923 -10.385  13.632  0.00  0.00    +0.121 C 
ATOM     10  C   UNL     1      -1.944 -12.582  13.572  0.00  0.00    +0.109 C 
ATOM     12  C   UNL     1      -3.220 -11.865  11.572  0.00  0.00    +0.247 C 
ENDROOT
BRANCH  12  13
ATOM      6  N   UNL     1      -5.480  -8.794   9.657  0.00  0.00    -0.263 NA
ATOM     13  C   UNL     1      -4.000 -10.807  10.910  0.00  0.00    +0.040 A 
ATOM     16  C   UNL     1      -3.354  -9.833  10.155  0.00  0.00    +0.033 A 
ATOM     17  C   UNL     1      -5.384 -10.775  11.038  0.00  0.00    +0.033 A 
ATOM     19  C   UNL     1      -4.133  -8.857   9.554  0.00  0.00    +0.111 A 
ATOM     20  C   UNL     1      -6.071  -9.757  10.398  0.00  0.00    +0.111 A 
ENDBRANCH  12  13
BRANCH   7  11
ATOM      1  O   UNL     1      -4.038 -10.493  16.971  0.00  0.00    -0.424 OA
ATOM      4  N   UNL     1      -4.270 -12.449  15.909  0.00  0.00    -0.112 NA
ATOM      5  N   UNL     1      -5.176 -12.419  16.952  0.00  0.00    -0.112 NA
ATOM     11  C   UNL     1      -3.628 -11.305  15.957  0.00  0.00    +0.222 A 
ATOM     14  C   UNL     1      -5.005 -11.260  17.544  0.00  0.00    +0.222 A 
BRANCH  14  15
ATOM     15  C   UNL     1      -5.697 -10.693  18.708  0.00  0.00    +0.132 C 
BRANCH  15  18
ATOM     18  C   UNL     1      -7.167 -10.360  18.477  0.00  0.00    -0.038 A 
ATOM     21  C   UNL     1      -8.152 -10.987  19.242  0.00  0.00    +0.004 A 
ATOM     22  C   UNL     1      -7.528  -9.429  17.503  0.00  0.00    +0.004 A 
ATOM     23  C   UNL     1      -9.497 -10.682  19.031  0.00  0.00    +0.000 A 
ATOM     24  C   UNL     1      -8.872  -9.124  17.293  0.00  0.00    +0.000 A 
ATOM     25  C   UNL     1      -9.857  -9.751  18.057  0.00  0.00    +0.000 A 
ENDBRANCH  15  18
ENDBRANCH  14  15
ENDBRANCH   7  11
TORSDOF 4
ENDMDL
MODEL 9
REMARK VINA RESULT:      -6.2     28.372     30.285
REMARK  Name = 51137827
REMARK  4 active torsions:
REMARK  status: ('A' for Active; 'I' for Inactive)
REMARK    1  A    between atoms: C_7  and  C_11
REMARK    2  A    between atoms: C_12  and  C_13
REMARK    3  A    between atoms: C_14  and  C_15
REMARK    4  A    between atoms: C_15  and  C_18
REMARK                            x       y       z     vdW  Elec       q    Type
REMARK                         _______ _______ _______ _____ _____    ______ ____
ROOT
ATOM      2  O   UNL     1      -4.433 -13.756  15.166  0.00  0.00    -0.270 OA
ATOM      3  N   UNL     1      -4.632 -12.029  16.706  0.00  0.00    -0.297 N 
ATOM      7  C   UNL     1      -5.250 -10.685  18.570  0.00  0.00    +0.095 C 
ATOM      8  C   UNL     1      -4.424 -11.888  19.052  0.00  0.00    +0.033 C 
ATOM      9  C   UNL     1      -4.901 -10.638  17.075  0.00  0.00    +0.121 C 
ATOM     10  C   UNL     1      -4.489 -12.866  17.887  0.00  0.00    +0.109 C 
ATOM     12  C   UNL     1      -4.590 -12.565  15.428  0.00  0.00    +0.247 C 
ENDROOT
BRANCH  12  13
ATOM      6  N   UNL     1      -5.081  -9.887  12.143  0.00  0.00    -0.263 NA
ATOM     13  C   UNL     1      -4.759 -11.640  14.296  0.00  0.00    +0.040 A 
ATOM     16  C   UNL     1      -6.033 -11.248  13.901  0.00  0.00    +0.033 A 
ATOM     17  C   UNL     1      -3.646 -11.157  13.617  0.00  0.00    +0.033 A 
ATOM     19  C   UNL     1      -6.139 -10.377  12.828  0.00  0.00    +0.111 A 
ATOM     20  C   UNL     1      -3.859 -10.291  12.557  0.00  0.00    +0.111 A 
ENDBRANCH  12  13
BRANCH   7  11
ATOM      1  O   UNL     1      -7.608 -10.751  17.891  0.00  0.00    -0.424 OA
ATOM      4  N   UNL     1      -7.286 -11.046  20.086  0.00  0.00    -0.112 NA
ATOM      5  N   UNL     1      -8.645 -11.107  19.842  0.00  0.00    -0.112 NA
ATOM     11  C   UNL     1      -6.720 -10.838  18.919  0.00  0.00    +0.222 A 
ATOM     14  C   UNL     1      -8.786 -10.930  18.549  0.00  0.00    +0.222 A 
BRANCH  14  15
ATOM     15  C   UNL     1     -10.009 -10.900  17.737  0.00  0.00    +0.132 C 
BRANCH  15  18
ATOM     18  C   UNL     1     -10.213  -9.620  16.934  0.00  0.00    -0.038 A 
ATOM     21  C   UNL     1     -10.486  -8.420  17.592  0.00  0.00    +0.004 A 
ATOM     22  C   UNL     1     -10.125  -9.648  15.542  0.00  0.00    +0.004 A 
ATOM     23  C   UNL     1     -10.672  -7.249  16.858  0.00  0.00    +0.000 A 
ATOM     24  C   UNL     1     -10.311  -8.477  14.808  0.00  0.00    +0.000 A 
ATOM     25  C   UNL     1     -10.584  -7.277  15.466  0.00  0.00    +0.000 A 
ENDBRANCH  15  18
ENDBRANCH  14  15
ENDBRANCH   7  11
TORSDOF 4
ENDMDL
MODEL 10
REMARK VINA RESULT:      -6.1     26.514     30.394
REMARK  Name = 51137827
REMARK  4 active torsions:
REMARK  status: ('A' for Active; 'I' for Inactive)
REMARK    1  A    between atoms: C_7  and  C_11
REMARK    2  A    between atoms: C_12  and  C_13
REMARK    3  A    between atoms: C_14  and  C_15
REMARK    4  A    between atoms: C_15  and  C_18
REMARK                            x       y       z     vdW  Elec       q    Type
REMARK                         _______ _______ _______ _____ _____    ______ ____
ROOT
ATOM      2  O   UNL     1      -4.181 -13.775  15.629  0.00  0.00    -0.270 OA
ATOM      3  N   UNL     1      -4.930 -12.053  16.994  0.00  0.00    -0.297 N 
ATOM      7  C   UNL     1      -6.285 -10.553  18.252  0.00  0.00    +0.095 C 
ATOM      8  C   UNL     1      -6.332 -11.950  18.889  0.00  0.00    +0.033 C 
ATOM      9  C   UNL     1      -5.023 -10.644  17.381  0.00  0.00    +0.121 C 
ATOM     10  C   UNL     1      -5.834 -12.873  17.785  0.00  0.00    +0.109 C 
ATOM     12  C   UNL     1      -4.172 -12.593  15.967  0.00  0.00    +0.247 C 
ENDROOT
BRANCH  12  13
ATOM      6  N   UNL     1      -1.636  -9.948  13.780  0.00  0.00    -0.263 NA
ATOM     13  C   UNL     1      -3.299 -11.679  15.213  0.00  0.00    +0.040 A 
ATOM     16  C   UNL     1      -3.622 -11.323  13.908  0.00  0.00    +0.033 A 
ATOM     17  C   UNL     1      -2.146 -11.171  15.802  0.00  0.00    +0.033 A 
ATOM     19  C   UNL     1      -2.765 -10.462  13.241  0.00  0.00    +0.111 A 
ATOM     20  C   UNL     1      -1.356 -10.317  15.049  0.00  0.00    +0.111 A 
ENDBRANCH  12  13
BRANCH   7  11
ATOM      1  O   UNL     1      -8.639  -9.858  18.311  0.00  0.00    -0.424 OA
ATOM      4  N   UNL     1      -7.853 -10.228  16.249  0.00  0.00    -0.112 NA
ATOM      5  N   UNL     1      -9.177  -9.845  16.140  0.00  0.00    -0.112 NA
ATOM     11  C   UNL     1      -7.582 -10.220  17.534  0.00  0.00    +0.222 A 
ATOM     14  C   UNL     1      -9.594  -9.639  17.367  0.00  0.00    +0.222 A 
BRANCH  14  15
ATOM     15  C   UNL     1     -10.916  -9.216  17.846  0.00  0.00    +0.132 C 
BRANCH  15  18
ATOM     18  C   UNL     1     -11.599  -8.158  16.986  0.00  0.00    -0.038 A 
ATOM     21  C   UNL     1     -10.980  -6.926  16.775  0.00  0.00    +0.004 A 
ATOM     22  C   UNL     1     -12.842  -8.423  16.410  0.00  0.00    +0.004 A 
ATOM     23  C   UNL     1     -11.605  -5.958  15.988  0.00  0.00    +0.000 A 
ATOM     24  C   UNL     1     -13.466  -7.456  15.624  0.00  0.00    +0.000 A 
ATOM     25  C   UNL     1     -12.847  -6.223  15.412  0.00  0.00    +0.000 A 
ENDBRANCH  15  18
ENDBRANCH  14  15
ENDBRANCH   7  11
TORSDOF 4
ENDMDL
