MODEL 1
REMARK VINA RESULT:      -5.6      0.000      0.000
REMARK  Name = 56775604
REMARK  7 active torsions:
REMARK  status: ('A' for Active; 'I' for Inactive)
REMARK    1  A    between atoms: O_3  and  C_20
REMARK    2  A    between atoms: N_4  and  C_7
REMARK    3  A    between atoms: N_4  and  C_8
REMARK    4  A    between atoms: N_5  and  C_17
REMARK    5  A    between atoms: C_7  and  C_11
REMARK    6  A    between atoms: C_11  and  C_16
REMARK    7  A    between atoms: C_19  and  C_20
REMARK                            x       y       z     vdW  Elec       q    Type
REMARK                         _______ _______ _______ _____ _____    ______ ____
ROOT
ATOM      1  O   UNL     1      12.220   9.092   5.672  0.00  0.00    -0.376 OA
ATOM      7  C   UNL     1      11.099   7.296   5.407  0.00  0.00    +0.072 C 
ATOM      9  C   UNL     1      11.384   8.567   4.616  0.00  0.00    +0.184 C 
ATOM     10  C   UNL     1      11.914   7.956   6.513  0.00  0.00    +0.184 C 
ENDROOT
BRANCH   7   4
ATOM      4  N   UNL     1      11.883   6.198   4.834  0.00  0.00    -0.304 NA
ATOM     21  H   UNL     1      12.882   6.401   4.811  0.00  0.00    +0.123 HD
BRANCH   4   8
ATOM      5  N   UNL     1      11.625   4.379   1.001  0.00  0.00    -0.305 NA
ATOM      8  C   UNL     1      11.423   5.932   3.473  0.00  0.00    +0.057 C 
ATOM     12  C   UNL     1      12.549   6.152   2.460  0.00  0.00    +0.034 C 
ATOM     13  C   UNL     1      10.894   4.500   3.363  0.00  0.00    +0.034 C 
ATOM     14  C   UNL     1      12.100   5.769   1.047  0.00  0.00    +0.085 C 
ATOM     15  C   UNL     1      10.498   4.170   1.921  0.00  0.00    +0.085 C 
ATOM     17  C   UNL     1      11.247   4.012  -0.363  0.00  0.00    +0.104 C 
ENDBRANCH   4   8
ENDBRANCH   7   4
BRANCH   7  11
ATOM     11  C   UNL     1       9.676   6.916   5.682  0.00  0.00    +0.085 C 
BRANCH  11  16
ATOM      2  O   UNL     1       9.757   4.105   7.951  0.00  0.00    -0.357 OA
ATOM      6  N   UNL     1       9.953   4.686   6.703  0.00  0.00    -0.083 NA
ATOM     16  C   UNL     1       9.591   5.962   6.856  0.00  0.00    +0.086 A 
ATOM     18  C   UNL     1       9.161   6.243   8.164  0.00  0.00    +0.073 A 
ATOM     19  C   UNL     1       9.285   5.042   8.812  0.00  0.00    +0.163 A 
BRANCH  19  20
ATOM     20  C   UNL     1       9.020   4.596  10.185  0.00  0.00    +0.232 C 
BRANCH  20   3
ATOM      3  O   UNL     1      10.238   4.534  10.932  0.00  0.00    -0.387 OA
ATOM     22  H   UNL     1      10.165   5.188  11.647  0.00  0.00    +0.210 HD
ENDBRANCH  20   3
ENDBRANCH  19  20
ENDBRANCH  11  16
ENDBRANCH   7  11
TORSDOF 6
ENDMDL
MODEL 2
REMARK VINA RESULT:      -5.0     22.827     24.670
REMARK  Name = 56775604
REMARK  7 active torsions:
REMARK  status: ('A' for Active; 'I' for Inactive)
REMARK    1  A    between atoms: O_3  and  C_20
REMARK    2  A    between atoms: N_4  and  C_7
REMARK    3  A    between atoms: N_4  and  C_8
REMARK    4  A    between atoms: N_5  and  C_17
REMARK    5  A    between atoms: C_7  and  C_11
REMARK    6  A    between atoms: C_11  and  C_16
REMARK    7  A    between atoms: C_19  and  C_20
REMARK                            x       y       z     vdW  Elec       q    Type
REMARK                         _______ _______ _______ _____ _____    ______ ____
ROOT
ATOM      1  O   UNL     1      -0.728 -11.141  15.552  0.00  0.00    -0.376 OA
ATOM      7  C   UNL     1      -2.787 -11.303  15.018  0.00  0.00    +0.072 C 
ATOM      9  C   UNL     1      -1.966 -10.676  16.138  0.00  0.00    +0.184 C 
ATOM     10  C   UNL     1      -1.453 -11.839  14.514  0.00  0.00    +0.184 C 
ENDROOT
BRANCH   7   4
ATOM      4  N   UNL     1      -3.242 -10.241  14.114  0.00  0.00    -0.304 NA
ATOM     21  H   UNL     1      -3.884  -9.591  14.567  0.00  0.00    +0.123 HD
BRANCH   4   8
ATOM      5  N   UNL     1      -5.066 -10.551  10.288  0.00  0.00    -0.305 NA
ATOM      8  C   UNL     1      -3.910 -10.840  12.961  0.00  0.00    +0.057 C 
ATOM     12  C   UNL     1      -5.282 -10.201  12.728  0.00  0.00    +0.034 C 
ATOM     13  C   UNL     1      -3.043 -10.684  11.708  0.00  0.00    +0.034 C 
ATOM     14  C   UNL     1      -5.934 -10.749  11.457  0.00  0.00    +0.085 C 
ATOM     15  C   UNL     1      -3.769 -11.217  10.469  0.00  0.00    +0.085 C 
ATOM     17  C   UNL     1      -5.723 -11.033   9.074  0.00  0.00    +0.104 C 
ENDBRANCH   4   8
ENDBRANCH   7   4
BRANCH   7  11
ATOM     11  C   UNL     1      -3.873 -12.273  15.370  0.00  0.00    +0.085 C 
BRANCH  11  16
ATOM      2  O   UNL     1      -6.132 -10.496  17.560  0.00  0.00    -0.357 OA
ATOM      6  N   UNL     1      -5.525 -10.708  16.328  0.00  0.00    -0.083 NA
ATOM     16  C   UNL     1      -4.711 -11.750  16.519  0.00  0.00    +0.086 A 
ATOM     18  C   UNL     1      -4.762 -12.232  17.838  0.00  0.00    +0.073 A 
ATOM     19  C   UNL     1      -5.670 -11.409  18.451  0.00  0.00    +0.163 A 
BRANCH  19  20
ATOM     20  C   UNL     1      -6.210 -11.328  19.812  0.00  0.00    +0.232 C 
BRANCH  20   3
ATOM      3  O   UNL     1      -6.775 -10.035  20.048  0.00  0.00    -0.387 OA
ATOM     22  H   UNL     1      -7.084  -9.701  19.189  0.00  0.00    +0.210 HD
ENDBRANCH  20   3
ENDBRANCH  19  20
ENDBRANCH  11  16
ENDBRANCH   7  11
TORSDOF 6
ENDMDL
MODEL 3
REMARK VINA RESULT:      -5.0      2.783      3.568
REMARK  Name = 56775604
REMARK  7 active torsions:
REMARK  status: ('A' for Active; 'I' for Inactive)
REMARK    1  A    between atoms: O_3  and  C_20
REMARK    2  A    between atoms: N_4  and  C_7
REMARK    3  A    between atoms: N_4  and  C_8
REMARK    4  A    between atoms: N_5  and  C_17
REMARK    5  A    between atoms: C_7  and  C_11
REMARK    6  A    between atoms: C_11  and  C_16
REMARK    7  A    between atoms: C_19  and  C_20
REMARK                            x       y       z     vdW  Elec       q    Type
REMARK                         _______ _______ _______ _____ _____    ______ ____
ROOT
ATOM      1  O   UNL     1       8.034   8.073   4.390  0.00  0.00    -0.376 OA
ATOM      7  C   UNL     1       9.960   7.355   4.960  0.00  0.00    +0.072 C 
ATOM      9  C   UNL     1       9.192   7.598   3.667  0.00  0.00    +0.184 C 
ATOM     10  C   UNL     1       8.671   7.776   5.654  0.00  0.00    +0.184 C 
ENDROOT
BRANCH   7   4
ATOM      4  N   UNL     1      10.956   8.419   5.126  0.00  0.00    -0.304 NA
ATOM     21  H   UNL     1      10.760   9.231   4.541  0.00  0.00    +0.123 HD
BRANCH   4   8
ATOM      5  N   UNL     1      15.083   8.397   4.111  0.00  0.00    -0.305 NA
ATOM      8  C   UNL     1      12.280   7.901   4.790  0.00  0.00    +0.057 C 
ATOM     12  C   UNL     1      12.714   8.365   3.397  0.00  0.00    +0.034 C 
ATOM     13  C   UNL     1      13.305   8.352   5.833  0.00  0.00    +0.034 C 
ATOM     14  C   UNL     1      14.144   7.915   3.089  0.00  0.00    +0.085 C 
ATOM     15  C   UNL     1      14.717   7.902   5.446  0.00  0.00    +0.085 C 
ATOM     17  C   UNL     1      16.451   8.002   3.777  0.00  0.00    +0.104 C 
ENDBRANCH   4   8
ENDBRANCH   7   4
BRANCH   7  11
ATOM     11  C   UNL     1      10.517   5.990   5.227  0.00  0.00    +0.085 C 
BRANCH  11  16
ATOM      2  O   UNL     1      10.917   5.642   8.801  0.00  0.00    -0.357 OA
ATOM      6  N   UNL     1      11.297   6.148   7.563  0.00  0.00    -0.083 NA
ATOM     16  C   UNL     1      10.413   5.644   6.698  0.00  0.00    +0.086 A 
ATOM     18  C   UNL     1       9.462   4.822   7.326  0.00  0.00    +0.073 A 
ATOM     19  C   UNL     1       9.823   4.854   8.647  0.00  0.00    +0.163 A 
BRANCH  19  20
ATOM     20  C   UNL     1       9.286   4.233   9.863  0.00  0.00    +0.232 C 
BRANCH  20   3
ATOM      3  O   UNL     1      10.114   4.543  10.987  0.00  0.00    -0.387 OA
ATOM     22  H   UNL     1       9.581   4.381  11.784  0.00  0.00    +0.210 HD
ENDBRANCH  20   3
ENDBRANCH  19  20
ENDBRANCH  11  16
ENDBRANCH   7  11
TORSDOF 6
ENDMDL
MODEL 4
REMARK VINA RESULT:      -4.9     22.437     25.000
REMARK  Name = 56775604
REMARK  7 active torsions:
REMARK  status: ('A' for Active; 'I' for Inactive)
REMARK    1  A    between atoms: O_3  and  C_20
REMARK    2  A    between atoms: N_4  and  C_7
REMARK    3  A    between atoms: N_4  and  C_8
REMARK    4  A    between atoms: N_5  and  C_17
REMARK    5  A    between atoms: C_7  and  C_11
REMARK    6  A    between atoms: C_11  and  C_16
REMARK    7  A    between atoms: C_19  and  C_20
REMARK                            x       y       z     vdW  Elec       q    Type
REMARK                         _______ _______ _______ _____ _____    ______ ____
ROOT
ATOM      1  O   UNL     1      -1.461 -12.361  13.579  0.00  0.00    -0.376 OA
ATOM      7  C   UNL     1      -3.405 -11.516  13.828  0.00  0.00    +0.072 C 
ATOM      9  C   UNL     1      -2.622 -12.708  14.367  0.00  0.00    +0.184 C 
ATOM     10  C   UNL     1      -2.178 -11.270  12.957  0.00  0.00    +0.184 C 
ENDROOT
BRANCH   7   4
ATOM      4  N   UNL     1      -3.463 -10.481  14.864  0.00  0.00    -0.304 NA
ATOM     21  H   UNL     1      -2.547 -10.272  15.260  0.00  0.00    +0.123 HD
BRANCH   4   8
ATOM      5  N   UNL     1      -5.486 -10.498  18.602  0.00  0.00    -0.305 NA
ATOM      8  C   UNL     1      -4.353 -10.919  15.937  0.00  0.00    +0.057 C 
ATOM     12  C   UNL     1      -3.567 -11.218  17.216  0.00  0.00    +0.034 C 
ATOM     13  C   UNL     1      -5.413  -9.849  16.215  0.00  0.00    +0.034 C 
ATOM     14  C   UNL     1      -4.508 -11.571  18.370  0.00  0.00    +0.085 C 
ATOM     15  C   UNL     1      -6.296 -10.246  17.402  0.00  0.00    +0.085 C 
ATOM     17  C   UNL     1      -6.345 -10.827  19.739  0.00  0.00    +0.104 C 
ENDBRANCH   4   8
ENDBRANCH   7   4
BRANCH   7  11
ATOM     11  C   UNL     1      -4.728 -11.756  13.168  0.00  0.00    +0.085 C 
BRANCH  11  16
ATOM      2  O   UNL     1      -6.056  -8.658  11.866  0.00  0.00    -0.357 OA
ATOM      6  N   UNL     1      -5.861  -9.581  12.887  0.00  0.00    -0.083 NA
ATOM     16  C   UNL     1      -5.139 -10.560  12.335  0.00  0.00    +0.086 A 
ATOM     18  C   UNL     1      -4.851 -10.312  10.982  0.00  0.00    +0.073 A 
ATOM     19  C   UNL     1      -5.451  -9.105  10.736  0.00  0.00    +0.163 A 
BRANCH  19  20
ATOM     20  C   UNL     1      -5.559  -8.246   9.552  0.00  0.00    +0.232 C 
BRANCH  20   3
ATOM      3  O   UNL     1      -4.446  -8.460   8.679  0.00  0.00    -0.387 OA
ATOM     22  H   UNL     1      -3.893  -9.147   9.088  0.00  0.00    +0.210 HD
ENDBRANCH  20   3
ENDBRANCH  19  20
ENDBRANCH  11  16
ENDBRANCH   7  11
TORSDOF 6
ENDMDL
MODEL 5
REMARK VINA RESULT:      -4.9     23.172     25.603
REMARK  Name = 56775604
REMARK  7 active torsions:
REMARK  status: ('A' for Active; 'I' for Inactive)
REMARK    1  A    between atoms: O_3  and  C_20
REMARK    2  A    between atoms: N_4  and  C_7
REMARK    3  A    between atoms: N_4  and  C_8
REMARK    4  A    between atoms: N_5  and  C_17
REMARK    5  A    between atoms: C_7  and  C_11
REMARK    6  A    between atoms: C_11  and  C_16
REMARK    7  A    between atoms: C_19  and  C_20
REMARK                            x       y       z     vdW  Elec       q    Type
REMARK                         _______ _______ _______ _____ _____    ______ ____
ROOT
ATOM      1  O   UNL     1      -4.189  -9.727  11.683  0.00  0.00    -0.376 OA
ATOM      7  C   UNL     1      -4.242 -11.009  13.388  0.00  0.00    +0.072 C 
ATOM      9  C   UNL     1      -3.274 -10.690  12.254  0.00  0.00    +0.184 C 
ATOM     10  C   UNL     1      -5.190 -10.052  12.675  0.00  0.00    +0.184 C 
ENDROOT
BRANCH   7   4
ATOM      4  N   UNL     1      -3.759 -10.369  14.616  0.00  0.00    -0.304 NA
ATOM     21  H   UNL     1      -2.772 -10.558  14.793  0.00  0.00    +0.123 HD
BRANCH   4   8
ATOM      5  N   UNL     1      -5.426 -10.513  18.522  0.00  0.00    -0.305 NA
ATOM      8  C   UNL     1      -4.545 -10.845  15.752  0.00  0.00    +0.057 C 
ATOM     12  C   UNL     1      -3.642 -11.179  16.943  0.00  0.00    +0.034 C 
ATOM     13  C   UNL     1      -5.578  -9.791  16.160  0.00  0.00    +0.034 C 
ATOM     14  C   UNL     1      -4.471 -11.572  18.168  0.00  0.00    +0.085 C 
ATOM     15  C   UNL     1      -6.345 -10.230  17.411  0.00  0.00    +0.085 C 
ATOM     17  C   UNL     1      -6.176 -10.882  19.723  0.00  0.00    +0.104 C 
ENDBRANCH   4   8
ENDBRANCH   7   4
BRANCH   7  11
ATOM     11  C   UNL     1      -4.667 -12.430  13.600  0.00  0.00    +0.085 C 
BRANCH  11  16
ATOM      2  O   UNL     1      -1.594 -14.306  13.892  0.00  0.00    -0.357 OA
ATOM      6  N   UNL     1      -2.483 -13.326  14.318  0.00  0.00    -0.083 NA
ATOM     16  C   UNL     1      -3.492 -13.373  13.445  0.00  0.00    +0.086 A 
ATOM     18  C   UNL     1      -3.298 -14.352  12.456  0.00  0.00    +0.073 A 
ATOM     19  C   UNL     1      -2.090 -14.910  12.782  0.00  0.00    +0.163 A 
BRANCH  19  20
ATOM     20  C   UNL     1      -1.272 -15.977  12.195  0.00  0.00    +0.232 C 
BRANCH  20   3
ATOM      3  O   UNL     1       0.115 -15.636  12.264  0.00  0.00    -0.387 OA
ATOM     22  H   UNL     1       0.286 -15.328  13.171  0.00  0.00    +0.210 HD
ENDBRANCH  20   3
ENDBRANCH  19  20
ENDBRANCH  11  16
ENDBRANCH   7  11
TORSDOF 6
ENDMDL
MODEL 6
REMARK VINA RESULT:      -4.9     24.981     27.803
REMARK  Name = 56775604
REMARK  7 active torsions:
REMARK  status: ('A' for Active; 'I' for Inactive)
REMARK    1  A    between atoms: O_3  and  C_20
REMARK    2  A    between atoms: N_4  and  C_7
REMARK    3  A    between atoms: N_4  and  C_8
REMARK    4  A    between atoms: N_5  and  C_17
REMARK    5  A    between atoms: C_7  and  C_11
REMARK    6  A    between atoms: C_11  and  C_16
REMARK    7  A    between atoms: C_19  and  C_20
REMARK                            x       y       z     vdW  Elec       q    Type
REMARK                         _______ _______ _______ _____ _____    ______ ____
ROOT
ATOM      1  O   UNL     1      -9.701 -11.525  20.312  0.00  0.00    -0.376 OA
ATOM      7  C   UNL     1      -9.085 -10.603  18.489  0.00  0.00    +0.072 C 
ATOM      9  C   UNL     1     -10.002 -10.270  19.661  0.00  0.00    +0.184 C 
ATOM     10  C   UNL     1      -8.893 -11.943  19.188  0.00  0.00    +0.184 C 
ENDROOT
BRANCH   7   4
ATOM      4  N   UNL     1      -7.851  -9.821  18.618  0.00  0.00    -0.304 NA
ATOM     21  H   UNL     1      -7.960  -8.861  18.291  0.00  0.00    +0.123 HD
BRANCH   4   8
ATOM      5  N   UNL     1      -4.048 -10.434  16.823  0.00  0.00    -0.305 NA
ATOM      8  C   UNL     1      -6.788 -10.465  17.850  0.00  0.00    +0.057 C 
ATOM     12  C   UNL     1      -6.372  -9.600  16.657  0.00  0.00    +0.034 C 
ATOM     13  C   UNL     1      -5.576 -10.734  18.746  0.00  0.00    +0.034 C 
ATOM     14  C   UNL     1      -5.185 -10.221  15.916  0.00  0.00    +0.085 C 
ATOM     15  C   UNL     1      -4.414 -11.318  17.938  0.00  0.00    +0.085 C 
ATOM     17  C   UNL     1      -2.906 -10.980  16.091  0.00  0.00    +0.104 C 
ENDBRANCH   4   8
ENDBRANCH   7   4
BRANCH   7  11
ATOM     11  C   UNL     1      -9.647 -10.581  17.101  0.00  0.00    +0.085 C 
BRANCH  11  16
ATOM      2  O   UNL     1     -10.069  -7.080  16.312  0.00  0.00    -0.357 OA
ATOM      6  N   UNL     1      -9.290  -8.181  16.649  0.00  0.00    -0.083 NA
ATOM     16  C   UNL     1     -10.151  -9.198  16.745  0.00  0.00    +0.086 A 
ATOM     18  C   UNL     1     -11.473  -8.803  16.483  0.00  0.00    +0.073 A 
ATOM     19  C   UNL     1     -11.368  -7.463  16.217  0.00  0.00    +0.163 A 
BRANCH  19  20
ATOM     20  C   UNL     1     -12.336  -6.418  15.866  0.00  0.00    +0.232 C 
BRANCH  20   3
ATOM      3  O   UNL     1     -11.709  -5.404  15.075  0.00  0.00    -0.387 OA
ATOM     22  H   UNL     1     -10.898  -5.141  15.543  0.00  0.00    +0.210 HD
ENDBRANCH  20   3
ENDBRANCH  19  20
ENDBRANCH  11  16
ENDBRANCH   7  11
TORSDOF 6
ENDMDL
MODEL 7
REMARK VINA RESULT:      -4.9     22.372     25.571
REMARK  Name = 56775604
REMARK  7 active torsions:
REMARK  status: ('A' for Active; 'I' for Inactive)
REMARK    1  A    between atoms: O_3  and  C_20
REMARK    2  A    between atoms: N_4  and  C_7
REMARK    3  A    between atoms: N_4  and  C_8
REMARK    4  A    between atoms: N_5  and  C_17
REMARK    5  A    between atoms: C_7  and  C_11
REMARK    6  A    between atoms: C_11  and  C_16
REMARK    7  A    between atoms: C_19  and  C_20
REMARK                            x       y       z     vdW  Elec       q    Type
REMARK                         _______ _______ _______ _____ _____    ______ ____
ROOT
ATOM      1  O   UNL     1      -5.786 -12.905  18.631  0.00  0.00    -0.376 OA
ATOM      7  C   UNL     1      -4.855 -11.551  17.270  0.00  0.00    +0.072 C 
ATOM      9  C   UNL     1      -4.651 -12.013  18.708  0.00  0.00    +0.184 C 
ATOM     10  C   UNL     1      -6.093 -12.439  17.297  0.00  0.00    +0.184 C 
ENDROOT
BRANCH   7   4
ATOM      4  N   UNL     1      -3.839 -12.181  16.422  0.00  0.00    -0.304 NA
ATOM     21  H   UNL     1      -2.996 -12.430  16.941  0.00  0.00    +0.123 HD
BRANCH   4   8
ATOM      5  N   UNL     1      -2.081 -10.781  12.815  0.00  0.00    -0.305 NA
ATOM      8  C   UNL     1      -3.476 -11.268  15.341  0.00  0.00    +0.057 C 
ATOM     12  C   UNL     1      -1.958 -11.078  15.269  0.00  0.00    +0.034 C 
ATOM     13  C   UNL     1      -3.999 -11.797  14.003  0.00  0.00    +0.034 C 
ATOM     14  C   UNL     1      -1.570 -10.210  14.069  0.00  0.00    +0.085 C 
ATOM     15  C   UNL     1      -3.545 -10.906  12.844  0.00  0.00    +0.085 C 
ATOM     17  C   UNL     1      -1.659  -9.969  11.674  0.00  0.00    +0.104 C 
ENDBRANCH   4   8
ENDBRANCH   7   4
BRANCH   7  11
ATOM     11  C   UNL     1      -5.018 -10.087  16.996  0.00  0.00    +0.085 C 
BRANCH  11  16
ATOM      2  O   UNL     1      -8.265  -9.471  15.537  0.00  0.00    -0.357 OA
ATOM      6  N   UNL     1      -6.927  -9.837  15.452  0.00  0.00    -0.083 NA
ATOM     16  C   UNL     1      -6.465  -9.752  16.702  0.00  0.00    +0.086 A 
ATOM     18  C   UNL     1      -7.456  -9.340  17.610  0.00  0.00    +0.073 A 
ATOM     19  C   UNL     1      -8.568  -9.177  16.827  0.00  0.00    +0.163 A 
BRANCH  19  20
ATOM     20  C   UNL     1      -9.951  -8.767  17.099  0.00  0.00    +0.232 C 
BRANCH  20   3
ATOM      3  O   UNL     1     -10.023  -7.350  17.279  0.00  0.00    -0.387 OA
ATOM     22  H   UNL     1      -9.216  -6.974  16.891  0.00  0.00    +0.210 HD
ENDBRANCH  20   3
ENDBRANCH  19  20
ENDBRANCH  11  16
ENDBRANCH   7  11
TORSDOF 6
ENDMDL
MODEL 8
REMARK VINA RESULT:      -4.8     36.106     38.045
REMARK  Name = 56775604
REMARK  7 active torsions:
REMARK  status: ('A' for Active; 'I' for Inactive)
REMARK    1  A    between atoms: O_3  and  C_20
REMARK    2  A    between atoms: N_4  and  C_7
REMARK    3  A    between atoms: N_4  and  C_8
REMARK    4  A    between atoms: N_5  and  C_17
REMARK    5  A    between atoms: C_7  and  C_11
REMARK    6  A    between atoms: C_11  and  C_16
REMARK    7  A    between atoms: C_19  and  C_20
REMARK                            x       y       z     vdW  Elec       q    Type
REMARK                         _______ _______ _______ _____ _____    ______ ____
ROOT
ATOM      1  O   UNL     1     -18.056   6.693  32.809  0.00  0.00    -0.376 OA
ATOM      7  C   UNL     1     -16.285   5.511  32.677  0.00  0.00    +0.072 C 
ATOM      9  C   UNL     1     -17.076   6.229  33.765  0.00  0.00    +0.184 C 
ATOM     10  C   UNL     1     -17.303   6.116  31.718  0.00  0.00    +0.184 C 
ENDROOT
BRANCH   7   4
ATOM      4  N   UNL     1     -16.535   4.070  32.784  0.00  0.00    -0.304 NA
ATOM     21  H   UNL     1     -16.507   3.739  33.749  0.00  0.00    +0.123 HD
BRANCH   4   8
ATOM      5  N   UNL     1     -14.654   0.876  30.705  0.00  0.00    -0.305 NA
ATOM      8  C   UNL     1     -15.533   3.345  32.006  0.00  0.00    +0.057 C 
ATOM     12  C   UNL     1     -14.977   2.158  32.797  0.00  0.00    +0.034 C 
ATOM     13  C   UNL     1     -16.138   2.856  30.688  0.00  0.00    +0.034 C 
ATOM     14  C   UNL     1     -14.009   1.334  31.944  0.00  0.00    +0.085 C 
ATOM     15  C   UNL     1     -15.132   2.010  29.902  0.00  0.00    +0.085 C 
ATOM     17  C   UNL     1     -13.734   0.049  29.925  0.00  0.00    +0.104 C 
ENDBRANCH   4   8
ENDBRANCH   7   4
BRANCH   7  11
ATOM     11  C   UNL     1     -14.834   5.839  32.499  0.00  0.00    +0.085 C 
BRANCH  11  16
ATOM      2  O   UNL     1     -13.478   5.743  35.846  0.00  0.00    -0.357 OA
ATOM      6  N   UNL     1     -14.142   5.166  34.770  0.00  0.00    -0.083 NA
ATOM     16  C   UNL     1     -14.177   6.118  33.834  0.00  0.00    +0.086 A 
ATOM     18  C   UNL     1     -13.557   7.306  34.259  0.00  0.00    +0.073 A 
ATOM     19  C   UNL     1     -13.135   7.018  35.530  0.00  0.00    +0.163 A 
BRANCH  19  20
ATOM     20  C   UNL     1     -12.422   7.780  36.561  0.00  0.00    +0.232 C 
BRANCH  20   3
ATOM      3  O   UNL     1     -11.725   6.893  37.441  0.00  0.00    -0.387 OA
ATOM     22  H   UNL     1     -11.389   7.432  38.177  0.00  0.00    +0.210 HD
ENDBRANCH  20   3
ENDBRANCH  19  20
ENDBRANCH  11  16
ENDBRANCH   7  11
TORSDOF 6
ENDMDL
MODEL 9
REMARK VINA RESULT:      -4.6     24.143     26.981
REMARK  Name = 56775604
REMARK  7 active torsions:
REMARK  status: ('A' for Active; 'I' for Inactive)
REMARK    1  A    between atoms: O_3  and  C_20
REMARK    2  A    between atoms: N_4  and  C_7
REMARK    3  A    between atoms: N_4  and  C_8
REMARK    4  A    between atoms: N_5  and  C_17
REMARK    5  A    between atoms: C_7  and  C_11
REMARK    6  A    between atoms: C_11  and  C_16
REMARK    7  A    between atoms: C_19  and  C_20
REMARK                            x       y       z     vdW  Elec       q    Type
REMARK                         _______ _______ _______ _____ _____    ______ ____
ROOT
ATOM      1  O   UNL     1      -6.672 -11.987  18.889  0.00  0.00    -0.376 OA
ATOM      7  C   UNL     1      -7.449 -10.426  17.659  0.00  0.00    +0.072 C 
ATOM      9  C   UNL     1      -7.097 -11.902  17.510  0.00  0.00    +0.184 C 
ATOM     10  C   UNL     1      -6.895 -10.570  19.071  0.00  0.00    +0.184 C 
ENDROOT
BRANCH   7   4
ATOM      4  N   UNL     1      -8.907 -10.294  17.734  0.00  0.00    -0.304 NA
ATOM     21  H   UNL     1      -9.390 -11.172  17.544  0.00  0.00    +0.123 HD
BRANCH   4   8
ATOM      5  N   UNL     1     -11.532  -7.793  15.516  0.00  0.00    -0.305 NA
ATOM      8  C   UNL     1      -9.353  -9.291  16.770  0.00  0.00    +0.057 C 
ATOM     12  C   UNL     1     -10.272  -9.914  15.715  0.00  0.00    +0.034 C 
ATOM     13  C   UNL     1     -10.081  -8.152  17.489  0.00  0.00    +0.034 C 
ATOM     14  C   UNL     1     -10.827  -8.845  14.770  0.00  0.00    +0.085 C 
ATOM     15  C   UNL     1     -10.642  -7.140  16.486  0.00  0.00    +0.085 C 
ATOM     17  C   UNL     1     -12.099  -6.807  14.597  0.00  0.00    +0.104 C 
ENDBRANCH   4   8
ENDBRANCH   7   4
BRANCH   7  11
ATOM     11  C   UNL     1      -6.820  -9.433  16.730  0.00  0.00    +0.085 C 
BRANCH  11  16
ATOM      2  O   UNL     1      -4.272 -10.883  14.618  0.00  0.00    -0.357 OA
ATOM      6  N   UNL     1      -5.571 -10.451  14.860  0.00  0.00    -0.083 NA
ATOM     16  C   UNL     1      -5.555  -9.996  16.116  0.00  0.00    +0.086 A 
ATOM     18  C   UNL     1      -4.287 -10.114  16.710  0.00  0.00    +0.073 A 
ATOM     19  C   UNL     1      -3.517 -10.678  15.727  0.00  0.00    +0.163 A 
BRANCH  19  20
ATOM     20  C   UNL     1      -2.109 -11.081  15.646  0.00  0.00    +0.232 C 
BRANCH  20   3
ATOM      3  O   UNL     1      -1.528 -11.125  16.952  0.00  0.00    -0.387 OA
ATOM     22  H   UNL     1      -1.665 -12.025  17.293  0.00  0.00    +0.210 HD
ENDBRANCH  20   3
ENDBRANCH  19  20
ENDBRANCH  11  16
ENDBRANCH   7  11
TORSDOF 6
ENDMDL
MODEL 10
REMARK VINA RESULT:      -4.6     22.769     24.953
REMARK  Name = 56775604
REMARK  7 active torsions:
REMARK  status: ('A' for Active; 'I' for Inactive)
REMARK    1  A    between atoms: O_3  and  C_20
REMARK    2  A    between atoms: N_4  and  C_7
REMARK    3  A    between atoms: N_4  and  C_8
REMARK    4  A    between atoms: N_5  and  C_17
REMARK    5  A    between atoms: C_7  and  C_11
REMARK    6  A    between atoms: C_11  and  C_16
REMARK    7  A    between atoms: C_19  and  C_20
REMARK                            x       y       z     vdW  Elec       q    Type
REMARK                         _______ _______ _______ _____ _____    ______ ____
ROOT
ATOM      1  O   UNL     1      -2.837 -14.044  14.526  0.00  0.00    -0.376 OA
ATOM      7  C   UNL     1      -3.815 -12.147  14.517  0.00  0.00    +0.072 C 
ATOM      9  C   UNL     1      -2.612 -12.792  13.840  0.00  0.00    +0.184 C 
ATOM     10  C   UNL     1      -3.931 -13.466  15.274  0.00  0.00    +0.184 C 
ENDROOT
BRANCH   7   4
ATOM      4  N   UNL     1      -4.912 -12.060  13.548  0.00  0.00    -0.304 NA
ATOM     21  H   UNL     1      -4.920 -12.843  12.895  0.00  0.00    +0.123 HD
BRANCH   4   8
ATOM      5  N   UNL     1      -5.534  -9.195  10.471  0.00  0.00    -0.305 NA
ATOM      8  C   UNL     1      -4.794 -10.815  12.794  0.00  0.00    +0.057 C 
ATOM     12  C   UNL     1      -4.212 -11.070  11.401  0.00  0.00    +0.034 C 
ATOM     13  C   UNL     1      -6.162 -10.138  12.671  0.00  0.00    +0.034 C 
ATOM     14  C   UNL     1      -4.191  -9.784  10.570  0.00  0.00    +0.085 C 
ATOM     15  C   UNL     1      -6.078  -8.882  11.800  0.00  0.00    +0.085 C 
ATOM     17  C   UNL     1      -5.506  -7.996   9.634  0.00  0.00    +0.104 C 
ENDBRANCH   4   8
ENDBRANCH   7   4
BRANCH   7  11
ATOM     11  C   UNL     1      -3.620 -10.880  15.292  0.00  0.00    +0.085 C 
BRANCH  11  16
ATOM      2  O   UNL     1      -6.472 -10.469  17.471  0.00  0.00    -0.357 OA
ATOM      6  N   UNL     1      -5.863 -10.438  16.222  0.00  0.00    -0.083 NA
ATOM     16  C   UNL     1      -4.596 -10.799  16.447  0.00  0.00    +0.086 A 
ATOM     18  C   UNL     1      -4.350 -11.066  17.804  0.00  0.00    +0.073 A 
ATOM     19  C   UNL     1      -5.561 -10.843  18.405  0.00  0.00    +0.163 A 
BRANCH  19  20
ATOM     20  C   UNL     1      -6.039 -10.927  19.790  0.00  0.00    +0.232 C 
BRANCH  20   3
ATOM      3  O   UNL     1      -7.268 -10.210  19.936  0.00  0.00    -0.387 OA
ATOM     22  H   UNL     1      -7.335  -9.950  20.870  0.00  0.00    +0.210 HD
ENDBRANCH  20   3
ENDBRANCH  19  20
ENDBRANCH  11  16
ENDBRANCH   7  11
TORSDOF 6
ENDMDL
