MODEL 1
REMARK VINA RESULT:      -7.5      0.000      0.000
REMARK  Name = 11941652
REMARK  6 active torsions:
REMARK  status: ('A' for Active; 'I' for Inactive)
REMARK    1  A    between atoms: N_6  and  C_13
REMARK    2  A    between atoms: N_7  and  C_14
REMARK    3  A    between atoms: N_8  and  C_20
REMARK    4  A    between atoms: C_19  and  C_23
REMARK    5  A    between atoms: C_28  and  C_32
REMARK    6  A    between atoms: C_32  and  C_33
REMARK                            x       y       z     vdW  Elec       q    Type
REMARK                         _______ _______ _______ _____ _____    ______ ____
ROOT
ATOM      1  O   UNL     1      22.512   7.996  22.047  0.00  0.00    -0.370 OA
ATOM      2  O   UNL     1      21.419   6.101  24.273  0.00  0.00    -0.370 OA
ATOM     11  C   UNL     1      21.893   5.877  22.934  0.00  0.00    +0.171 C 
ATOM     12  C   UNL     1      21.431   7.049  22.090  0.00  0.00    +0.171 C 
ATOM     13  C   UNL     1      23.400   5.961  22.890  0.00  0.00    +0.130 C 
ATOM     14  C   UNL     1      20.263   7.619  22.861  0.00  0.00    +0.131 C 
ATOM     15  C   UNL     1      23.645   7.451  22.737  0.00  0.00    +0.185 C 
ATOM     16  C   UNL     1      20.638   7.305  24.299  0.00  0.00    +0.185 C 
ENDROOT
BRANCH  13   6
ATOM      6  N   UNL     1      23.903   5.249  21.735  0.00  0.00    -0.306 N 
ATOM      9  N   UNL     1      23.765   3.172  22.818  0.00  0.00    -0.211 NA
ATOM     10  N   UNL     1      24.561   3.335  20.549  0.00  0.00    -0.223 NA
ATOM     17  C   UNL     1      24.082   3.878  21.701  0.00  0.00    +0.216 A 
ATOM     19  C   UNL     1      23.951   1.838  22.749  0.00  0.00    +0.111 A 
ATOM     21  C   UNL     1      24.722   1.995  20.549  0.00  0.00    +0.116 A 
ATOM     22  C   UNL     1      24.432   1.188  21.630  0.00  0.00    +0.051 A 
ATOM     34  H   UNL     1      24.092   5.758  20.880  0.00  0.00    +0.149 HD
BRANCH  19  23
ATOM      4  O   UNL     1      22.448   1.499  24.539  0.00  0.00    -0.461 OA
ATOM     23  C   UNL     1      23.609   1.118  23.947  0.00  0.00    +0.153 A 
ATOM     29  C   UNL     1      24.206   0.103  24.652  0.00  0.00    +0.051 A 
ATOM     30  C   UNL     1      23.356  -0.161  25.753  0.00  0.00    +0.042 A 
ATOM     31  C   UNL     1      22.301   0.714  25.639  0.00  0.00    +0.196 A 
ENDBRANCH  19  23
ENDBRANCH  13   6
BRANCH  14   7
ATOM      3  O   UNL     1      18.151   8.743  21.285  0.00  0.00    -0.252 OA
ATOM      7  N   UNL     1      19.028   6.975  22.490  0.00  0.00    -0.292 N 
ATOM      8  N   UNL     1      16.961   6.733  21.515  0.00  0.00    -0.269 N 
ATOM     18  C   UNL     1      18.042   7.596  21.713  0.00  0.00    +0.304 C 
ATOM     35  H   UNL     1      18.893   6.002  22.749  0.00  0.00    +0.151 HD
ATOM     36  H   UNL     1      17.030   5.812  21.942  0.00  0.00    +0.156 HD
BRANCH   8  20
ATOM     20  C   UNL     1      15.772   6.981  20.790  0.00  0.00    +0.035 A 
ATOM     24  C   UNL     1      15.805   6.958  19.405  0.00  0.00    +0.024 A 
ATOM     25  C   UNL     1      14.600   7.241  21.480  0.00  0.00    +0.024 A 
ATOM     26  C   UNL     1      14.633   7.204  18.691  0.00  0.00    +0.013 A 
ATOM     27  C   UNL     1      13.427   7.486  20.766  0.00  0.00    +0.013 A 
ATOM     28  C   UNL     1      13.443   7.467  19.371  0.00  0.00    +0.017 A 
BRANCH  28  32
ATOM      5  O   UNL     1      12.009   7.188  17.519  0.00  0.00    -0.292 OA
ATOM     32  C   UNL     1      12.220   7.721  18.626  0.00  0.00    +0.160 C 
ATOM     33  C   UNL     1      11.157   8.658  19.191  0.00  0.00    +0.091 C 
ENDBRANCH  28  32
ENDBRANCH   8  20
ENDBRANCH  14   7
TORSDOF 5
ENDMDL
MODEL 2
REMARK VINA RESULT:      -7.3      2.263     11.153
REMARK  Name = 11941652
REMARK  6 active torsions:
REMARK  status: ('A' for Active; 'I' for Inactive)
REMARK    1  A    between atoms: N_6  and  C_13
REMARK    2  A    between atoms: N_7  and  C_14
REMARK    3  A    between atoms: N_8  and  C_20
REMARK    4  A    between atoms: C_19  and  C_23
REMARK    5  A    between atoms: C_28  and  C_32
REMARK    6  A    between atoms: C_32  and  C_33
REMARK                            x       y       z     vdW  Elec       q    Type
REMARK                         _______ _______ _______ _____ _____    ______ ____
ROOT
ATOM      1  O   UNL     1      19.543   8.183  22.796  0.00  0.00    -0.370 OA
ATOM      2  O   UNL     1      19.850   6.662  20.089  0.00  0.00    -0.370 OA
ATOM     11  C   UNL     1      18.884   6.595  21.152  0.00  0.00    +0.171 C 
ATOM     12  C   UNL     1      19.633   6.790  22.455  0.00  0.00    +0.171 C 
ATOM     13  C   UNL     1      17.948   7.778  21.084  0.00  0.00    +0.130 C 
ATOM     14  C   UNL     1      21.060   6.423  22.116  0.00  0.00    +0.131 C 
ATOM     15  C   UNL     1      18.714   8.852  21.835  0.00  0.00    +0.185 C 
ATOM     16  C   UNL     1      21.160   6.820  20.654  0.00  0.00    +0.185 C 
ENDROOT
BRANCH  13   6
ATOM      6  N   UNL     1      16.711   7.472  21.769  0.00  0.00    -0.306 N 
ATOM      9  N   UNL     1      15.402   8.161  19.948  0.00  0.00    -0.211 NA
ATOM     10  N   UNL     1      14.378   7.328  21.964  0.00  0.00    -0.223 NA
ATOM     17  C   UNL     1      15.460   7.660  21.210  0.00  0.00    +0.216 A 
ATOM     19  C   UNL     1      14.166   8.331  19.434  0.00  0.00    +0.111 A 
ATOM     21  C   UNL     1      13.173   7.523  21.388  0.00  0.00    +0.116 A 
ATOM     22  C   UNL     1      13.004   8.027  20.114  0.00  0.00    +0.051 A 
ATOM     34  H   UNL     1      16.744   7.049  22.689  0.00  0.00    +0.149 HD
BRANCH  19  23
ATOM      4  O   UNL     1      14.041   7.940  17.108  0.00  0.00    -0.461 OA
ATOM     23  C   UNL     1      14.137   8.864  18.097  0.00  0.00    +0.153 A 
ATOM     29  C   UNL     1      14.187  10.133  17.577  0.00  0.00    +0.051 A 
ATOM     30  C   UNL     1      14.116   9.982  16.171  0.00  0.00    +0.042 A 
ATOM     31  C   UNL     1      14.029   8.630  15.936  0.00  0.00    +0.196 A 
ENDBRANCH  19  23
ENDBRANCH  13   6
BRANCH  14   7
ATOM      3  O   UNL     1      23.602   5.110  22.261  0.00  0.00    -0.252 OA
ATOM      7  N   UNL     1      21.292   5.011  22.292  0.00  0.00    -0.292 N 
ATOM      8  N   UNL     1      22.486   3.062  22.527  0.00  0.00    -0.269 N 
ATOM     18  C   UNL     1      22.572   4.446  22.353  0.00  0.00    +0.304 C 
ATOM     35  H   UNL     1      20.491   4.404  22.443  0.00  0.00    +0.151 HD
ATOM     36  H   UNL     1      21.551   2.667  22.583  0.00  0.00    +0.156 HD
BRANCH   8  20
ATOM     20  C   UNL     1      23.547   2.132  22.636  0.00  0.00    +0.035 A 
ATOM     24  C   UNL     1      24.120   1.621  21.483  0.00  0.00    +0.024 A 
ATOM     25  C   UNL     1      23.990   1.754  23.891  0.00  0.00    +0.024 A 
ATOM     26  C   UNL     1      25.166   0.704  21.590  0.00  0.00    +0.013 A 
ATOM     27  C   UNL     1      25.036   0.837  23.999  0.00  0.00    +0.013 A 
ATOM     28  C   UNL     1      25.625   0.312  22.848  0.00  0.00    +0.017 A 
BRANCH  28  32
ATOM      5  O   UNL     1      27.771  -0.358  23.559  0.00  0.00    -0.292 OA
ATOM     32  C   UNL     1      26.715  -0.643  22.960  0.00  0.00    +0.160 C 
ATOM     33  C   UNL     1      26.589  -2.030  22.339  0.00  0.00    +0.091 C 
ENDBRANCH  28  32
ENDBRANCH   8  20
ENDBRANCH  14   7
TORSDOF 5
ENDMDL
MODEL 3
REMARK VINA RESULT:      -7.3     31.948     36.013
REMARK  Name = 11941652
REMARK  6 active torsions:
REMARK  status: ('A' for Active; 'I' for Inactive)
REMARK    1  A    between atoms: N_6  and  C_13
REMARK    2  A    between atoms: N_7  and  C_14
REMARK    3  A    between atoms: N_8  and  C_20
REMARK    4  A    between atoms: C_19  and  C_23
REMARK    5  A    between atoms: C_28  and  C_32
REMARK    6  A    between atoms: C_32  and  C_33
REMARK                            x       y       z     vdW  Elec       q    Type
REMARK                         _______ _______ _______ _____ _____    ______ ____
ROOT
ATOM      1  O   UNL     1     -15.458   4.546  21.818  0.00  0.00    -0.370 OA
ATOM      2  O   UNL     1     -17.061   6.902  23.092  0.00  0.00    -0.370 OA
ATOM     11  C   UNL     1     -15.659   6.600  23.004  0.00  0.00    +0.171 C 
ATOM     12  C   UNL     1     -15.511   5.098  23.145  0.00  0.00    +0.171 C 
ATOM     13  C   UNL     1     -15.146   6.892  21.613  0.00  0.00    +0.130 C 
ATOM     14  C   UNL     1     -16.781   4.668  23.843  0.00  0.00    +0.131 C 
ATOM     15  C   UNL     1     -15.477   5.615  20.862  0.00  0.00    +0.185 C 
ATOM     16  C   UNL     1     -17.788   5.690  23.345  0.00  0.00    +0.185 C 
ENDROOT
BRANCH  13   6
ATOM      6  N   UNL     1     -13.714   7.097  21.645  0.00  0.00    -0.306 N 
ATOM      9  N   UNL     1     -13.633   7.658  19.369  0.00  0.00    -0.211 NA
ATOM     10  N   UNL     1     -11.631   7.636  20.710  0.00  0.00    -0.223 NA
ATOM     17  C   UNL     1     -12.971   7.475  20.541  0.00  0.00    +0.216 A 
ATOM     19  C   UNL     1     -12.877   8.027  18.313  0.00  0.00    +0.111 A 
ATOM     21  C   UNL     1     -10.937   8.005  19.614  0.00  0.00    +0.116 A 
ATOM     22  C   UNL     1     -11.511   8.217  18.377  0.00  0.00    +0.051 A 
ATOM     34  H   UNL     1     -13.219   7.014  22.525  0.00  0.00    +0.149 HD
BRANCH  19  23
ATOM      4  O   UNL     1     -12.842   8.284  15.965  0.00  0.00    -0.461 OA
ATOM     23  C   UNL     1     -13.605   8.213  17.086  0.00  0.00    +0.153 A 
ATOM     29  C   UNL     1     -14.936   8.340  16.779  0.00  0.00    +0.051 A 
ATOM     30  C   UNL     1     -15.000   8.500  15.373  0.00  0.00    +0.042 A 
ATOM     31  C   UNL     1     -13.700   8.459  14.926  0.00  0.00    +0.196 A 
ENDBRANCH  19  23
ENDBRANCH  13   6
BRANCH  14   7
ATOM      3  O   UNL     1     -16.069   2.513  25.590  0.00  0.00    -0.252 OA
ATOM      7  N   UNL     1     -16.637   4.732  25.276  0.00  0.00    -0.292 N 
ATOM      8  N   UNL     1     -16.221   3.988  27.410  0.00  0.00    -0.269 N 
ATOM     18  C   UNL     1     -16.284   3.627  26.061  0.00  0.00    +0.304 C 
ATOM     35  H   UNL     1     -16.732   5.635  25.732  0.00  0.00    +0.151 HD
ATOM     36  H   UNL     1     -16.430   4.958  27.632  0.00  0.00    +0.156 HD
BRANCH   8  20
ATOM     20  C   UNL     1     -15.900   3.166  28.515  0.00  0.00    +0.035 A 
ATOM     24  C   UNL     1     -14.985   3.616  29.452  0.00  0.00    +0.024 A 
ATOM     25  C   UNL     1     -16.509   1.928  28.638  0.00  0.00    +0.024 A 
ATOM     26  C   UNL     1     -14.669   2.805  30.542  0.00  0.00    +0.013 A 
ATOM     27  C   UNL     1     -16.193   1.117  29.728  0.00  0.00    +0.013 A 
ATOM     28  C   UNL     1     -15.273   1.555  30.681  0.00  0.00    +0.017 A 
BRANCH  28  32
ATOM      5  O   UNL     1     -14.889  -0.531  31.711  0.00  0.00    -0.292 OA
ATOM     32  C   UNL     1     -14.945   0.710  31.817  0.00  0.00    +0.160 C 
ATOM     33  C   UNL     1     -14.659   1.332  33.180  0.00  0.00    +0.091 C 
ENDBRANCH  28  32
ENDBRANCH   8  20
ENDBRANCH  14   7
TORSDOF 5
ENDMDL
MODEL 4
REMARK VINA RESULT:      -7.2     28.327     32.680
REMARK  Name = 11941652
REMARK  6 active torsions:
REMARK  status: ('A' for Active; 'I' for Inactive)
REMARK    1  A    between atoms: N_6  and  C_13
REMARK    2  A    between atoms: N_7  and  C_14
REMARK    3  A    between atoms: N_8  and  C_20
REMARK    4  A    between atoms: C_19  and  C_23
REMARK    5  A    between atoms: C_28  and  C_32
REMARK    6  A    between atoms: C_32  and  C_33
REMARK                            x       y       z     vdW  Elec       q    Type
REMARK                         _______ _______ _______ _____ _____    ______ ____
ROOT
ATOM      1  O   UNL     1      -5.288  -9.042  10.390  0.00  0.00    -0.370 OA
ATOM      2  O   UNL     1      -6.429 -11.902  10.898  0.00  0.00    -0.370 OA
ATOM     11  C   UNL     1      -5.106 -11.345  10.962  0.00  0.00    +0.171 C 
ATOM     12  C   UNL     1      -4.987 -10.335   9.837  0.00  0.00    +0.171 C 
ATOM     13  C   UNL     1      -4.944 -10.520  12.217  0.00  0.00    +0.130 C 
ATOM     14  C   UNL     1      -6.059 -10.750   8.856  0.00  0.00    +0.131 C 
ATOM     15  C   UNL     1      -5.502  -9.171  11.802  0.00  0.00    +0.185 C 
ATOM     16  C   UNL     1      -7.117 -11.350   9.765  0.00  0.00    +0.185 C 
ENDROOT
BRANCH  13   6
ATOM      6  N   UNL     1      -3.543 -10.400  12.555  0.00  0.00    -0.306 N 
ATOM      9  N   UNL     1      -3.961 -10.658  14.850  0.00  0.00    -0.211 NA
ATOM     10  N   UNL     1      -1.717 -10.343  14.028  0.00  0.00    -0.223 NA
ATOM     17  C   UNL     1      -3.060 -10.469  13.850  0.00  0.00    +0.216 A 
ATOM     19  C   UNL     1      -3.455 -10.721  16.099  0.00  0.00    +0.111 A 
ATOM     21  C   UNL     1      -1.280 -10.416  15.302  0.00  0.00    +0.116 A 
ATOM     22  C   UNL     1      -2.110 -10.605  16.388  0.00  0.00    +0.051 A 
ATOM     34  H   UNL     1      -2.858 -10.312  11.814  0.00  0.00    +0.149 HD
BRANCH  19  23
ATOM      4  O   UNL     1      -5.665 -10.418  16.874  0.00  0.00    -0.461 OA
ATOM     23  C   UNL     1      -4.432 -10.921  17.136  0.00  0.00    +0.153 A 
ATOM     29  C   UNL     1      -4.403 -11.521  18.369  0.00  0.00    +0.051 A 
ATOM     30  C   UNL     1      -5.706 -11.380  18.905  0.00  0.00    +0.042 A 
ATOM     31  C   UNL     1      -6.436 -10.702  17.957  0.00  0.00    +0.196 A 
ENDBRANCH  19  23
ENDBRANCH  13   6
BRANCH  14   7
ATOM      3  O   UNL     1      -5.419 -10.306   6.100  0.00  0.00    -0.252 OA
ATOM      7  N   UNL     1      -5.560 -11.726   7.919  0.00  0.00    -0.292 N 
ATOM      8  N   UNL     1      -4.805 -12.565   5.918  0.00  0.00    -0.269 N 
ATOM     18  C   UNL     1      -5.270 -11.427   6.582  0.00  0.00    +0.304 C 
ATOM     35  H   UNL     1      -5.347 -12.659   8.260  0.00  0.00    +0.151 HD
ATOM     36  H   UNL     1      -4.743 -13.419   6.467  0.00  0.00    +0.156 HD
BRANCH   8  20
ATOM     20  C   UNL     1      -4.407 -12.680   4.565  0.00  0.00    +0.035 A 
ATOM     24  C   UNL     1      -3.069 -12.537   4.237  0.00  0.00    +0.024 A 
ATOM     25  C   UNL     1      -5.365 -12.933   3.597  0.00  0.00    +0.024 A 
ATOM     26  C   UNL     1      -2.678 -12.649   2.903  0.00  0.00    +0.013 A 
ATOM     27  C   UNL     1      -4.973 -13.047   2.263  0.00  0.00    +0.013 A 
ATOM     28  C   UNL     1      -3.629 -12.905   1.916  0.00  0.00    +0.017 A 
BRANCH  28  32
ATOM      5  O   UNL     1      -2.020 -13.118   0.205  0.00  0.00    -0.292 OA
ATOM     32  C   UNL     1      -3.221 -13.024   0.525  0.00  0.00    +0.160 C 
ATOM     33  C   UNL     1      -4.268 -13.036  -0.584  0.00  0.00    +0.091 C 
ENDBRANCH  28  32
ENDBRANCH   8  20
ENDBRANCH  14   7
TORSDOF 5
ENDMDL
MODEL 5
REMARK VINA RESULT:      -7.1      1.343      1.718
REMARK  Name = 11941652
REMARK  6 active torsions:
REMARK  status: ('A' for Active; 'I' for Inactive)
REMARK    1  A    between atoms: N_6  and  C_13
REMARK    2  A    between atoms: N_7  and  C_14
REMARK    3  A    between atoms: N_8  and  C_20
REMARK    4  A    between atoms: C_19  and  C_23
REMARK    5  A    between atoms: C_28  and  C_32
REMARK    6  A    between atoms: C_32  and  C_33
REMARK                            x       y       z     vdW  Elec       q    Type
REMARK                         _______ _______ _______ _____ _____    ______ ____
ROOT
ATOM      1  O   UNL     1      22.375   7.140  20.914  0.00  0.00    -0.370 OA
ATOM      2  O   UNL     1      20.561   5.884  23.122  0.00  0.00    -0.370 OA
ATOM     11  C   UNL     1      21.244   5.339  21.980  0.00  0.00    +0.171 C 
ATOM     12  C   UNL     1      21.163   6.369  20.871  0.00  0.00    +0.171 C 
ATOM     13  C   UNL     1      22.723   5.217  22.264  0.00  0.00    +0.130 C 
ATOM     14  C   UNL     1      19.979   7.227  21.253  0.00  0.00    +0.131 C 
ATOM     15  C   UNL     1      23.242   6.602  21.923  0.00  0.00    +0.185 C 
ATOM     16  C   UNL     1      20.005   7.160  22.770  0.00  0.00    +0.185 C 
ENDROOT
BRANCH  13   6
ATOM      6  N   UNL     1      23.316   4.230  21.387  0.00  0.00    -0.306 N 
ATOM      9  N   UNL     1      23.573   2.678  23.128  0.00  0.00    -0.211 NA
ATOM     10  N   UNL     1      24.272   2.148  20.884  0.00  0.00    -0.223 NA
ATOM     17  C   UNL     1      23.733   2.982  21.813  0.00  0.00    +0.216 A 
ATOM     19  C   UNL     1      23.990   1.452  23.508  0.00  0.00    +0.111 A 
ATOM     21  C   UNL     1      24.668   0.938  21.332  0.00  0.00    +0.116 A 
ATOM     22  C   UNL     1      24.551   0.532  22.646  0.00  0.00    +0.051 A 
ATOM     34  H   UNL     1      23.391   4.426  20.396  0.00  0.00    +0.149 HD
BRANCH  19  23
ATOM      4  O   UNL     1      24.555   0.131  25.383  0.00  0.00    -0.461 OA
ATOM     23  C   UNL     1      23.809   1.160  24.906  0.00  0.00    +0.153 A 
ATOM     29  C   UNL     1      23.030   1.700  25.898  0.00  0.00    +0.051 A 
ATOM     30  C   UNL     1      23.314   0.954  27.068  0.00  0.00    +0.042 A 
ATOM     31  C   UNL     1      24.247   0.012  26.702  0.00  0.00    +0.196 A 
ENDBRANCH  19  23
ENDBRANCH  13   6
BRANCH  14   7
ATOM      3  O   UNL     1      17.562   8.671  20.723  0.00  0.00    -0.252 OA
ATOM      7  N   UNL     1      18.750   6.687  20.726  0.00  0.00    -0.292 N 
ATOM      8  N   UNL     1      16.576   6.673  19.984  0.00  0.00    -0.269 N 
ATOM     18  C   UNL     1      17.608   7.464  20.495  0.00  0.00    +0.304 C 
ATOM     35  H   UNL     1      18.731   5.710  20.449  0.00  0.00    +0.151 HD
ATOM     36  H   UNL     1      16.780   5.685  19.856  0.00  0.00    +0.156 HD
BRANCH   8  20
ATOM     20  C   UNL     1      15.270   7.076  19.622  0.00  0.00    +0.035 A 
ATOM     24  C   UNL     1      14.260   7.033  20.569  0.00  0.00    +0.024 A 
ATOM     25  C   UNL     1      15.028   7.507  18.328  0.00  0.00    +0.024 A 
ATOM     26  C   UNL     1      12.972   7.431  20.211  0.00  0.00    +0.013 A 
ATOM     27  C   UNL     1      13.740   7.906  17.970  0.00  0.00    +0.013 A 
ATOM     28  C   UNL     1      12.711   7.868  18.912  0.00  0.00    +0.017 A 
BRANCH  28  32
ATOM      5  O   UNL     1      10.488   8.486  19.397  0.00  0.00    -0.292 OA
ATOM     32  C   UNL     1      11.369   8.284  18.539  0.00  0.00    +0.160 C 
ATOM     33  C   UNL     1      11.006   8.483  17.070  0.00  0.00    +0.091 C 
ENDBRANCH  28  32
ENDBRANCH   8  20
ENDBRANCH  14   7
TORSDOF 5
ENDMDL
MODEL 6
REMARK VINA RESULT:      -6.9     16.623     20.808
REMARK  Name = 11941652
REMARK  6 active torsions:
REMARK  status: ('A' for Active; 'I' for Inactive)
REMARK    1  A    between atoms: N_6  and  C_13
REMARK    2  A    between atoms: N_7  and  C_14
REMARK    3  A    between atoms: N_8  and  C_20
REMARK    4  A    between atoms: C_19  and  C_23
REMARK    5  A    between atoms: C_28  and  C_32
REMARK    6  A    between atoms: C_32  and  C_33
REMARK                            x       y       z     vdW  Elec       q    Type
REMARK                         _______ _______ _______ _____ _____    ______ ____
ROOT
ATOM      1  O   UNL     1      10.494   5.039   5.141  0.00  0.00    -0.370 OA
ATOM      2  O   UNL     1       9.430   7.423   3.431  0.00  0.00    -0.370 OA
ATOM     11  C   UNL     1      10.751   6.958   3.758  0.00  0.00    +0.171 C 
ATOM     12  C   UNL     1      10.712   6.459   5.189  0.00  0.00    +0.171 C 
ATOM     13  C   UNL     1      11.089   5.729   2.948  0.00  0.00    +0.130 C 
ATOM     14  C   UNL     1       9.511   7.155   5.788  0.00  0.00    +0.131 C 
ATOM     15  C   UNL     1      10.481   4.609   3.773  0.00  0.00    +0.185 C 
ATOM     16  C   UNL     1       8.591   7.305   4.590  0.00  0.00    +0.185 C 
ENDROOT
BRANCH  13   6
ATOM      6  N   UNL     1      12.524   5.568   2.867  0.00  0.00    -0.306 N 
ATOM      9  N   UNL     1      12.400   4.532   0.765  0.00  0.00    -0.211 NA
ATOM     10  N   UNL     1      14.525   4.895   1.842  0.00  0.00    -0.223 NA
ATOM     17  C   UNL     1      13.169   4.980   1.792  0.00  0.00    +0.216 A 
ATOM     19  C   UNL     1      13.061   3.965  -0.266  0.00  0.00    +0.111 A 
ATOM     21  C   UNL     1      15.121   4.316   0.778  0.00  0.00    +0.116 A 
ATOM     22  C   UNL     1      14.433   3.828  -0.314  0.00  0.00    +0.051 A 
ATOM     34  H   UNL     1      13.110   5.946   3.602  0.00  0.00    +0.149 HD
BRANCH  19  23
ATOM      4  O   UNL     1      11.278   4.380  -1.758  0.00  0.00    -0.461 OA
ATOM     23  C   UNL     1      12.221   3.499  -1.337  0.00  0.00    +0.153 A 
ATOM     29  C   UNL     1      12.152   2.331  -2.054  0.00  0.00    +0.051 A 
ATOM     30  C   UNL     1      11.095   2.502  -2.980  0.00  0.00    +0.042 A 
ATOM     31  C   UNL     1      10.595   3.765  -2.760  0.00  0.00    +0.196 A 
ENDBRANCH  19  23
ENDBRANCH  13   6
BRANCH  14   7
ATOM      3  O   UNL     1       9.105   8.045   8.481  0.00  0.00    -0.252 OA
ATOM      7  N   UNL     1       9.871   8.440   6.335  0.00  0.00    -0.292 N 
ATOM      8  N   UNL     1      10.090  10.098   7.910  0.00  0.00    -0.269 N 
ATOM     18  C   UNL     1       9.637   8.799   7.668  0.00  0.00    +0.304 C 
ATOM     35  H   UNL     1      10.377   9.093   5.743  0.00  0.00    +0.151 HD
ATOM     36  H   UNL     1      10.508  10.589   7.123  0.00  0.00    +0.156 HD
BRANCH   8  20
ATOM     20  C   UNL     1      10.037  10.825   9.123  0.00  0.00    +0.035 A 
ATOM     24  C   UNL     1       8.807  11.096   9.698  0.00  0.00    +0.024 A 
ATOM     25  C   UNL     1      11.218  11.250   9.709  0.00  0.00    +0.024 A 
ATOM     26  C   UNL     1       8.756  11.813  10.893  0.00  0.00    +0.013 A 
ATOM     27  C   UNL     1      11.166  11.967  10.905  0.00  0.00    +0.013 A 
ATOM     28  C   UNL     1       9.935  12.248  11.497  0.00  0.00    +0.017 A 
BRANCH  28  32
ATOM      5  O   UNL     1       8.990  12.787  13.590  0.00  0.00    -0.292 OA
ATOM     32  C   UNL     1       9.882  12.995  12.744  0.00  0.00    +0.160 C 
ATOM     33  C   UNL     1      10.930  14.062  13.046  0.00  0.00    +0.091 C 
ENDBRANCH  28  32
ENDBRANCH   8  20
ENDBRANCH  14   7
TORSDOF 5
ENDMDL
MODEL 7
REMARK VINA RESULT:      -6.9      9.261     11.848
REMARK  Name = 11941652
REMARK  6 active torsions:
REMARK  status: ('A' for Active; 'I' for Inactive)
REMARK    1  A    between atoms: N_6  and  C_13
REMARK    2  A    between atoms: N_7  and  C_14
REMARK    3  A    between atoms: N_8  and  C_20
REMARK    4  A    between atoms: C_19  and  C_23
REMARK    5  A    between atoms: C_28  and  C_32
REMARK    6  A    between atoms: C_32  and  C_33
REMARK                            x       y       z     vdW  Elec       q    Type
REMARK                         _______ _______ _______ _____ _____    ______ ____
ROOT
ATOM      1  O   UNL     1      10.604   8.545  20.570  0.00  0.00    -0.370 OA
ATOM      2  O   UNL     1      13.599   9.104  21.249  0.00  0.00    -0.370 OA
ATOM     11  C   UNL     1      12.394   9.872  21.406  0.00  0.00    +0.171 C 
ATOM     12  C   UNL     1      11.519   9.591  20.200  0.00  0.00    +0.171 C 
ATOM     13  C   UNL     1      11.590   9.352  22.574  0.00  0.00    +0.130 C 
ATOM     14  C   UNL     1      12.488   9.096  19.151  0.00  0.00    +0.131 C 
ATOM     15  C   UNL     1      10.796   8.217  21.953  0.00  0.00    +0.185 C 
ATOM     16  C   UNL     1      13.556   8.415  19.990  0.00  0.00    +0.185 C 
ENDROOT
BRANCH  13   6
ATOM      6  N   UNL     1      10.697  10.382  23.059  0.00  0.00    -0.306 N 
ATOM      9  N   UNL     1      12.364  11.354  24.394  0.00  0.00    -0.211 NA
ATOM     10  N   UNL     1      10.138  12.276  24.326  0.00  0.00    -0.223 NA
ATOM     17  C   UNL     1      11.078  11.366  23.953  0.00  0.00    +0.216 A 
ATOM     19  C   UNL     1      12.701  12.329  25.264  0.00  0.00    +0.111 A 
ATOM     21  C   UNL     1      10.544  13.222  25.198  0.00  0.00    +0.116 A 
ATOM     22  C   UNL     1      11.825  13.299  25.706  0.00  0.00    +0.051 A 
ATOM     34  H   UNL     1       9.752  10.432  22.697  0.00  0.00    +0.149 HD
BRANCH  19  23
ATOM      4  O   UNL     1      14.303  11.489  26.784  0.00  0.00    -0.461 OA
ATOM     23  C   UNL     1      14.068  12.289  25.713  0.00  0.00    +0.153 A 
ATOM     29  C   UNL     1      15.226  12.895  25.294  0.00  0.00    +0.051 A 
ATOM     30  C   UNL     1      16.244  12.438  26.165  0.00  0.00    +0.042 A 
ATOM     31  C   UNL     1      15.631  11.585  27.053  0.00  0.00    +0.196 A 
ENDBRANCH  19  23
ENDBRANCH  13   6
BRANCH  14   7
ATOM      3  O   UNL     1      13.392   9.010  16.434  0.00  0.00    -0.252 OA
ATOM      7  N   UNL     1      13.039  10.190  18.391  0.00  0.00    -0.292 N 
ATOM      8  N   UNL     1      13.946  11.286  16.586  0.00  0.00    -0.269 N 
ATOM     18  C   UNL     1      13.459  10.065  17.061  0.00  0.00    +0.304 C 
ATOM     35  H   UNL     1      13.065  11.111  18.818  0.00  0.00    +0.151 HD
ATOM     36  H   UNL     1      13.933  12.065  17.239  0.00  0.00    +0.156 HD
BRANCH   8  20
ATOM     20  C   UNL     1      14.462  11.575  15.301  0.00  0.00    +0.035 A 
ATOM     24  C   UNL     1      15.813  11.393  15.056  0.00  0.00    +0.024 A 
ATOM     25  C   UNL     1      13.604  12.034  14.316  0.00  0.00    +0.024 A 
ATOM     26  C   UNL     1      16.320  11.679  13.789  0.00  0.00    +0.013 A 
ATOM     27  C   UNL     1      14.112  12.320  13.048  0.00  0.00    +0.013 A 
ATOM     28  C   UNL     1      15.471  12.142  12.784  0.00  0.00    +0.017 A 
BRANCH  28  32
ATOM      5  O   UNL     1      17.156  12.109  11.135  0.00  0.00    -0.292 OA
ATOM     32  C   UNL     1      15.999  12.439  11.463  0.00  0.00    +0.160 C 
ATOM     33  C   UNL     1      15.139  13.170  10.437  0.00  0.00    +0.091 C 
ENDBRANCH  28  32
ENDBRANCH   8  20
ENDBRANCH  14   7
TORSDOF 5
ENDMDL
MODEL 8
REMARK VINA RESULT:      -6.9     15.617     20.364
REMARK  Name = 11941652
REMARK  6 active torsions:
REMARK  status: ('A' for Active; 'I' for Inactive)
REMARK    1  A    between atoms: N_6  and  C_13
REMARK    2  A    between atoms: N_7  and  C_14
REMARK    3  A    between atoms: N_8  and  C_20
REMARK    4  A    between atoms: C_19  and  C_23
REMARK    5  A    between atoms: C_28  and  C_32
REMARK    6  A    between atoms: C_32  and  C_33
REMARK                            x       y       z     vdW  Elec       q    Type
REMARK                         _______ _______ _______ _____ _____    ______ ____
ROOT
ATOM      1  O   UNL     1       8.640   7.487   6.533  0.00  0.00    -0.370 OA
ATOM      2  O   UNL     1      10.859   5.888   8.036  0.00  0.00    -0.370 OA
ATOM     11  C   UNL     1      10.896   6.951   7.069  0.00  0.00    +0.171 C 
ATOM     12  C   UNL     1       9.765   6.709   6.089  0.00  0.00    +0.171 C 
ATOM     13  C   UNL     1      10.542   8.266   7.723  0.00  0.00    +0.130 C 
ATOM     14  C   UNL     1       9.470   5.233   6.226  0.00  0.00    +0.131 C 
ATOM     15  C   UNL     1       9.025   8.263   7.676  0.00  0.00    +0.185 C 
ATOM     16  C   UNL     1       9.819   4.965   7.679  0.00  0.00    +0.185 C 
ENDROOT
BRANCH  13   6
ATOM      6  N   UNL     1      11.065   9.365   6.942  0.00  0.00    -0.306 N 
ATOM      9  N   UNL     1      11.358  10.717   8.837  0.00  0.00    -0.211 NA
ATOM     10  N   UNL     1      11.944  11.520   6.641  0.00  0.00    -0.223 NA
ATOM     17  C   UNL     1      11.467  10.570   7.490  0.00  0.00    +0.216 A 
ATOM     19  C   UNL     1      11.760  11.904   9.338  0.00  0.00    +0.111 A 
ATOM     21  C   UNL     1      12.327  12.682   7.210  0.00  0.00    +0.116 A 
ATOM     22  C   UNL     1      12.258  12.933   8.565  0.00  0.00    +0.051 A 
ATOM     34  H   UNL     1      11.200   9.247   5.945  0.00  0.00    +0.149 HD
BRANCH  19  23
ATOM      4  O   UNL     1      10.377  11.857  11.252  0.00  0.00    -0.461 OA
ATOM     23  C   UNL     1      11.632  12.030  10.766  0.00  0.00    +0.153 A 
ATOM     29  C   UNL     1      12.516  12.296  11.781  0.00  0.00    +0.051 A 
ATOM     30  C   UNL     1      11.755  12.285  12.975  0.00  0.00    +0.042 A 
ATOM     31  C   UNL     1      10.460  12.013  12.599  0.00  0.00    +0.196 A 
ENDBRANCH  19  23
ENDBRANCH  13   6
BRANCH  14   7
ATOM      3  O   UNL     1       9.862   5.672   3.422  0.00  0.00    -0.252 OA
ATOM      7  N   UNL     1      10.295   4.451   5.338  0.00  0.00    -0.292 N 
ATOM      8  N   UNL     1      11.292   3.810   3.369  0.00  0.00    -0.269 N 
ATOM     18  C   UNL     1      10.434   4.733   3.973  0.00  0.00    +0.304 C 
ATOM     35  H   UNL     1      10.852   3.699   5.732  0.00  0.00    +0.151 HD
ATOM     36  H   UNL     1      11.682   3.089   3.972  0.00  0.00    +0.156 HD
BRANCH   8  20
ATOM     20  C   UNL     1      11.688   3.750   2.013  0.00  0.00    +0.035 A 
ATOM     24  C   UNL     1      12.999   3.427   1.704  0.00  0.00    +0.024 A 
ATOM     25  C   UNL     1      10.757   4.016   1.023  0.00  0.00    +0.024 A 
ATOM     26  C   UNL     1      13.390   3.369   0.366  0.00  0.00    +0.013 A 
ATOM     27  C   UNL     1      11.148   3.957  -0.315  0.00  0.00    +0.013 A 
ATOM     28  C   UNL     1      12.464   3.633  -0.644  0.00  0.00    +0.017 A 
BRANCH  28  32
ATOM      5  O   UNL     1      13.912   4.129  -2.439  0.00  0.00    -0.292 OA
ATOM     32  C   UNL     1      12.871   3.571  -2.038  0.00  0.00    +0.160 C 
ATOM     33  C   UNL     1      12.022   2.812  -3.054  0.00  0.00    +0.091 C 
ENDBRANCH  28  32
ENDBRANCH   8  20
ENDBRANCH  14   7
TORSDOF 5
ENDMDL
MODEL 9
REMARK VINA RESULT:      -6.8     24.867     29.734
REMARK  Name = 11941652
REMARK  6 active torsions:
REMARK  status: ('A' for Active; 'I' for Inactive)
REMARK    1  A    between atoms: N_6  and  C_13
REMARK    2  A    between atoms: N_7  and  C_14
REMARK    3  A    between atoms: N_8  and  C_20
REMARK    4  A    between atoms: C_19  and  C_23
REMARK    5  A    between atoms: C_28  and  C_32
REMARK    6  A    between atoms: C_32  and  C_33
REMARK                            x       y       z     vdW  Elec       q    Type
REMARK                         _______ _______ _______ _____ _____    ______ ____
ROOT
ATOM      1  O   UNL     1       6.891   7.850  -5.451  0.00  0.00    -0.370 OA
ATOM      2  O   UNL     1       6.228   6.229  -2.867  0.00  0.00    -0.370 OA
ATOM     11  C   UNL     1       7.242   6.099  -3.878  0.00  0.00    +0.171 C 
ATOM     12  C   UNL     1       6.606   6.462  -5.205  0.00  0.00    +0.171 C 
ATOM     13  C   UNL     1       8.313   7.146  -3.683  0.00  0.00    +0.130 C 
ATOM     14  C   UNL     1       5.126   6.263  -4.969  0.00  0.00    +0.131 C 
ATOM     15  C   UNL     1       7.735   8.350  -4.405  0.00  0.00    +0.185 C 
ATOM     16  C   UNL     1       4.986   6.586  -3.492  0.00  0.00    +0.185 C 
ENDROOT
BRANCH  13   6
ATOM      6  N   UNL     1       9.542   6.723  -4.318  0.00  0.00    -0.306 N 
ATOM      9  N   UNL     1      10.340   5.717  -2.354  0.00  0.00    -0.211 NA
ATOM     10  N   UNL     1      11.643   5.682  -4.381  0.00  0.00    -0.223 NA
ATOM     17  C   UNL     1      10.538   6.020  -3.664  0.00  0.00    +0.216 A 
ATOM     19  C   UNL     1      11.331   5.031  -1.749  0.00  0.00    +0.111 A 
ATOM     21  C   UNL     1      12.594   4.996  -3.713  0.00  0.00    +0.116 A 
ATOM     22  C   UNL     1      12.492   4.639  -2.384  0.00  0.00    +0.051 A 
ATOM     34  H   UNL     1       9.676   6.897  -5.307  0.00  0.00    +0.149 HD
BRANCH  19  23
ATOM      4  O   UNL     1      12.114   4.099   0.276  0.00  0.00    -0.461 OA
ATOM     23  C   UNL     1      11.093   4.726  -0.362  0.00  0.00    +0.153 A 
ATOM     29  C   UNL     1      10.037   4.929   0.490  0.00  0.00    +0.051 A 
ATOM     30  C   UNL     1      10.432   4.392   1.739  0.00  0.00    +0.042 A 
ATOM     31  C   UNL     1      11.704   3.899   1.556  0.00  0.00    +0.196 A 
ENDBRANCH  19  23
ENDBRANCH  13   6
BRANCH  14   7
ATOM      3  O   UNL     1       2.479   5.334  -5.548  0.00  0.00    -0.252 OA
ATOM      7  N   UNL     1       4.731   4.904  -5.247  0.00  0.00    -0.292 N 
ATOM      8  N   UNL     1       3.329   3.155  -5.752  0.00  0.00    -0.269 N 
ATOM     18  C   UNL     1       3.410   4.531  -5.522  0.00  0.00    +0.304 C 
ATOM     35  H   UNL     1       5.454   4.194  -5.311  0.00  0.00    +0.151 HD
ATOM     36  H   UNL     1       4.199   2.632  -5.690  0.00  0.00    +0.156 HD
BRANCH   8  20
ATOM     20  C   UNL     1       2.179   2.391  -6.060  0.00  0.00    +0.035 A 
ATOM     24  C   UNL     1       1.489   2.648  -7.233  0.00  0.00    +0.024 A 
ATOM     25  C   UNL     1       1.768   1.402  -5.182  0.00  0.00    +0.024 A 
ATOM     26  C   UNL     1       0.355   1.895  -7.536  0.00  0.00    +0.013 A 
ATOM     27  C   UNL     1       0.634   0.648  -5.486  0.00  0.00    +0.013 A 
ATOM     28  C   UNL     1      -0.073   0.894  -6.663  0.00  0.00    +0.017 A 
BRANCH  28  32
ATOM      5  O   UNL     1      -2.162   0.560  -7.705  0.00  0.00    -0.292 OA
ATOM     32  C   UNL     1      -1.254   0.108  -6.980  0.00  0.00    +0.160 C 
ATOM     33  C   UNL     1      -1.409  -1.304  -6.424  0.00  0.00    +0.091 C 
ENDBRANCH  28  32
ENDBRANCH   8  20
ENDBRANCH  14   7
TORSDOF 5
ENDMDL
MODEL 10
REMARK VINA RESULT:      -6.8     18.637     26.607
REMARK  Name = 11941652
REMARK  6 active torsions:
REMARK  status: ('A' for Active; 'I' for Inactive)
REMARK    1  A    between atoms: N_6  and  C_13
REMARK    2  A    between atoms: N_7  and  C_14
REMARK    3  A    between atoms: N_8  and  C_20
REMARK    4  A    between atoms: C_19  and  C_23
REMARK    5  A    between atoms: C_28  and  C_32
REMARK    6  A    between atoms: C_32  and  C_33
REMARK                            x       y       z     vdW  Elec       q    Type
REMARK                         _______ _______ _______ _____ _____    ______ ____
ROOT
ATOM      1  O   UNL     1       4.624  12.838   3.440  0.00  0.00    -0.370 OA
ATOM      2  O   UNL     1       4.278  10.770   1.128  0.00  0.00    -0.370 OA
ATOM     11  C   UNL     1       3.698  10.889   2.438  0.00  0.00    +0.171 C 
ATOM     12  C   UNL     1       4.778  11.411   3.365  0.00  0.00    +0.171 C 
ATOM     13  C   UNL     1       2.646  11.973   2.449  0.00  0.00    +0.130 C 
ATOM     14  C   UNL     1       6.068  11.058   2.660  0.00  0.00    +0.131 C 
ATOM     15  C   UNL     1       3.465  13.228   2.689  0.00  0.00    +0.185 C 
ATOM     16  C   UNL     1       5.668  11.123   1.197  0.00  0.00    +0.185 C 
ENDROOT
BRANCH  13   6
ATOM      6  N   UNL     1       1.725  11.759   3.544  0.00  0.00    -0.306 N 
ATOM      9  N   UNL     1       0.082  10.858   2.131  0.00  0.00    -0.211 NA
ATOM     10  N   UNL     1      -0.300  11.062   4.502  0.00  0.00    -0.223 NA
ATOM     17  C   UNL     1       0.465  11.210   3.387  0.00  0.00    +0.216 A 
ATOM     19  C   UNL     1      -1.152  10.325   2.015  0.00  0.00    +0.111 A 
ATOM     21  C   UNL     1      -1.523  10.523   4.313  0.00  0.00    +0.116 A 
ATOM     22  C   UNL     1      -2.007  10.132   3.081  0.00  0.00    +0.051 A 
ATOM     34  H   UNL     1       2.020  11.969   4.490  0.00  0.00    +0.149 HD
BRANCH  19  23
ATOM      4  O   UNL     1      -2.855   9.749   0.484  0.00  0.00    -0.461 OA
ATOM     23  C   UNL     1      -1.529   9.964   0.675  0.00  0.00    +0.153 A 
ATOM     29  C   UNL     1      -0.832   9.779  -0.493  0.00  0.00    +0.051 A 
ATOM     30  C   UNL     1      -1.793   9.427  -1.471  0.00  0.00    +0.042 A 
ATOM     31  C   UNL     1      -3.009   9.422  -0.827  0.00  0.00    +0.196 A 
ENDBRANCH  19  23
ENDBRANCH  13   6
BRANCH  14   7
ATOM      3  O   UNL     1       7.435  10.310   5.064  0.00  0.00    -0.252 OA
ATOM      7  N   UNL     1       6.516   9.735   3.022  0.00  0.00    -0.292 N 
ATOM      8  N   UNL     1       7.491   8.092   4.297  0.00  0.00    -0.269 N 
ATOM     18  C   UNL     1       7.180   9.452   4.221  0.00  0.00    +0.304 C 
ATOM     35  H   UNL     1       6.281   8.961   2.407  0.00  0.00    +0.151 HD
ATOM     36  H   UNL     1       7.208   7.516   3.508  0.00  0.00    +0.156 HD
BRANCH   8  20
ATOM     20  C   UNL     1       8.156   7.409   5.342  0.00  0.00    +0.035 A 
ATOM     24  C   UNL     1       8.242   8.001   6.591  0.00  0.00    +0.024 A 
ATOM     25  C   UNL     1       8.708   6.163   5.094  0.00  0.00    +0.024 A 
ATOM     26  C   UNL     1       8.900   7.328   7.621  0.00  0.00    +0.013 A 
ATOM     27  C   UNL     1       9.364   5.490   6.124  0.00  0.00    +0.013 A 
ATOM     28  C   UNL     1       9.460   6.072   7.388  0.00  0.00    +0.017 A 
BRANCH  28  32
ATOM      5  O   UNL     1      11.355   5.555   8.694  0.00  0.00    -0.292 OA
ATOM     32  C   UNL     1      10.144   5.370   8.462  0.00  0.00    +0.160 C 
ATOM     33  C   UNL     1       9.384   4.378   9.338  0.00  0.00    +0.091 C 
ENDBRANCH  28  32
ENDBRANCH   8  20
ENDBRANCH  14   7
TORSDOF 5
ENDMDL
