MODEL 1
REMARK VINA RESULT:      -9.0      0.000      0.000
REMARK  Name = 56774668
REMARK  7 active torsions:
REMARK  status: ('A' for Active; 'I' for Inactive)
REMARK    1  A    between atoms: O_3  and  C_10
REMARK    2  A    between atoms: N_6  and  C_12
REMARK    3  A    between atoms: N_7  and  C_23
REMARK    4  A    between atoms: N_8  and  C_28
REMARK    5  A    between atoms: C_9  and  C_10
REMARK    6  A    between atoms: C_10  and  C_14
REMARK    7  A    between atoms: C_12  and  C_16
REMARK                            x       y       z     vdW  Elec       q    Type
REMARK                         _______ _______ _______ _____ _____    ______ ____
ROOT
ATOM     10  C   UNL     1      14.504   6.764  19.879  0.00  0.00    +0.167 C 
ENDROOT
BRANCH  10   9
ATOM      2  O   UNL     1      13.615   8.125  17.436  0.00  0.00    -0.369 OA
ATOM      4  O   UNL     1      10.551   8.471  19.315  0.00  0.00    -0.273 OA
ATOM      6  N   UNL     1      12.750   8.486  20.078  0.00  0.00    -0.287 N 
ATOM      9  C   UNL     1      14.164   8.253  19.759  0.00  0.00    +0.135 C 
ATOM     11  C   UNL     1      14.477   8.776  18.363  0.00  0.00    +0.185 C 
ATOM     13  C   UNL     1      11.764   8.454  19.095  0.00  0.00    +0.242 C 
ATOM     15  C   UNL     1      12.270   8.485  17.657  0.00  0.00    +0.255 C 
BRANCH   6  12
ATOM     12  C   UNL     1      12.383   8.572  21.486  0.00  0.00    +0.146 C 
BRANCH  12  16
ATOM      1  F   UNL     1      14.701   9.626  22.725  0.00  0.00    -0.205 F 
ATOM     16  C   UNL     1      12.467   9.978  22.004  0.00  0.00    +0.005 A 
ATOM     21  C   UNL     1      13.640  10.436  22.603  0.00  0.00    +0.128 A 
ATOM     22  C   UNL     1      11.368  10.828  21.884  0.00  0.00    +0.008 A 
ATOM     24  C   UNL     1      13.713  11.743  23.084  0.00  0.00    +0.038 A 
ATOM     25  C   UNL     1      11.441  12.136  22.365  0.00  0.00    +0.000 A 
ATOM     26  C   UNL     1      12.613  12.593  22.966  0.00  0.00    +0.003 A 
ENDBRANCH  12  16
ENDBRANCH   6  12
ENDBRANCH  10   9
BRANCH  10  14
ATOM     14  C   UNL     1      15.990   6.539  20.008  0.00  0.00    -0.017 A 
ATOM     17  C   UNL     1      16.691   5.900  18.985  0.00  0.00    +0.008 A 
ATOM     18  C   UNL     1      16.662   6.971  21.152  0.00  0.00    +0.008 A 
ATOM     19  C   UNL     1      18.065   5.692  19.106  0.00  0.00    +0.024 A 
ATOM     20  C   UNL     1      18.037   6.763  21.272  0.00  0.00    +0.024 A 
ATOM     23  C   UNL     1      18.737   6.124  20.249  0.00  0.00    +0.035 A 
BRANCH  23   7
ATOM      5  O   UNL     1      20.289   3.587  20.527  0.00  0.00    -0.252 OA
ATOM      7  N   UNL     1      20.113   5.917  20.370  0.00  0.00    -0.269 N 
ATOM      8  N   UNL     1      22.194   4.941  20.592  0.00  0.00    -0.269 N 
ATOM     27  C   UNL     1      20.815   4.694  20.499  0.00  0.00    +0.308 C 
ATOM     35  H   UNL     1      20.683   6.760  20.363  0.00  0.00    +0.156 HD
ATOM     36  H   UNL     1      22.487   5.914  20.556  0.00  0.00    +0.156 HD
BRANCH   8  28
ATOM     28  C   UNL     1      23.240   3.999  20.732  0.00  0.00    +0.035 A 
ATOM     29  C   UNL     1      24.351   4.061  19.891  0.00  0.00    +0.023 A 
ATOM     30  C   UNL     1      23.160   3.007  21.709  0.00  0.00    +0.023 A 
ATOM     31  C   UNL     1      25.383   3.133  20.028  0.00  0.00    +0.002 A 
ATOM     32  C   UNL     1      24.191   2.078  21.847  0.00  0.00    +0.002 A 
ATOM     33  C   UNL     1      25.303   2.141  21.006  0.00  0.00    +0.000 A 
ENDBRANCH   8  28
ENDBRANCH  23   7
ENDBRANCH  10  14
BRANCH  10   3
ATOM      3  O   UNL     1      13.841   6.219  21.015  0.00  0.00    -0.385 OA
ATOM     34  H   UNL     1      12.888   6.165  20.835  0.00  0.00    +0.210 HD
ENDBRANCH  10   3
TORSDOF 7
ENDMDL
MODEL 2
REMARK VINA RESULT:      -8.2      4.835      8.922
REMARK  Name = 56774668
REMARK  7 active torsions:
REMARK  status: ('A' for Active; 'I' for Inactive)
REMARK    1  A    between atoms: O_3  and  C_10
REMARK    2  A    between atoms: N_6  and  C_12
REMARK    3  A    between atoms: N_7  and  C_23
REMARK    4  A    between atoms: N_8  and  C_28
REMARK    5  A    between atoms: C_9  and  C_10
REMARK    6  A    between atoms: C_10  and  C_14
REMARK    7  A    between atoms: C_12  and  C_16
REMARK                            x       y       z     vdW  Elec       q    Type
REMARK                         _______ _______ _______ _____ _____    ______ ____
ROOT
ATOM     10  C   UNL     1      11.714   9.453  19.432  0.00  0.00    +0.167 C 
ENDROOT
BRANCH  10   9
ATOM      2  O   UNL     1      10.712   9.111  22.168  0.00  0.00    -0.369 OA
ATOM      4  O   UNL     1      10.936   5.612  21.303  0.00  0.00    -0.273 OA
ATOM      6  N   UNL     1      12.295   7.379  20.634  0.00  0.00    -0.287 N 
ATOM      9  C   UNL     1      12.492   8.833  20.598  0.00  0.00    +0.135 C 
ATOM     11  C   UNL     1      12.072   9.450  21.926  0.00  0.00    +0.185 C 
ATOM     13  C   UNL     1      11.261   6.799  21.365  0.00  0.00    +0.242 C 
ATOM     15  C   UNL     1      10.564   7.722  22.360  0.00  0.00    +0.255 C 
BRANCH   6  12
ATOM     12  C   UNL     1      13.104   6.567  19.734  0.00  0.00    +0.146 C 
BRANCH  12  16
ATOM      1  F   UNL     1      15.129   6.913  17.785  0.00  0.00    -0.205 F 
ATOM     16  C   UNL     1      14.564   6.638  20.074  0.00  0.00    +0.005 A 
ATOM     21  C   UNL     1      15.512   6.810  19.065  0.00  0.00    +0.128 A 
ATOM     22  C   UNL     1      14.973   6.531  21.403  0.00  0.00    +0.008 A 
ATOM     24  C   UNL     1      16.868   6.874  19.385  0.00  0.00    +0.038 A 
ATOM     25  C   UNL     1      16.330   6.595  21.724  0.00  0.00    +0.000 A 
ATOM     26  C   UNL     1      17.278   6.766  20.714  0.00  0.00    +0.003 A 
ENDBRANCH  12  16
ENDBRANCH   6  12
ENDBRANCH  10   9
BRANCH  10  14
ATOM     14  C   UNL     1      12.593   9.670  18.226  0.00  0.00    -0.017 A 
ATOM     17  C   UNL     1      12.171   9.239  16.968  0.00  0.00    +0.008 A 
ATOM     18  C   UNL     1      13.827  10.304  18.369  0.00  0.00    +0.008 A 
ATOM     19  C   UNL     1      12.984   9.441  15.853  0.00  0.00    +0.024 A 
ATOM     20  C   UNL     1      14.640  10.506  17.254  0.00  0.00    +0.024 A 
ATOM     23  C   UNL     1      14.219  10.074  15.996  0.00  0.00    +0.035 A 
BRANCH  23   7
ATOM      5  O   UNL     1      14.709  12.544  14.391  0.00  0.00    -0.252 OA
ATOM      7  N   UNL     1      15.032  10.277  14.880  0.00  0.00    -0.269 N 
ATOM      8  N   UNL     1      16.141  11.229  13.092  0.00  0.00    -0.269 N 
ATOM     27  C   UNL     1      15.241  11.468  14.142  0.00  0.00    +0.308 C 
ATOM     35  H   UNL     1      15.542   9.457  14.557  0.00  0.00    +0.156 HD
ATOM     36  H   UNL     1      16.502  10.283  13.006  0.00  0.00    +0.156 HD
BRANCH   8  28
ATOM     28  C   UNL     1      16.614  12.147  12.125  0.00  0.00    +0.035 A 
ATOM     29  C   UNL     1      15.769  12.582  11.104  0.00  0.00    +0.023 A 
ATOM     30  C   UNL     1      17.926  12.617  12.192  0.00  0.00    +0.023 A 
ATOM     31  C   UNL     1      16.235  13.487  10.150  0.00  0.00    +0.002 A 
ATOM     32  C   UNL     1      18.392  13.522  11.238  0.00  0.00    +0.002 A 
ATOM     33  C   UNL     1      17.546  13.957  10.218  0.00  0.00    +0.000 A 
ENDBRANCH   8  28
ENDBRANCH  23   7
ENDBRANCH  10  14
BRANCH  10   3
ATOM      3  O   UNL     1      10.631   8.598  19.082  0.00  0.00    -0.385 OA
ATOM     34  H   UNL     1      10.041   8.497  19.847  0.00  0.00    +0.210 HD
ENDBRANCH  10   3
TORSDOF 7
ENDMDL
MODEL 3
REMARK VINA RESULT:      -7.4     28.070     31.838
REMARK  Name = 56774668
REMARK  7 active torsions:
REMARK  status: ('A' for Active; 'I' for Inactive)
REMARK    1  A    between atoms: O_3  and  C_10
REMARK    2  A    between atoms: N_6  and  C_12
REMARK    3  A    between atoms: N_7  and  C_23
REMARK    4  A    between atoms: N_8  and  C_28
REMARK    5  A    between atoms: C_9  and  C_10
REMARK    6  A    between atoms: C_10  and  C_14
REMARK    7  A    between atoms: C_12  and  C_16
REMARK                            x       y       z     vdW  Elec       q    Type
REMARK                         _______ _______ _______ _____ _____    ______ ____
ROOT
ATOM     10  C   UNL     1      -3.616 -10.658  15.904  0.00  0.00    +0.167 C 
ENDROOT
BRANCH  10   9
ATOM      2  O   UNL     1      -1.867 -10.817  13.554  0.00  0.00    -0.369 OA
ATOM      4  O   UNL     1      -2.096 -14.359  14.219  0.00  0.00    -0.273 OA
ATOM      6  N   UNL     1      -3.700 -12.702  14.528  0.00  0.00    -0.287 N 
ATOM      9  C   UNL     1      -3.994 -11.264  14.549  0.00  0.00    +0.135 C 
ATOM     11  C   UNL     1      -3.260 -10.564  13.412  0.00  0.00    +0.185 C 
ATOM     13  C   UNL     1      -2.467 -13.190  14.102  0.00  0.00    +0.242 C 
ATOM     15  C   UNL     1      -1.581 -12.186  13.372  0.00  0.00    +0.255 C 
BRANCH   6  12
ATOM     12  C   UNL     1      -4.674 -13.597  15.138  0.00  0.00    +0.146 C 
BRANCH  12  16
ATOM      1  F   UNL     1      -6.823 -13.512  16.981  0.00  0.00    -0.205 F 
ATOM     16  C   UNL     1      -6.080 -13.253  14.741  0.00  0.00    +0.005 A 
ATOM     21  C   UNL     1      -7.093 -13.228  15.699  0.00  0.00    +0.128 A 
ATOM     22  C   UNL     1      -6.372 -12.957  13.410  0.00  0.00    +0.008 A 
ATOM     24  C   UNL     1      -8.399 -12.908  15.326  0.00  0.00    +0.038 A 
ATOM     25  C   UNL     1      -7.678 -12.637  13.036  0.00  0.00    +0.000 A 
ATOM     26  C   UNL     1      -8.692 -12.613  13.994  0.00  0.00    +0.003 A 
ENDBRANCH  12  16
ENDBRANCH   6  12
ENDBRANCH  10   9
BRANCH  10  14
ATOM     14  C   UNL     1      -4.810 -10.546  16.820  0.00  0.00    -0.017 A 
ATOM     17  C   UNL     1      -4.766 -11.108  18.096  0.00  0.00    +0.008 A 
ATOM     18  C   UNL     1      -5.957  -9.879  16.389  0.00  0.00    +0.008 A 
ATOM     19  C   UNL     1      -5.870 -11.004  18.942  0.00  0.00    +0.024 A 
ATOM     20  C   UNL     1      -7.061  -9.775  17.236  0.00  0.00    +0.024 A 
ATOM     23  C   UNL     1      -7.017 -10.337  18.511  0.00  0.00    +0.035 A 
BRANCH  23   7
ATOM      5  O   UNL     1      -9.825 -11.288  18.145  0.00  0.00    -0.252 OA
ATOM      7  N   UNL     1      -8.122 -10.232  19.358  0.00  0.00    -0.269 N 
ATOM      8  N   UNL     1     -10.243 -10.381  20.259  0.00  0.00    -0.269 N 
ATOM     27  C   UNL     1      -9.443 -10.697  19.150  0.00  0.00    +0.308 C 
ATOM     35  H   UNL     1      -7.950  -9.757  20.242  0.00  0.00    +0.156 HD
ATOM     36  H   UNL     1      -9.790  -9.886  21.023  0.00  0.00    +0.156 HD
BRANCH   8  28
ATOM     28  C   UNL     1     -11.615 -10.665  20.454  0.00  0.00    +0.035 A 
ATOM     29  C   UNL     1     -12.556  -9.639  20.386  0.00  0.00    +0.023 A 
ATOM     30  C   UNL     1     -12.027 -11.972  20.714  0.00  0.00    +0.023 A 
ATOM     31  C   UNL     1     -13.909  -9.918  20.577  0.00  0.00    +0.002 A 
ATOM     32  C   UNL     1     -13.380 -12.253  20.906  0.00  0.00    +0.002 A 
ATOM     33  C   UNL     1     -14.321 -11.225  20.837  0.00  0.00    +0.000 A 
ENDBRANCH   8  28
ENDBRANCH  23   7
ENDBRANCH  10  14
BRANCH  10   3
ATOM      3  O   UNL     1      -2.620 -11.467  16.521  0.00  0.00    -0.385 OA
ATOM     34  H   UNL     1      -2.067 -11.875  15.834  0.00  0.00    +0.210 HD
ENDBRANCH  10   3
TORSDOF 7
ENDMDL
MODEL 4
REMARK VINA RESULT:      -7.3     30.299     33.517
REMARK  Name = 56774668
REMARK  7 active torsions:
REMARK  status: ('A' for Active; 'I' for Inactive)
REMARK    1  A    between atoms: O_3  and  C_10
REMARK    2  A    between atoms: N_6  and  C_12
REMARK    3  A    between atoms: N_7  and  C_23
REMARK    4  A    between atoms: N_8  and  C_28
REMARK    5  A    between atoms: C_9  and  C_10
REMARK    6  A    between atoms: C_10  and  C_14
REMARK    7  A    between atoms: C_12  and  C_16
REMARK                            x       y       z     vdW  Elec       q    Type
REMARK                         _______ _______ _______ _____ _____    ______ ____
ROOT
ATOM     10  C   UNL     1     -18.082   4.909  21.319  0.00  0.00    +0.167 C 
ENDROOT
BRANCH  10   9
ATOM      2  O   UNL     1     -18.576   5.213  18.444  0.00  0.00    -0.369 OA
ATOM      4  O   UNL     1     -17.551   8.610  19.112  0.00  0.00    -0.273 OA
ATOM      6  N   UNL     1     -16.813   6.635  20.096  0.00  0.00    -0.287 N 
ATOM      9  C   UNL     1     -17.016   5.189  20.254  0.00  0.00    +0.135 C 
ATOM     11  C   UNL     1     -17.401   4.567  18.918  0.00  0.00    +0.185 C 
ATOM     13  C   UNL     1     -17.548   7.379  19.176  0.00  0.00    +0.242 C 
ATOM     15  C   UNL     1     -18.323   6.567  18.144  0.00  0.00    +0.255 C 
BRANCH   6  12
ATOM     12  C   UNL     1     -15.948   7.302  21.059  0.00  0.00    +0.146 C 
BRANCH  12  16
ATOM      1  F   UNL     1     -13.992   6.023  22.659  0.00  0.00    -0.205 F 
ATOM     16  C   UNL     1     -14.501   7.214  20.670  0.00  0.00    +0.005 A 
ATOM     21  C   UNL     1     -13.588   6.569  21.503  0.00  0.00    +0.128 A 
ATOM     22  C   UNL     1     -14.070   7.780  19.470  0.00  0.00    +0.008 A 
ATOM     24  C   UNL     1     -12.244   6.490  21.138  0.00  0.00    +0.038 A 
ATOM     25  C   UNL     1     -12.726   7.701  19.104  0.00  0.00    +0.000 A 
ATOM     26  C   UNL     1     -11.813   7.057  19.938  0.00  0.00    +0.003 A 
ENDBRANCH  12  16
ENDBRANCH   6  12
ENDBRANCH  10   9
BRANCH  10  14
ATOM     14  C   UNL     1     -17.467   4.672  22.676  0.00  0.00    -0.017 A 
ATOM     17  C   UNL     1     -16.382   3.805  22.809  0.00  0.00    +0.008 A 
ATOM     18  C   UNL     1     -17.984   5.320  23.798  0.00  0.00    +0.008 A 
ATOM     19  C   UNL     1     -15.814   3.586  24.064  0.00  0.00    +0.024 A 
ATOM     20  C   UNL     1     -17.416   5.102  25.053  0.00  0.00    +0.024 A 
ATOM     23  C   UNL     1     -16.331   4.235  25.186  0.00  0.00    +0.035 A 
BRANCH  23   7
ATOM      5  O   UNL     1     -16.701   1.977  27.105  0.00  0.00    -0.252 OA
ATOM      7  N   UNL     1     -15.763   4.017  26.442  0.00  0.00    -0.269 N 
ATOM      8  N   UNL     1     -15.193   3.108  28.487  0.00  0.00    -0.269 N 
ATOM     27  C   UNL     1     -15.962   2.930  27.327  0.00  0.00    +0.308 C 
ATOM     35  H   UNL     1     -15.119   4.739  26.760  0.00  0.00    +0.156 HD
ATOM     36  H   UNL     1     -14.625   3.951  28.534  0.00  0.00    +0.156 HD
BRANCH   8  28
ATOM     28  C   UNL     1     -15.104   2.257  29.613  0.00  0.00    +0.035 A 
ATOM     29  C   UNL     1     -15.010   0.876  29.438  0.00  0.00    +0.023 A 
ATOM     30  C   UNL     1     -15.113   2.797  30.899  0.00  0.00    +0.023 A 
ATOM     31  C   UNL     1     -14.923   0.036  30.548  0.00  0.00    +0.002 A 
ATOM     32  C   UNL     1     -15.026   1.958  32.010  0.00  0.00    +0.002 A 
ATOM     33  C   UNL     1     -14.931   0.577  31.834  0.00  0.00    +0.000 A 
ENDBRANCH   8  28
ENDBRANCH  23   7
ENDBRANCH  10  14
BRANCH  10   3
ATOM      3  O   UNL     1     -18.978   6.013  21.391  0.00  0.00    -0.385 OA
ATOM     34  H   UNL     1     -19.855   5.735  21.078  0.00  0.00    +0.210 HD
ENDBRANCH  10   3
TORSDOF 7
ENDMDL
MODEL 5
REMARK VINA RESULT:      -7.2     28.524     31.599
REMARK  Name = 56774668
REMARK  7 active torsions:
REMARK  status: ('A' for Active; 'I' for Inactive)
REMARK    1  A    between atoms: O_3  and  C_10
REMARK    2  A    between atoms: N_6  and  C_12
REMARK    3  A    between atoms: N_7  and  C_23
REMARK    4  A    between atoms: N_8  and  C_28
REMARK    5  A    between atoms: C_9  and  C_10
REMARK    6  A    between atoms: C_10  and  C_14
REMARK    7  A    between atoms: C_12  and  C_16
REMARK                            x       y       z     vdW  Elec       q    Type
REMARK                         _______ _______ _______ _____ _____    ______ ____
ROOT
ATOM     10  C   UNL     1     -12.640   8.592  19.495  0.00  0.00    +0.167 C 
ENDROOT
BRANCH  10   9
ATOM      2  O   UNL     1     -10.886  10.723  18.500  0.00  0.00    -0.369 OA
ATOM      4  O   UNL     1     -13.614  12.822  19.592  0.00  0.00    -0.273 OA
ATOM      6  N   UNL     1     -12.837  10.830  20.511  0.00  0.00    -0.287 N 
ATOM      9  C   UNL     1     -11.960   9.663  20.354  0.00  0.00    +0.135 C 
ATOM     11  C   UNL     1     -10.629  10.088  19.747  0.00  0.00    +0.185 C 
ATOM     13  C   UNL     1     -12.797  11.900  19.619  0.00  0.00    +0.242 C 
ATOM     15  C   UNL     1     -11.594  11.929  18.683  0.00  0.00    +0.255 C 
BRANCH   6  12
ATOM     12  C   UNL     1     -13.880  10.757  21.526  0.00  0.00    +0.146 C 
BRANCH  12  16
ATOM      1  F   UNL     1     -15.075   9.364  23.682  0.00  0.00    -0.205 F 
ATOM     16  C   UNL     1     -13.313  10.757  22.915  0.00  0.00    +0.005 A 
ATOM     21  C   UNL     1     -13.951  10.049  23.933  0.00  0.00    +0.128 A 
ATOM     22  C   UNL     1     -12.144  11.469  23.188  0.00  0.00    +0.008 A 
ATOM     24  C   UNL     1     -13.421  10.053  25.224  0.00  0.00    +0.038 A 
ATOM     25  C   UNL     1     -11.614  11.472  24.478  0.00  0.00    +0.000 A 
ATOM     26  C   UNL     1     -12.253  10.765  25.497  0.00  0.00    +0.003 A 
ENDBRANCH  12  16
ENDBRANCH   6  12
ENDBRANCH  10   9
BRANCH  10  14
ATOM     14  C   UNL     1     -13.125   7.432  20.328  0.00  0.00    -0.017 A 
ATOM     17  C   UNL     1     -12.213   6.660  21.048  0.00  0.00    +0.008 A 
ATOM     18  C   UNL     1     -14.486   7.132  20.378  0.00  0.00    +0.008 A 
ATOM     19  C   UNL     1     -12.662   5.587  21.818  0.00  0.00    +0.024 A 
ATOM     20  C   UNL     1     -14.935   6.059  21.149  0.00  0.00    +0.024 A 
ATOM     23  C   UNL     1     -14.023   5.287  21.868  0.00  0.00    +0.035 A 
BRANCH  23   7
ATOM      5  O   UNL     1     -15.897   5.236  24.193  0.00  0.00    -0.252 OA
ATOM      7  N   UNL     1     -14.473   4.214  22.640  0.00  0.00    -0.269 N 
ATOM      8  N   UNL     1     -15.547   2.925  24.226  0.00  0.00    -0.269 N 
ATOM     27  C   UNL     1     -15.365   4.228  23.739  0.00  0.00    +0.308 C 
ATOM     35  H   UNL     1     -14.108   3.302  22.373  0.00  0.00    +0.156 HD
ATOM     36  H   UNL     1     -15.039   2.184  23.749  0.00  0.00    +0.156 HD
BRANCH   8  28
ATOM     28  C   UNL     1     -16.354   2.503  25.308  0.00  0.00    +0.035 A 
ATOM     29  C   UNL     1     -16.141   3.028  26.583  0.00  0.00    +0.023 A 
ATOM     30  C   UNL     1     -17.363   1.562  25.102  0.00  0.00    +0.023 A 
ATOM     31  C   UNL     1     -16.937   2.613  27.651  0.00  0.00    +0.002 A 
ATOM     32  C   UNL     1     -18.160   1.147  26.169  0.00  0.00    +0.002 A 
ATOM     33  C   UNL     1     -17.947   1.673  27.444  0.00  0.00    +0.000 A 
ENDBRANCH   8  28
ENDBRANCH  23   7
ENDBRANCH  10  14
BRANCH  10   3
ATOM      3  O   UNL     1     -13.741   9.171  18.803  0.00  0.00    -0.385 OA
ATOM     34  H   UNL     1     -14.407   9.464  19.447  0.00  0.00    +0.210 HD
ENDBRANCH  10   3
TORSDOF 7
ENDMDL
MODEL 6
REMARK VINA RESULT:      -7.1     28.433     31.627
REMARK  Name = 56774668
REMARK  7 active torsions:
REMARK  status: ('A' for Active; 'I' for Inactive)
REMARK    1  A    between atoms: O_3  and  C_10
REMARK    2  A    between atoms: N_6  and  C_12
REMARK    3  A    between atoms: N_7  and  C_23
REMARK    4  A    between atoms: N_8  and  C_28
REMARK    5  A    between atoms: C_9  and  C_10
REMARK    6  A    between atoms: C_10  and  C_14
REMARK    7  A    between atoms: C_12  and  C_16
REMARK                            x       y       z     vdW  Elec       q    Type
REMARK                         _______ _______ _______ _____ _____    ______ ____
ROOT
ATOM     10  C   UNL     1     -11.667   9.711  20.037  0.00  0.00    +0.167 C 
ENDROOT
BRANCH  10   9
ATOM      2  O   UNL     1     -10.892  12.172  18.640  0.00  0.00    -0.369 OA
ATOM      4  O   UNL     1     -10.088   9.849  15.994  0.00  0.00    -0.273 OA
ATOM      6  N   UNL     1     -11.794   9.740  17.574  0.00  0.00    -0.287 N 
ATOM      9  C   UNL     1     -12.366  10.297  18.806  0.00  0.00    +0.135 C 
ATOM     11  C   UNL     1     -12.262  11.817  18.789  0.00  0.00    +0.185 C 
ATOM     13  C   UNL     1     -10.722  10.349  16.926  0.00  0.00    +0.242 C 
ATOM     15  C   UNL     1     -10.400  11.768  17.382  0.00  0.00    +0.255 C 
BRANCH   6  12
ATOM     12  C   UNL     1     -12.263   8.428  17.148  0.00  0.00    +0.146 C 
BRANCH  12  16
ATOM      1  F   UNL     1     -12.808   9.352  14.527  0.00  0.00    -0.205 F 
ATOM     16  C   UNL     1     -13.647   8.487  16.571  0.00  0.00    +0.005 A 
ATOM     21  C   UNL     1     -13.847   8.951  15.272  0.00  0.00    +0.128 A 
ATOM     22  C   UNL     1     -14.736   8.074  17.339  0.00  0.00    +0.008 A 
ATOM     24  C   UNL     1     -15.136   9.004  14.740  0.00  0.00    +0.038 A 
ATOM     25  C   UNL     1     -16.025   8.126  16.807  0.00  0.00    +0.000 A 
ATOM     26  C   UNL     1     -16.225   8.592  15.508  0.00  0.00    +0.003 A 
ENDBRANCH  12  16
ENDBRANCH   6  12
ENDBRANCH  10   9
BRANCH  10  14
ATOM     14  C   UNL     1     -12.346   8.454  20.520  0.00  0.00    -0.017 A 
ATOM     17  C   UNL     1     -13.728   8.436  20.709  0.00  0.00    +0.008 A 
ATOM     18  C   UNL     1     -11.591   7.309  20.776  0.00  0.00    +0.008 A 
ATOM     19  C   UNL     1     -14.356   7.272  21.155  0.00  0.00    +0.024 A 
ATOM     20  C   UNL     1     -12.219   6.146  21.222  0.00  0.00    +0.024 A 
ATOM     23  C   UNL     1     -13.600   6.128  21.412  0.00  0.00    +0.035 A 
BRANCH  23   7
ATOM      5  O   UNL     1     -15.559   5.721  23.629  0.00  0.00    -0.252 OA
ATOM      7  N   UNL     1     -14.228   4.963  21.858  0.00  0.00    -0.269 N 
ATOM      8  N   UNL     1     -15.538   3.462  23.025  0.00  0.00    -0.269 N 
ATOM     27  C   UNL     1     -15.155   4.808  22.916  0.00  0.00    +0.308 C 
ATOM     35  H   UNL     1     -13.984   4.115  21.351  0.00  0.00    +0.156 HD
ATOM     36  H   UNL     1     -15.119   2.813  22.364  0.00  0.00    +0.156 HD
BRANCH   8  28
ATOM     28  C   UNL     1     -16.442   2.885  23.948  0.00  0.00    +0.035 A 
ATOM     29  C   UNL     1     -17.689   2.436  23.515  0.00  0.00    +0.023 A 
ATOM     30  C   UNL     1     -16.086   2.766  25.292  0.00  0.00    +0.023 A 
ATOM     31  C   UNL     1     -18.580   1.868  24.424  0.00  0.00    +0.002 A 
ATOM     32  C   UNL     1     -16.977   2.198  26.202  0.00  0.00    +0.002 A 
ATOM     33  C   UNL     1     -18.224   1.748  25.768  0.00  0.00    +0.000 A 
ENDBRANCH   8  28
ENDBRANCH  23   7
ENDBRANCH  10  14
BRANCH  10   3
ATOM      3  O   UNL     1     -10.311   9.424  19.716  0.00  0.00    -0.385 OA
ATOM     34  H   UNL     1     -10.227   8.483  19.487  0.00  0.00    +0.210 HD
ENDBRANCH  10   3
TORSDOF 7
ENDMDL
MODEL 7
REMARK VINA RESULT:      -7.0     15.826     19.629
REMARK  Name = 56774668
REMARK  7 active torsions:
REMARK  status: ('A' for Active; 'I' for Inactive)
REMARK    1  A    between atoms: O_3  and  C_10
REMARK    2  A    between atoms: N_6  and  C_12
REMARK    3  A    between atoms: N_7  and  C_23
REMARK    4  A    between atoms: N_8  and  C_28
REMARK    5  A    between atoms: C_9  and  C_10
REMARK    6  A    between atoms: C_10  and  C_14
REMARK    7  A    between atoms: C_12  and  C_16
REMARK                            x       y       z     vdW  Elec       q    Type
REMARK                         _______ _______ _______ _____ _____    ______ ____
ROOT
ATOM     10  C   UNL     1      11.526   8.904   4.804  0.00  0.00    +0.167 C 
ENDROOT
BRANCH  10   9
ATOM      2  O   UNL     1      12.743  10.128   7.176  0.00  0.00    -0.369 OA
ATOM      4  O   UNL     1       9.343  10.018   8.388  0.00  0.00    -0.273 OA
ATOM      6  N   UNL     1      10.451   8.523   6.991  0.00  0.00    -0.287 N 
ATOM      9  C   UNL     1      11.647   8.250   6.184  0.00  0.00    +0.135 C 
ATOM     11  C   UNL     1      12.892   8.738   6.914  0.00  0.00    +0.185 C 
ATOM     13  C   UNL     1      10.370   9.639   7.821  0.00  0.00    +0.242 C 
ATOM     15  C   UNL     1      11.687  10.361   8.080  0.00  0.00    +0.255 C 
BRANCH   6  12
ATOM     12  C   UNL     1       9.279   7.690   6.760  0.00  0.00    +0.146 C 
BRANCH  12  16
ATOM      1  F   UNL     1      10.093   5.279   5.518  0.00  0.00    -0.205 F 
ATOM     16  C   UNL     1       9.367   6.381   7.490  0.00  0.00    +0.005 A 
ATOM     21  C   UNL     1       9.776   5.230   6.819  0.00  0.00    +0.128 A 
ATOM     22  C   UNL     1       9.038   6.319   8.844  0.00  0.00    +0.008 A 
ATOM     24  C   UNL     1       9.856   4.015   7.501  0.00  0.00    +0.038 A 
ATOM     25  C   UNL     1       9.117   5.105   9.527  0.00  0.00    +0.000 A 
ATOM     26  C   UNL     1       9.526   3.953   8.855  0.00  0.00    +0.003 A 
ENDBRANCH  12  16
ENDBRANCH   6  12
ENDBRANCH  10   9
BRANCH  10  14
ATOM     14  C   UNL     1      11.273   7.884   3.722  0.00  0.00    -0.017 A 
ATOM     17  C   UNL     1      10.021   7.809   3.112  0.00  0.00    +0.008 A 
ATOM     18  C   UNL     1      12.293   7.016   3.331  0.00  0.00    +0.008 A 
ATOM     19  C   UNL     1       9.787   6.866   2.111  0.00  0.00    +0.024 A 
ATOM     20  C   UNL     1      12.060   6.073   2.330  0.00  0.00    +0.024 A 
ATOM     23  C   UNL     1      10.807   5.998   1.721  0.00  0.00    +0.035 A 
BRANCH  23   7
ATOM      5  O   UNL     1      11.440   6.087  -1.197  0.00  0.00    -0.252 OA
ATOM      7  N   UNL     1      10.575   5.054   0.718  0.00  0.00    -0.269 N 
ATOM      8  N   UNL     1      10.480   3.958  -1.312  0.00  0.00    -0.269 N 
ATOM     27  C   UNL     1      10.890   5.132  -0.660  0.00  0.00    +0.308 C 
ATOM     35  H   UNL     1      10.117   4.198   1.024  0.00  0.00    +0.156 HD
ATOM     36  H   UNL     1      10.034   3.248  -0.737  0.00  0.00    +0.156 HD
BRANCH   8  28
ATOM     28  C   UNL     1      10.608   3.634  -2.683  0.00  0.00    +0.035 A 
ATOM     29  C   UNL     1      11.862   3.329  -3.213  0.00  0.00    +0.023 A 
ATOM     30  C   UNL     1       9.481   3.619  -3.505  0.00  0.00    +0.023 A 
ATOM     31  C   UNL     1      11.989   3.008  -4.565  0.00  0.00    +0.002 A 
ATOM     32  C   UNL     1       9.607   3.299  -4.857  0.00  0.00    +0.002 A 
ATOM     33  C   UNL     1      10.862   2.993  -5.387  0.00  0.00    +0.000 A 
ENDBRANCH   8  28
ENDBRANCH  23   7
ENDBRANCH  10  14
BRANCH  10   3
ATOM      3  O   UNL     1      10.461   9.849   4.822  0.00  0.00    -0.385 OA
ATOM     34  H   UNL     1      10.803  10.722   4.568  0.00  0.00    +0.210 HD
ENDBRANCH  10   3
TORSDOF 7
ENDMDL
MODEL 8
REMARK VINA RESULT:      -7.0     27.671     31.592
REMARK  Name = 56774668
REMARK  7 active torsions:
REMARK  status: ('A' for Active; 'I' for Inactive)
REMARK    1  A    between atoms: O_3  and  C_10
REMARK    2  A    between atoms: N_6  and  C_12
REMARK    3  A    between atoms: N_7  and  C_23
REMARK    4  A    between atoms: N_8  and  C_28
REMARK    5  A    between atoms: C_9  and  C_10
REMARK    6  A    between atoms: C_10  and  C_14
REMARK    7  A    between atoms: C_12  and  C_16
REMARK                            x       y       z     vdW  Elec       q    Type
REMARK                         _______ _______ _______ _____ _____    ______ ____
ROOT
ATOM     10  C   UNL     1      -4.455 -12.180  16.269  0.00  0.00    +0.167 C 
ENDROOT
BRANCH  10   9
ATOM      2  O   UNL     1      -1.773 -11.002  16.429  0.00  0.00    -0.369 OA
ATOM      4  O   UNL     1      -1.490 -12.382  13.104  0.00  0.00    -0.273 OA
ATOM      6  N   UNL     1      -3.359 -11.494  14.169  0.00  0.00    -0.287 N 
ATOM      9  C   UNL     1      -3.943 -11.008  15.426  0.00  0.00    +0.135 C 
ATOM     11  C   UNL     1      -2.916 -10.187  16.195  0.00  0.00    +0.185 C 
ATOM     13  C   UNL     1      -2.006 -11.813  14.068  0.00  0.00    +0.242 C 
ATOM     15  C   UNL     1      -1.130 -11.329  15.218  0.00  0.00    +0.255 C 
BRANCH   6  12
ATOM     12  C   UNL     1      -4.272 -11.808  13.079  0.00  0.00    +0.146 C 
BRANCH  12  16
ATOM      1  F   UNL     1      -6.522 -10.104  13.320  0.00  0.00    -0.205 F 
ATOM     16  C   UNL     1      -4.505 -10.627  12.183  0.00  0.00    +0.005 A 
ATOM     21  C   UNL     1      -5.633  -9.826  12.356  0.00  0.00    +0.128 A 
ATOM     22  C   UNL     1      -3.587 -10.330  11.176  0.00  0.00    +0.008 A 
ATOM     24  C   UNL     1      -5.846  -8.730  11.520  0.00  0.00    +0.038 A 
ATOM     25  C   UNL     1      -3.799  -9.232  10.340  0.00  0.00    +0.000 A 
ATOM     26  C   UNL     1      -4.929  -8.433  10.511  0.00  0.00    +0.003 A 
ENDBRANCH  12  16
ENDBRANCH   6  12
ENDBRANCH  10   9
BRANCH  10  14
ATOM     14  C   UNL     1      -5.620 -11.776  17.138  0.00  0.00    -0.017 A 
ATOM     17  C   UNL     1      -6.470 -10.748  16.732  0.00  0.00    +0.008 A 
ATOM     18  C   UNL     1      -5.846 -12.432  18.348  0.00  0.00    +0.008 A 
ATOM     19  C   UNL     1      -7.548 -10.374  17.536  0.00  0.00    +0.024 A 
ATOM     20  C   UNL     1      -6.924 -12.059  19.152  0.00  0.00    +0.024 A 
ATOM     23  C   UNL     1      -7.774 -11.031  18.746  0.00  0.00    +0.035 A 
BRANCH  23   7
ATOM      5  O   UNL     1     -10.661 -11.774  18.567  0.00  0.00    -0.252 OA
ATOM      7  N   UNL     1      -8.852 -10.658  19.551  0.00  0.00    -0.269 N 
ATOM      8  N   UNL     1     -10.964 -10.430  20.455  0.00  0.00    -0.269 N 
ATOM     27  C   UNL     1     -10.213 -11.032  19.435  0.00  0.00    +0.308 C 
ATOM     35  H   UNL     1      -8.625 -10.034  20.322  0.00  0.00    +0.156 HD
ATOM     36  H   UNL     1     -10.457  -9.836  21.106  0.00  0.00    +0.156 HD
BRANCH   8  28
ATOM     28  C   UNL     1     -12.354 -10.543  20.697  0.00  0.00    +0.035 A 
ATOM     29  C   UNL     1     -13.191  -9.448  20.480  0.00  0.00    +0.023 A 
ATOM     30  C   UNL     1     -12.887 -11.749  21.153  0.00  0.00    +0.023 A 
ATOM     31  C   UNL     1     -14.560  -9.559  20.718  0.00  0.00    +0.002 A 
ATOM     32  C   UNL     1     -14.257 -11.860  21.391  0.00  0.00    +0.002 A 
ATOM     33  C   UNL     1     -15.094 -10.765  21.173  0.00  0.00    +0.000 A 
ENDBRANCH   8  28
ENDBRANCH  23   7
ENDBRANCH  10  14
BRANCH  10   3
ATOM      3  O   UNL     1      -4.852 -13.242  15.409  0.00  0.00    -0.385 OA
ATOM     34  H   UNL     1      -4.620 -14.091  15.819  0.00  0.00    +0.210 HD
ENDBRANCH  10   3
TORSDOF 7
ENDMDL
MODEL 9
REMARK VINA RESULT:      -6.9     29.327     32.743
REMARK  Name = 56774668
REMARK  7 active torsions:
REMARK  status: ('A' for Active; 'I' for Inactive)
REMARK    1  A    between atoms: O_3  and  C_10
REMARK    2  A    between atoms: N_6  and  C_12
REMARK    3  A    between atoms: N_7  and  C_23
REMARK    4  A    between atoms: N_8  and  C_28
REMARK    5  A    between atoms: C_9  and  C_10
REMARK    6  A    between atoms: C_10  and  C_14
REMARK    7  A    between atoms: C_12  and  C_16
REMARK                            x       y       z     vdW  Elec       q    Type
REMARK                         _______ _______ _______ _____ _____    ______ ____
ROOT
ATOM     10  C   UNL     1     -14.502  -7.646  15.283  0.00  0.00    +0.167 C 
ENDROOT
BRANCH  10   9
ATOM      2  O   UNL     1     -15.587  -9.385  13.184  0.00  0.00    -0.369 OA
ATOM      4  O   UNL     1     -17.590  -6.468  12.467  0.00  0.00    -0.273 OA
ATOM      6  N   UNL     1     -15.399  -6.588  13.244  0.00  0.00    -0.287 N 
ATOM      9  C   UNL     1     -14.329  -7.441  13.775  0.00  0.00    +0.135 C 
ATOM     11  C   UNL     1     -14.310  -8.775  13.039  0.00  0.00    +0.185 C 
ATOM     13  C   UNL     1     -16.591  -7.127  12.764  0.00  0.00    +0.242 C 
ATOM     15  C   UNL     1     -16.584  -8.633  12.530  0.00  0.00    +0.255 C 
BRANCH   6  12
ATOM     12  C   UNL     1     -15.253  -5.148  13.402  0.00  0.00    +0.146 C 
BRANCH  12  16
ATOM      1  F   UNL     1     -12.624  -4.383  14.122  0.00  0.00    -0.205 F 
ATOM     16  C   UNL     1     -14.271  -4.572  12.424  0.00  0.00    +0.005 A 
ATOM     21  C   UNL     1     -12.989  -4.217  12.844  0.00  0.00    +0.128 A 
ATOM     22  C   UNL     1     -14.642  -4.394  11.091  0.00  0.00    +0.008 A 
ATOM     24  C   UNL     1     -12.080  -3.681  11.932  0.00  0.00    +0.038 A 
ATOM     25  C   UNL     1     -13.732  -3.858  10.179  0.00  0.00    +0.000 A 
ATOM     26  C   UNL     1     -12.451  -3.502  10.599  0.00  0.00    +0.003 A 
ENDBRANCH  12  16
ENDBRANCH   6  12
ENDBRANCH  10   9
BRANCH  10  14
ATOM     14  C   UNL     1     -13.184  -7.907  15.968  0.00  0.00    -0.017 A 
ATOM     17  C   UNL     1     -13.071  -8.944  16.894  0.00  0.00    +0.008 A 
ATOM     18  C   UNL     1     -12.077  -7.111  15.673  0.00  0.00    +0.008 A 
ATOM     19  C   UNL     1     -11.851  -9.185  17.526  0.00  0.00    +0.024 A 
ATOM     20  C   UNL     1     -10.857  -7.353  16.304  0.00  0.00    +0.024 A 
ATOM     23  C   UNL     1     -10.744  -8.389  17.231  0.00  0.00    +0.035 A 
BRANCH  23   7
ATOM      5  O   UNL     1      -8.665 -10.460  16.680  0.00  0.00    -0.252 OA
ATOM      7  N   UNL     1      -9.523  -8.631  17.863  0.00  0.00    -0.269 N 
ATOM      8  N   UNL     1      -7.474  -9.514  18.456  0.00  0.00    -0.269 N 
ATOM     27  C   UNL     1      -8.559  -9.626  17.573  0.00  0.00    +0.308 C 
ATOM     35  H   UNL     1      -9.301  -8.006  18.635  0.00  0.00    +0.156 HD
ATOM     36  H   UNL     1      -7.524  -8.772  19.149  0.00  0.00    +0.156 HD
BRANCH   8  28
ATOM     28  C   UNL     1      -6.306 -10.310  18.506  0.00  0.00    +0.035 A 
ATOM     29  C   UNL     1      -6.044 -11.096  19.628  0.00  0.00    +0.023 A 
ATOM     30  C   UNL     1      -5.414 -10.310  17.433  0.00  0.00    +0.023 A 
ATOM     31  C   UNL     1      -4.893 -11.881  19.679  0.00  0.00    +0.002 A 
ATOM     32  C   UNL     1      -4.262 -11.095  17.482  0.00  0.00    +0.002 A 
ATOM     33  C   UNL     1      -4.002 -11.881  18.605  0.00  0.00    +0.000 A 
ENDBRANCH   8  28
ENDBRANCH  23   7
ENDBRANCH  10  14
BRANCH  10   3
ATOM      3  O   UNL     1     -15.109  -6.490  15.849  0.00  0.00    -0.385 OA
ATOM     34  H   UNL     1     -14.561  -5.711  15.654  0.00  0.00    +0.210 HD
ENDBRANCH  10   3
TORSDOF 7
ENDMDL
MODEL 10
REMARK VINA RESULT:      -6.9     18.873     22.508
REMARK  Name = 56774668
REMARK  7 active torsions:
REMARK  status: ('A' for Active; 'I' for Inactive)
REMARK    1  A    between atoms: O_3  and  C_10
REMARK    2  A    between atoms: N_6  and  C_12
REMARK    3  A    between atoms: N_7  and  C_23
REMARK    4  A    between atoms: N_8  and  C_28
REMARK    5  A    between atoms: C_9  and  C_10
REMARK    6  A    between atoms: C_10  and  C_14
REMARK    7  A    between atoms: C_12  and  C_16
REMARK                            x       y       z     vdW  Elec       q    Type
REMARK                         _______ _______ _______ _____ _____    ______ ____
ROOT
ATOM     10  C   UNL     1      13.005   3.626  -2.523  0.00  0.00    +0.167 C 
ENDROOT
BRANCH  10   9
ATOM      2  O   UNL     1      13.283   3.667  -5.444  0.00  0.00    -0.369 OA
ATOM      4  O   UNL     1       9.844   2.575  -5.308  0.00  0.00    -0.273 OA
ATOM      6  N   UNL     1      10.982   4.016  -3.880  0.00  0.00    -0.287 N 
ATOM      9  C   UNL     1      12.277   4.579  -3.477  0.00  0.00    +0.135 C 
ATOM     11  C   UNL     1      13.124   4.874  -4.708  0.00  0.00    +0.185 C 
ATOM     13  C   UNL     1      10.855   3.213  -5.011  0.00  0.00    +0.242 C 
ATOM     15  C   UNL     1      12.048   3.223  -5.960  0.00  0.00    +0.255 C 
BRANCH   6  12
ATOM     12  C   UNL     1       9.865   4.172  -2.958  0.00  0.00    +0.146 C 
BRANCH  12  16
ATOM      1  F   UNL     1       9.745   4.928  -0.232  0.00  0.00    -0.205 F 
ATOM     16  C   UNL     1       9.701   5.595  -2.509  0.00  0.00    +0.005 A 
ATOM     21  C   UNL     1       9.650   5.900  -1.149  0.00  0.00    +0.128 A 
ATOM     22  C   UNL     1       9.599   6.614  -3.456  0.00  0.00    +0.008 A 
ATOM     24  C   UNL     1       9.497   7.223  -0.736  0.00  0.00    +0.038 A 
ATOM     25  C   UNL     1       9.447   7.938  -3.043  0.00  0.00    +0.000 A 
ATOM     26  C   UNL     1       9.395   8.243  -1.683  0.00  0.00    +0.003 A 
ENDBRANCH  12  16
ENDBRANCH   6  12
ENDBRANCH  10   9
BRANCH  10  14
ATOM     14  C   UNL     1      12.878   4.067  -1.087  0.00  0.00    -0.017 A 
ATOM     17  C   UNL     1      13.080   5.404  -0.747  0.00  0.00    +0.008 A 
ATOM     18  C   UNL     1      12.556   3.136  -0.099  0.00  0.00    +0.008 A 
ATOM     19  C   UNL     1      12.962   5.811   0.583  0.00  0.00    +0.024 A 
ATOM     20  C   UNL     1      12.437   3.543   1.230  0.00  0.00    +0.024 A 
ATOM     23  C   UNL     1      12.641   4.880   1.571  0.00  0.00    +0.035 A 
BRANCH  23   7
ATOM      5  O   UNL     1      10.209   5.528   3.178  0.00  0.00    -0.252 OA
ATOM      7  N   UNL     1      12.522   5.287   2.901  0.00  0.00    -0.269 N 
ATOM      8  N   UNL     1      11.680   5.957   4.944  0.00  0.00    -0.269 N 
ATOM     27  C   UNL     1      11.347   5.586   3.632  0.00  0.00    +0.308 C 
ATOM     35  H   UNL     1      13.399   5.380   3.408  0.00  0.00    +0.156 HD
ATOM     36  H   UNL     1      12.669   5.962   5.180  0.00  0.00    +0.156 HD
BRANCH   8  28
ATOM     28  C   UNL     1      10.807   6.331   5.992  0.00  0.00    +0.035 A 
ATOM     29  C   UNL     1      10.172   5.351   6.754  0.00  0.00    +0.023 A 
ATOM     30  C   UNL     1      10.579   7.681   6.263  0.00  0.00    +0.023 A 
ATOM     31  C   UNL     1       9.311   5.719   7.788  0.00  0.00    +0.002 A 
ATOM     32  C   UNL     1       9.718   8.050   7.296  0.00  0.00    +0.002 A 
ATOM     33  C   UNL     1       9.084   7.068   8.060  0.00  0.00    +0.000 A 
ENDBRANCH   8  28
ENDBRANCH  23   7
ENDBRANCH  10  14
BRANCH  10   3
ATOM      3  O   UNL     1      12.467   2.315  -2.667  0.00  0.00    -0.385 OA
ATOM     34  H   UNL     1      11.704   2.345  -3.267  0.00  0.00    +0.210 HD
ENDBRANCH  10   3
TORSDOF 7
ENDMDL
