MODEL 1
REMARK VINA RESULT:      -6.5      0.000      0.000
REMARK  Name = 75536558
REMARK  7 active torsions:
REMARK  status: ('A' for Active; 'I' for Inactive)
REMARK    1  A    between atoms: O_2  and  C_8
REMARK    2  A    between atoms: N_4  and  C_16
REMARK    3  A    between atoms: N_5  and  C_10
REMARK    4  A    between atoms: N_5  and  C_18
REMARK    5  A    between atoms: C_7  and  C_16
REMARK    6  A    between atoms: C_9  and  C_17
REMARK    7  A    between atoms: C_18  and  C_19
REMARK                            x       y       z     vdW  Elec       q    Type
REMARK                         _______ _______ _______ _____ _____    ______ ____
ROOT
ATOM      1  O   UNL     1      10.756   8.681  19.904  0.00  0.00    -0.371 OA
ATOM      7  C   UNL     1      10.927   7.723  20.961  0.00  0.00    +0.165 C 
ATOM      8  C   UNL     1      12.340   7.174  20.807  0.00  0.00    +0.164 C 
ATOM     10  C   UNL     1      12.491   7.177  19.297  0.00  0.00    +0.111 C 
ATOM     15  C   UNL     1      11.791   8.474  18.926  0.00  0.00    +0.181 C 
ENDROOT
BRANCH   8   2
ATOM      2  O   UNL     1      12.467   5.881  21.366  0.00  0.00    -0.388 OA
ATOM     26  H   UNL     1      13.148   5.913  22.059  0.00  0.00    +0.210 HD
ENDBRANCH   8   2
BRANCH  10   5
ATOM      5  N   UNL     1      13.874   7.131  18.849  0.00  0.00    -0.303 NA
ATOM     25  H   UNL     1      13.924   7.464  17.886  0.00  0.00    +0.123 HD
BRANCH   5  18
ATOM     18  C   UNL     1      14.724   7.971  19.683  0.00  0.00    +0.137 C 
BRANCH  18  19
ATOM      6  N   UNL     1      16.902   7.981  20.767  0.00  0.00    -0.259 NA
ATOM     19  C   UNL     1      16.092   7.374  19.870  0.00  0.00    +0.055 A 
ATOM     20  C   UNL     1      16.452   6.257  19.134  0.00  0.00    +0.024 A 
ATOM     21  C   UNL     1      17.723   5.729  19.331  0.00  0.00    +0.003 A 
ATOM     22  C   UNL     1      18.130   7.441  20.932  0.00  0.00    +0.111 A 
ATOM     23  C   UNL     1      18.584   6.326  20.245  0.00  0.00    +0.020 A 
ENDBRANCH  18  19
ENDBRANCH   5  18
ENDBRANCH  10   5
BRANCH   7  16
ATOM     16  C   UNL     1      10.685   8.390  22.303  0.00  0.00    +0.138 C 
BRANCH  16   4
ATOM      3  O   UNL     1      10.975  11.279  22.247  0.00  0.00    -0.276 OA
ATOM      4  N   UNL     1      11.822   9.160  22.716  0.00  0.00    -0.313 N 
ATOM     17  C   UNL     1      11.874  10.548  22.653  0.00  0.00    +0.216 C 
ATOM     24  H   UNL     1      12.626   8.652  23.073  0.00  0.00    +0.149 HD
BRANCH  17   9
ATOM      9  C   UNL     1      13.168  11.100  23.170  0.00  0.00    +0.075 C 
ATOM     11  C   UNL     1      13.357  12.546  22.697  0.00  0.00    +0.013 C 
ATOM     12  C   UNL     1      14.353  10.309  22.612  0.00  0.00    +0.013 C 
ATOM     13  C   UNL     1      14.695  12.573  21.966  0.00  0.00    +0.001 C 
ATOM     14  C   UNL     1      14.869  11.154  21.456  0.00  0.00    +0.001 C 
ENDBRANCH  17   9
ENDBRANCH  16   4
ENDBRANCH   7  16
TORSDOF 7
ENDMDL
MODEL 2
REMARK VINA RESULT:      -6.4      2.139      2.761
REMARK  Name = 75536558
REMARK  7 active torsions:
REMARK  status: ('A' for Active; 'I' for Inactive)
REMARK    1  A    between atoms: O_2  and  C_8
REMARK    2  A    between atoms: N_4  and  C_16
REMARK    3  A    between atoms: N_5  and  C_10
REMARK    4  A    between atoms: N_5  and  C_18
REMARK    5  A    between atoms: C_7  and  C_16
REMARK    6  A    between atoms: C_9  and  C_17
REMARK    7  A    between atoms: C_18  and  C_19
REMARK                            x       y       z     vdW  Elec       q    Type
REMARK                         _______ _______ _______ _____ _____    ______ ____
ROOT
ATOM      1  O   UNL     1      11.742  10.091  20.777  0.00  0.00    -0.371 OA
ATOM      7  C   UNL     1      10.926   9.147  21.490  0.00  0.00    +0.165 C 
ATOM      8  C   UNL     1      11.523   7.774  21.206  0.00  0.00    +0.164 C 
ATOM     10  C   UNL     1      11.993   7.952  19.773  0.00  0.00    +0.111 C 
ATOM     15  C   UNL     1      12.527   9.375  19.806  0.00  0.00    +0.181 C 
ENDROOT
BRANCH   8   2
ATOM      2  O   UNL     1      10.563   6.744  21.341  0.00  0.00    -0.388 OA
ATOM     26  H   UNL     1      11.015   5.945  21.662  0.00  0.00    +0.210 HD
ENDBRANCH   8   2
BRANCH  10   5
ATOM      5  N   UNL     1      12.995   6.981  19.364  0.00  0.00    -0.303 NA
ATOM     25  H   UNL     1      12.560   6.291  18.751  0.00  0.00    +0.123 HD
BRANCH   5  18
ATOM     18  C   UNL     1      14.088   7.625  18.648  0.00  0.00    +0.137 C 
BRANCH  18  19
ATOM      6  N   UNL     1      16.028   6.157  18.628  0.00  0.00    -0.259 NA
ATOM     19  C   UNL     1      15.431   7.227  19.199  0.00  0.00    +0.055 A 
ATOM     20  C   UNL     1      15.981   7.957  20.240  0.00  0.00    +0.024 A 
ATOM     21  C   UNL     1      17.223   7.563  20.726  0.00  0.00    +0.003 A 
ATOM     22  C   UNL     1      17.234   5.804  19.126  0.00  0.00    +0.111 A 
ATOM     23  C   UNL     1      17.869   6.468  20.164  0.00  0.00    +0.020 A 
ENDBRANCH  18  19
ENDBRANCH   5  18
ENDBRANCH  10   5
BRANCH   7  16
ATOM     16  C   UNL     1      10.906   9.499  22.967  0.00  0.00    +0.138 C 
BRANCH  16   4
ATOM      3  O   UNL     1      11.316  11.109  25.349  0.00  0.00    -0.276 OA
ATOM      4  N   UNL     1      10.519  10.864  23.173  0.00  0.00    -0.313 N 
ATOM     17  C   UNL     1      10.757  11.560  24.353  0.00  0.00    +0.216 C 
ATOM     24  H   UNL     1      10.049  11.337  22.407  0.00  0.00    +0.149 HD
BRANCH  17   9
ATOM      9  C   UNL     1      10.274  12.977  24.293  0.00  0.00    +0.075 C 
ATOM     11  C   UNL     1      11.032  13.753  23.210  0.00  0.00    +0.013 C 
ATOM     12  C   UNL     1      10.554  13.699  25.612  0.00  0.00    +0.013 C 
ATOM     13  C   UNL     1      11.646  14.957  23.914  0.00  0.00    +0.001 C 
ATOM     14  C   UNL     1      11.822  14.499  25.350  0.00  0.00    +0.001 C 
ENDBRANCH  17   9
ENDBRANCH  16   4
ENDBRANCH   7  16
TORSDOF 7
ENDMDL
MODEL 3
REMARK VINA RESULT:      -6.2      2.802      5.080
REMARK  Name = 75536558
REMARK  7 active torsions:
REMARK  status: ('A' for Active; 'I' for Inactive)
REMARK    1  A    between atoms: O_2  and  C_8
REMARK    2  A    between atoms: N_4  and  C_16
REMARK    3  A    between atoms: N_5  and  C_10
REMARK    4  A    between atoms: N_5  and  C_18
REMARK    5  A    between atoms: C_7  and  C_16
REMARK    6  A    between atoms: C_9  and  C_17
REMARK    7  A    between atoms: C_18  and  C_19
REMARK                            x       y       z     vdW  Elec       q    Type
REMARK                         _______ _______ _______ _____ _____    ______ ____
ROOT
ATOM      1  O   UNL     1      16.509   5.729  18.705  0.00  0.00    -0.371 OA
ATOM      7  C   UNL     1      15.646   6.621  19.430  0.00  0.00    +0.165 C 
ATOM      8  C   UNL     1      16.563   7.541  20.226  0.00  0.00    +0.164 C 
ATOM     10  C   UNL     1      17.698   6.594  20.572  0.00  0.00    +0.111 C 
ATOM     15  C   UNL     1      17.824   5.793  19.287  0.00  0.00    +0.181 C 
ENDROOT
BRANCH   8   2
ATOM      2  O   UNL     1      15.920   8.064  21.372  0.00  0.00    -0.388 OA
ATOM     26  H   UNL     1      16.413   8.848  21.668  0.00  0.00    +0.210 HD
ENDBRANCH   8   2
BRANCH  10   5
ATOM      5  N   UNL     1      18.930   7.270  20.941  0.00  0.00    -0.303 NA
ATOM     25  H   UNL     1      18.738   8.263  21.079  0.00  0.00    +0.123 HD
BRANCH   5  18
ATOM     18  C   UNL     1      19.482   6.721  22.173  0.00  0.00    +0.137 C 
BRANCH  18  19
ATOM      6  N   UNL     1      21.247   5.251  22.975  0.00  0.00    -0.259 NA
ATOM     19  C   UNL     1      20.735   5.927  21.922  0.00  0.00    +0.055 A 
ATOM     20  C   UNL     1      21.294   5.923  20.654  0.00  0.00    +0.024 A 
ATOM     21  C   UNL     1      22.451   5.179  20.455  0.00  0.00    +0.003 A 
ATOM     22  C   UNL     1      22.372   4.538  22.744  0.00  0.00    +0.111 A 
ATOM     23  C   UNL     1      23.007   4.470  21.514  0.00  0.00    +0.020 A 
ENDBRANCH  18  19
ENDBRANCH   5  18
ENDBRANCH  10   5
BRANCH   7  16
ATOM     16  C   UNL     1      14.745   7.365  18.460  0.00  0.00    +0.138 C 
BRANCH  16   4
ATOM      3  O   UNL     1      11.867   7.226  18.100  0.00  0.00    -0.276 OA
ATOM      4  N   UNL     1      13.742   8.121  19.153  0.00  0.00    -0.313 N 
ATOM     17  C   UNL     1      12.379   7.989  18.914  0.00  0.00    +0.216 C 
ATOM     24  H   UNL     1      14.059   8.784  19.855  0.00  0.00    +0.149 HD
BRANCH  17   9
ATOM      9  C   UNL     1      11.553   8.878  19.793  0.00  0.00    +0.075 C 
ATOM     11  C   UNL     1      12.455   9.828  20.589  0.00  0.00    +0.013 C 
ATOM     12  C   UNL     1      10.784   8.052  20.826  0.00  0.00    +0.013 C 
ATOM     13  C   UNL     1      12.111   9.597  22.056  0.00  0.00    +0.001 C 
ATOM     14  C   UNL     1      11.610   8.165  22.099  0.00  0.00    +0.001 C 
ENDBRANCH  17   9
ENDBRANCH  16   4
ENDBRANCH   7  16
TORSDOF 7
ENDMDL
MODEL 4
REMARK VINA RESULT:      -6.1      4.213      6.740
REMARK  Name = 75536558
REMARK  7 active torsions:
REMARK  status: ('A' for Active; 'I' for Inactive)
REMARK    1  A    between atoms: O_2  and  C_8
REMARK    2  A    between atoms: N_4  and  C_16
REMARK    3  A    between atoms: N_5  and  C_10
REMARK    4  A    between atoms: N_5  and  C_18
REMARK    5  A    between atoms: C_7  and  C_16
REMARK    6  A    between atoms: C_9  and  C_17
REMARK    7  A    between atoms: C_18  and  C_19
REMARK                            x       y       z     vdW  Elec       q    Type
REMARK                         _______ _______ _______ _____ _____    ______ ____
ROOT
ATOM      1  O   UNL     1      18.393   7.152  21.664  0.00  0.00    -0.371 OA
ATOM      7  C   UNL     1      17.599   6.810  20.516  0.00  0.00    +0.165 C 
ATOM      8  C   UNL     1      18.263   5.588  19.894  0.00  0.00    +0.164 C 
ATOM     10  C   UNL     1      19.727   5.883  20.163  0.00  0.00    +0.111 C 
ATOM     15  C   UNL     1      19.662   6.482  21.558  0.00  0.00    +0.181 C 
ENDROOT
BRANCH   8   2
ATOM      2  O   UNL     1      17.973   5.477  18.514  0.00  0.00    -0.388 OA
ATOM     26  H   UNL     1      18.216   4.582  18.222  0.00  0.00    +0.210 HD
ENDBRANCH   8   2
BRANCH  10   5
ATOM      5  N   UNL     1      20.581   4.709  20.090  0.00  0.00    -0.303 NA
ATOM     25  H   UNL     1      21.108   4.733  19.217  0.00  0.00    +0.123 HD
BRANCH   5  18
ATOM     18  C   UNL     1      21.518   4.671  21.206  0.00  0.00    +0.137 C 
BRANCH  18  19
ATOM      6  N   UNL     1      23.744   4.699  20.224  0.00  0.00    -0.259 NA
ATOM     19  C   UNL     1      22.794   3.961  20.843  0.00  0.00    +0.055 A 
ATOM     20  C   UNL     1      22.936   2.618  21.152  0.00  0.00    +0.024 A 
ATOM     21  C   UNL     1      24.128   1.992  20.803  0.00  0.00    +0.003 A 
ATOM     22  C   UNL     1      24.889   4.057  19.900  0.00  0.00    +0.111 A 
ATOM     23  C   UNL     1      25.128   2.718  20.166  0.00  0.00    +0.020 A 
ENDBRANCH  18  19
ENDBRANCH   5  18
ENDBRANCH  10   5
BRANCH   7  16
ATOM     16  C   UNL     1      16.162   6.562  20.941  0.00  0.00    +0.138 C 
BRANCH  16   4
ATOM      3  O   UNL     1      13.325   7.160  21.085  0.00  0.00    -0.276 OA
ATOM      4  N   UNL     1      15.254   6.748  19.847  0.00  0.00    -0.313 N 
ATOM     17  C   UNL     1      13.903   7.033  20.010  0.00  0.00    +0.216 C 
ATOM     24  H   UNL     1      15.632   6.667  18.907  0.00  0.00    +0.149 HD
BRANCH  17   9
ATOM      9  C   UNL     1      13.189   7.203  18.704  0.00  0.00    +0.075 C 
ATOM     11  C   UNL     1      14.169   7.662  17.618  0.00  0.00    +0.013 C 
ATOM     12  C   UNL     1      12.125   8.297  18.810  0.00  0.00    +0.013 C 
ATOM     13  C   UNL     1      13.590   8.956  17.056  0.00  0.00    +0.001 C 
ATOM     14  C   UNL     1      12.778   9.530  18.203  0.00  0.00    +0.001 C 
ENDBRANCH  17   9
ENDBRANCH  16   4
ENDBRANCH   7  16
TORSDOF 7
ENDMDL
MODEL 5
REMARK VINA RESULT:      -5.8     27.287     29.732
REMARK  Name = 75536558
REMARK  7 active torsions:
REMARK  status: ('A' for Active; 'I' for Inactive)
REMARK    1  A    between atoms: O_2  and  C_8
REMARK    2  A    between atoms: N_4  and  C_16
REMARK    3  A    between atoms: N_5  and  C_10
REMARK    4  A    between atoms: N_5  and  C_18
REMARK    5  A    between atoms: C_7  and  C_16
REMARK    6  A    between atoms: C_9  and  C_17
REMARK    7  A    between atoms: C_18  and  C_19
REMARK                            x       y       z     vdW  Elec       q    Type
REMARK                         _______ _______ _______ _____ _____    ______ ____
ROOT
ATOM      1  O   UNL     1     -12.122  -8.382  16.878  0.00  0.00    -0.371 OA
ATOM      7  C   UNL     1     -11.903  -7.172  16.133  0.00  0.00    +0.165 C 
ATOM      8  C   UNL     1     -10.441  -7.199  15.706  0.00  0.00    +0.164 C 
ATOM     10  C   UNL     1      -9.800  -7.878  16.903  0.00  0.00    +0.111 C 
ATOM     15  C   UNL     1     -10.843  -8.929  17.246  0.00  0.00    +0.181 C 
ENDROOT
BRANCH   8   2
ATOM      2  O   UNL     1      -9.934  -5.898  15.482  0.00  0.00    -0.388 OA
ATOM     26  H   UNL     1      -9.061  -5.832  15.906  0.00  0.00    +0.210 HD
ENDBRANCH   8   2
BRANCH  10   5
ATOM      5  N   UNL     1      -8.494  -8.449  16.619  0.00  0.00    -0.303 NA
ATOM     25  H   UNL     1      -7.781  -7.727  16.736  0.00  0.00    +0.123 HD
BRANCH   5  18
ATOM     18  C   UNL     1      -8.197  -9.555  17.520  0.00  0.00    +0.137 C 
BRANCH  18  19
ATOM      6  N   UNL     1      -6.167  -9.808  16.201  0.00  0.00    -0.259 NA
ATOM     19  C   UNL     1      -6.768 -10.012  17.395  0.00  0.00    +0.055 A 
ATOM     20  C   UNL     1      -6.147 -10.604  18.483  0.00  0.00    +0.024 A 
ATOM     21  C   UNL     1      -4.827 -11.014  18.336  0.00  0.00    +0.003 A 
ATOM     22  C   UNL     1      -4.884 -10.219  16.095  0.00  0.00    +0.111 A 
ATOM     23  C   UNL     1      -4.175 -10.821  17.123  0.00  0.00    +0.020 A 
ENDBRANCH  18  19
ENDBRANCH   5  18
ENDBRANCH  10   5
BRANCH   7  16
ATOM     16  C   UNL     1     -12.869  -7.108  14.963  0.00  0.00    +0.138 C 
BRANCH  16   4
ATOM      3  O   UNL     1     -12.360  -6.081  12.295  0.00  0.00    -0.276 OA
ATOM      4  N   UNL     1     -13.040  -5.761  14.500  0.00  0.00    -0.313 N 
ATOM     17  C   UNL     1     -12.769  -5.357  13.198  0.00  0.00    +0.216 C 
ATOM     24  H   UNL     1     -13.380  -5.077  15.169  0.00  0.00    +0.149 HD
BRANCH  17   9
ATOM      9  C   UNL     1     -13.058  -3.903  12.975  0.00  0.00    +0.075 C 
ATOM     11  C   UNL     1     -14.571  -3.658  12.950  0.00  0.00    +0.013 C 
ATOM     12  C   UNL     1     -12.529  -3.450  11.614  0.00  0.00    +0.013 C 
ATOM     13  C   UNL     1     -14.860  -2.979  11.616  0.00  0.00    +0.001 C 
ATOM     14  C   UNL     1     -13.748  -3.462  10.704  0.00  0.00    +0.001 C 
ENDBRANCH  17   9
ENDBRANCH  16   4
ENDBRANCH   7  16
TORSDOF 7
ENDMDL
MODEL 6
REMARK VINA RESULT:      -5.8      3.470      8.033
REMARK  Name = 75536558
REMARK  7 active torsions:
REMARK  status: ('A' for Active; 'I' for Inactive)
REMARK    1  A    between atoms: O_2  and  C_8
REMARK    2  A    between atoms: N_4  and  C_16
REMARK    3  A    between atoms: N_5  and  C_10
REMARK    4  A    between atoms: N_5  and  C_18
REMARK    5  A    between atoms: C_7  and  C_16
REMARK    6  A    between atoms: C_9  and  C_17
REMARK    7  A    between atoms: C_18  and  C_19
REMARK                            x       y       z     vdW  Elec       q    Type
REMARK                         _______ _______ _______ _____ _____    ______ ____
ROOT
ATOM      1  O   UNL     1      17.655   6.546  19.517  0.00  0.00    -0.371 OA
ATOM      7  C   UNL     1      17.625   7.414  20.662  0.00  0.00    +0.165 C 
ATOM      8  C   UNL     1      16.256   7.219  21.302  0.00  0.00    +0.164 C 
ATOM     10  C   UNL     1      15.390   6.994  20.075  0.00  0.00    +0.111 C 
ATOM     15  C   UNL     1      16.307   6.145  19.211  0.00  0.00    +0.181 C 
ENDROOT
BRANCH   8   2
ATOM      2  O   UNL     1      15.858   8.352  22.050  0.00  0.00    -0.388 OA
ATOM     26  H   UNL     1      16.533   8.522  22.729  0.00  0.00    +0.210 HD
ENDBRANCH   8   2
BRANCH  10   5
ATOM      5  N   UNL     1      14.124   6.342  20.367  0.00  0.00    -0.303 NA
ATOM     25  H   UNL     1      13.956   6.374  21.374  0.00  0.00    +0.123 HD
BRANCH   5  18
ATOM     18  C   UNL     1      13.021   7.007  19.684  0.00  0.00    +0.137 C 
BRANCH  18  19
ATOM      6  N   UNL     1      12.314   9.142  20.611  0.00  0.00    -0.259 NA
ATOM     19  C   UNL     1      12.167   7.799  20.637  0.00  0.00    +0.055 A 
ATOM     20  C   UNL     1      11.289   7.132  21.476  0.00  0.00    +0.024 A 
ATOM     21  C   UNL     1      10.514   7.893  22.344  0.00  0.00    +0.003 A 
ATOM     22  C   UNL     1      11.544   9.849  21.468  0.00  0.00    +0.111 A 
ATOM     23  C   UNL     1      10.636   9.278  22.346  0.00  0.00    +0.020 A 
ENDBRANCH  18  19
ENDBRANCH   5  18
ENDBRANCH  10   5
BRANCH   7  16
ATOM     16  C   UNL     1      18.776   7.076  21.593  0.00  0.00    +0.138 C 
BRANCH  16   4
ATOM      3  O   UNL     1      20.938   5.581  22.826  0.00  0.00    -0.276 OA
ATOM      4  N   UNL     1      19.754   6.257  20.937  0.00  0.00    -0.313 N 
ATOM     17  C   UNL     1      20.760   5.574  21.611  0.00  0.00    +0.216 C 
ATOM     24  H   UNL     1      19.696   6.180  19.926  0.00  0.00    +0.149 HD
BRANCH  17   9
ATOM      9  C   UNL     1      21.629   4.774  20.689  0.00  0.00    +0.075 C 
ATOM     11  C   UNL     1      21.716   3.320  21.168  0.00  0.00    +0.013 C 
ATOM     12  C   UNL     1      23.061   5.312  20.695  0.00  0.00    +0.013 C 
ATOM     13  C   UNL     1      23.202   3.027  21.340  0.00  0.00    +0.001 C 
ATOM     14  C   UNL     1      23.817   4.383  21.633  0.00  0.00    +0.001 C 
ENDBRANCH  17   9
ENDBRANCH  16   4
ENDBRANCH   7  16
TORSDOF 7
ENDMDL
MODEL 7
REMARK VINA RESULT:      -5.7      3.275      6.618
REMARK  Name = 75536558
REMARK  7 active torsions:
REMARK  status: ('A' for Active; 'I' for Inactive)
REMARK    1  A    between atoms: O_2  and  C_8
REMARK    2  A    between atoms: N_4  and  C_16
REMARK    3  A    between atoms: N_5  and  C_10
REMARK    4  A    between atoms: N_5  and  C_18
REMARK    5  A    between atoms: C_7  and  C_16
REMARK    6  A    between atoms: C_9  and  C_17
REMARK    7  A    between atoms: C_18  and  C_19
REMARK                            x       y       z     vdW  Elec       q    Type
REMARK                         _______ _______ _______ _____ _____    ______ ____
ROOT
ATOM      1  O   UNL     1      12.076   6.472  19.419  0.00  0.00    -0.371 OA
ATOM      7  C   UNL     1      12.421   7.695  18.748  0.00  0.00    +0.165 C 
ATOM      8  C   UNL     1      12.773   8.692  19.844  0.00  0.00    +0.164 C 
ATOM     10  C   UNL     1      11.804   8.279  20.937  0.00  0.00    +0.111 C 
ATOM     15  C   UNL     1      11.831   6.765  20.807  0.00  0.00    +0.181 C 
ENDROOT
BRANCH   8   2
ATOM      2  O   UNL     1      12.583  10.028  19.422  0.00  0.00    -0.388 OA
ATOM     26  H   UNL     1      11.722  10.088  18.973  0.00  0.00    +0.210 HD
ENDBRANCH   8   2
BRANCH  10   5
ATOM      5  N   UNL     1      12.188   8.740  22.261  0.00  0.00    -0.303 NA
ATOM     25  H   UNL     1      12.875   9.489  22.168  0.00  0.00    +0.123 HD
BRANCH   5  18
ATOM     18  C   UNL     1      11.035   9.245  22.996  0.00  0.00    +0.137 C 
BRANCH  18  19
ATOM      6  N   UNL     1      11.189  11.402  21.880  0.00  0.00    -0.259 NA
ATOM     19  C   UNL     1      11.021  10.749  23.053  0.00  0.00    +0.055 A 
ATOM     20  C   UNL     1      10.842  11.382  24.272  0.00  0.00    +0.024 A 
ATOM     21  C   UNL     1      10.834  12.772  24.290  0.00  0.00    +0.003 A 
ATOM     22  C   UNL     1      11.176  12.753  21.937  0.00  0.00    +0.111 A 
ATOM     23  C   UNL     1      11.002  13.478  23.105  0.00  0.00    +0.020 A 
ENDBRANCH  18  19
ENDBRANCH   5  18
ENDBRANCH  10   5
BRANCH   7  16
ATOM     16  C   UNL     1      13.560   7.443  17.776  0.00  0.00    +0.138 C 
BRANCH  16   4
ATOM      3  O   UNL     1      13.503   8.850  15.237  0.00  0.00    -0.276 OA
ATOM      4  N   UNL     1      14.238   8.662  17.439  0.00  0.00    -0.313 N 
ATOM     17  C   UNL     1      14.153   9.268  16.191  0.00  0.00    +0.216 C 
ATOM     24  H   UNL     1      14.805   9.096  18.162  0.00  0.00    +0.149 HD
BRANCH  17   9
ATOM      9  C   UNL     1      14.938  10.542  16.116  0.00  0.00    +0.075 C 
ATOM     11  C   UNL     1      14.122  11.704  16.694  0.00  0.00    +0.013 C 
ATOM     12  C   UNL     1      15.233  10.909  14.660  0.00  0.00    +0.013 C 
ATOM     13  C   UNL     1      14.054  12.754  15.590  0.00  0.00    +0.001 C 
ATOM     14  C   UNL     1      14.185  11.954  14.307  0.00  0.00    +0.001 C 
ENDBRANCH  17   9
ENDBRANCH  16   4
ENDBRANCH   7  16
TORSDOF 7
ENDMDL
MODEL 8
REMARK VINA RESULT:      -5.7      2.549      4.834
REMARK  Name = 75536558
REMARK  7 active torsions:
REMARK  status: ('A' for Active; 'I' for Inactive)
REMARK    1  A    between atoms: O_2  and  C_8
REMARK    2  A    between atoms: N_4  and  C_16
REMARK    3  A    between atoms: N_5  and  C_10
REMARK    4  A    between atoms: N_5  and  C_18
REMARK    5  A    between atoms: C_7  and  C_16
REMARK    6  A    between atoms: C_9  and  C_17
REMARK    7  A    between atoms: C_18  and  C_19
REMARK                            x       y       z     vdW  Elec       q    Type
REMARK                         _______ _______ _______ _____ _____    ______ ____
ROOT
ATOM      1  O   UNL     1      16.469   6.010  18.894  0.00  0.00    -0.371 OA
ATOM      7  C   UNL     1      15.337   6.662  19.495  0.00  0.00    +0.165 C 
ATOM      8  C   UNL     1      15.892   7.490  20.647  0.00  0.00    +0.164 C 
ATOM     10  C   UNL     1      17.025   6.601  21.127  0.00  0.00    +0.111 C 
ATOM     15  C   UNL     1      17.576   6.080  19.810  0.00  0.00    +0.181 C 
ENDROOT
BRANCH   8   2
ATOM      2  O   UNL     1      14.918   7.720  21.646  0.00  0.00    -0.388 OA
ATOM     26  H   UNL     1      14.837   6.916  22.186  0.00  0.00    +0.210 HD
ENDBRANCH   8   2
BRANCH  10   5
ATOM      5  N   UNL     1      18.021   7.304  21.919  0.00  0.00    -0.303 NA
ATOM     25  H   UNL     1      18.885   6.761  21.926  0.00  0.00    +0.123 HD
BRANCH   5  18
ATOM     18  C   UNL     1      18.297   8.623  21.366  0.00  0.00    +0.137 C 
BRANCH  18  19
ATOM      6  N   UNL     1      20.588   8.009  21.909  0.00  0.00    -0.259 NA
ATOM     19  C   UNL     1      19.757   8.977  21.461  0.00  0.00    +0.055 A 
ATOM     20  C   UNL     1      20.174  10.246  21.093  0.00  0.00    +0.024 A 
ATOM     21  C   UNL     1      21.529  10.541  21.193  0.00  0.00    +0.003 A 
ATOM     22  C   UNL     1      21.898   8.331  21.992  0.00  0.00    +0.111 A 
ATOM     23  C   UNL     1      22.415   9.571  21.649  0.00  0.00    +0.020 A 
ENDBRANCH  18  19
ENDBRANCH   5  18
ENDBRANCH  10   5
BRANCH   7  16
ATOM     16  C   UNL     1      14.611   7.493  18.452  0.00  0.00    +0.138 C 
BRANCH  16   4
ATOM      3  O   UNL     1      11.995   6.448  19.154  0.00  0.00    -0.276 OA
ATOM      4  N   UNL     1      13.512   8.211  19.030  0.00  0.00    -0.313 N 
ATOM     17  C   UNL     1      12.288   7.626  19.334  0.00  0.00    +0.216 C 
ATOM     24  H   UNL     1      13.649   9.199  19.224  0.00  0.00    +0.149 HD
BRANCH  17   9
ATOM      9  C   UNL     1      11.325   8.594  19.952  0.00  0.00    +0.075 C 
ATOM     11  C   UNL     1      12.073   9.823  20.482  0.00  0.00    +0.013 C 
ATOM     12  C   UNL     1      10.626   7.965  21.158  0.00  0.00    +0.013 C 
ATOM     13  C   UNL     1      11.704   9.929  21.958  0.00  0.00    +0.001 C 
ATOM     14  C   UNL     1      11.383   8.502  22.364  0.00  0.00    +0.001 C 
ENDBRANCH  17   9
ENDBRANCH  16   4
ENDBRANCH   7  16
TORSDOF 7
ENDMDL
MODEL 9
REMARK VINA RESULT:      -5.7     27.280     30.422
REMARK  Name = 75536558
REMARK  7 active torsions:
REMARK  status: ('A' for Active; 'I' for Inactive)
REMARK    1  A    between atoms: O_2  and  C_8
REMARK    2  A    between atoms: N_4  and  C_16
REMARK    3  A    between atoms: N_5  and  C_10
REMARK    4  A    between atoms: N_5  and  C_18
REMARK    5  A    between atoms: C_7  and  C_16
REMARK    6  A    between atoms: C_9  and  C_17
REMARK    7  A    between atoms: C_18  and  C_19
REMARK                            x       y       z     vdW  Elec       q    Type
REMARK                         _______ _______ _______ _____ _____    ______ ____
ROOT
ATOM      1  O   UNL     1     -18.240   4.525  25.413  0.00  0.00    -0.371 OA
ATOM      7  C   UNL     1     -17.720   3.184  25.427  0.00  0.00    +0.165 C 
ATOM      8  C   UNL     1     -16.226   3.309  25.157  0.00  0.00    +0.164 C 
ATOM     10  C   UNL     1     -16.200   4.483  24.195  0.00  0.00    +0.111 C 
ATOM     15  C   UNL     1     -17.267   5.385  24.792  0.00  0.00    +0.181 C 
ENDROOT
BRANCH   8   2
ATOM      2  O   UNL     1     -15.693   2.127  24.591  0.00  0.00    -0.388 OA
ATOM     26  H   UNL     1     -16.058   2.026  23.696  0.00  0.00    +0.210 HD
ENDBRANCH   8   2
BRANCH  10   5
ATOM      5  N   UNL     1     -14.902   5.129  24.098  0.00  0.00    -0.303 NA
ATOM     25  H   UNL     1     -14.312   4.811  24.868  0.00  0.00    +0.123 HD
BRANCH   5  18
ATOM     18  C   UNL     1     -14.247   4.804  22.837  0.00  0.00    +0.137 C 
BRANCH  18  19
ATOM      6  N   UNL     1     -14.407   7.163  22.262  0.00  0.00    -0.259 NA
ATOM     19  C   UNL     1     -13.679   6.028  22.169  0.00  0.00    +0.055 A 
ATOM     20  C   UNL     1     -12.465   5.938  21.507  0.00  0.00    +0.024 A 
ATOM     21  C   UNL     1     -11.968   7.087  20.901  0.00  0.00    +0.003 A 
ATOM     22  C   UNL     1     -13.893   8.259  21.661  0.00  0.00    +0.111 A 
ATOM     23  C   UNL     1     -12.688   8.274  20.975  0.00  0.00    +0.020 A 
ENDBRANCH  18  19
ENDBRANCH   5  18
ENDBRANCH  10   5
BRANCH   7  16
ATOM     16  C   UNL     1     -18.037   2.526  26.758  0.00  0.00    +0.138 C 
BRANCH  16   4
ATOM      3  O   UNL     1     -17.464   0.310  28.545  0.00  0.00    -0.276 OA
ATOM      4  N   UNL     1     -16.848   2.315  27.532  0.00  0.00    -0.313 N 
ATOM     17  C   UNL     1     -16.659   1.219  28.366  0.00  0.00    +0.216 C 
ATOM     24  H   UNL     1     -16.111   3.010  27.456  0.00  0.00    +0.149 HD
BRANCH  17   9
ATOM      9  C   UNL     1     -15.319   1.231  29.037  0.00  0.00    +0.075 C 
ATOM     11  C   UNL     1     -15.314   0.272  30.233  0.00  0.00    +0.013 C 
ATOM     12  C   UNL     1     -15.010   2.619  29.601  0.00  0.00    +0.013 C 
ATOM     13  C   UNL     1     -14.904   1.112  31.438  0.00  0.00    +0.001 C 
ATOM     14  C   UNL     1     -15.350   2.518  31.080  0.00  0.00    +0.001 C 
ENDBRANCH  17   9
ENDBRANCH  16   4
ENDBRANCH   7  16
TORSDOF 7
ENDMDL
MODEL 10
REMARK VINA RESULT:      -5.6     26.029     28.494
REMARK  Name = 75536558
REMARK  7 active torsions:
REMARK  status: ('A' for Active; 'I' for Inactive)
REMARK    1  A    between atoms: O_2  and  C_8
REMARK    2  A    between atoms: N_4  and  C_16
REMARK    3  A    between atoms: N_5  and  C_10
REMARK    4  A    between atoms: N_5  and  C_18
REMARK    5  A    between atoms: C_7  and  C_16
REMARK    6  A    between atoms: C_9  and  C_17
REMARK    7  A    between atoms: C_18  and  C_19
REMARK                            x       y       z     vdW  Elec       q    Type
REMARK                         _______ _______ _______ _____ _____    ______ ____
ROOT
ATOM      1  O   UNL     1      -7.512 -13.051  18.218  0.00  0.00    -0.371 OA
ATOM      7  C   UNL     1      -7.510 -12.328  19.460  0.00  0.00    +0.165 C 
ATOM      8  C   UNL     1      -6.208 -11.538  19.486  0.00  0.00    +0.164 C 
ATOM     10  C   UNL     1      -5.270 -12.499  18.777  0.00  0.00    +0.111 C 
ATOM     15  C   UNL     1      -6.174 -13.053  17.689  0.00  0.00    +0.181 C 
ENDROOT
BRANCH   8   2
ATOM      2  O   UNL     1      -5.794 -11.247  20.807  0.00  0.00    -0.388 OA
ATOM     26  H   UNL     1      -5.721 -12.083  21.296  0.00  0.00    +0.210 HD
ENDBRANCH   8   2
BRANCH  10   5
ATOM      5  N   UNL     1      -4.073 -11.863  18.250  0.00  0.00    -0.303 NA
ATOM     25  H   UNL     1      -3.532 -12.552  17.727  0.00  0.00    +0.123 HD
BRANCH   5  18
ATOM     18  C   UNL     1      -4.413 -10.757  17.364  0.00  0.00    +0.137 C 
BRANCH  18  19
ATOM      6  N   UNL     1      -2.188 -10.710  16.381  0.00  0.00    -0.259 NA
ATOM     19  C   UNL     1      -3.521 -10.715  16.153  0.00  0.00    +0.055 A 
ATOM     20  C   UNL     1      -4.091 -10.684  14.890  0.00  0.00    +0.024 A 
ATOM     21  C   UNL     1      -3.239 -10.646  13.792  0.00  0.00    +0.003 A 
ATOM     22  C   UNL     1      -1.391 -10.673  15.289  0.00  0.00    +0.111 A 
ATOM     23  C   UNL     1      -1.862 -10.641  13.986  0.00  0.00    +0.020 A 
ENDBRANCH  18  19
ENDBRANCH   5  18
ENDBRANCH  10   5
BRANCH   7  16
ATOM     16  C   UNL     1      -8.746 -11.450  19.544  0.00  0.00    +0.138 C 
BRANCH  16   4
ATOM      3  O   UNL     1      -9.901 -11.076  16.907  0.00  0.00    -0.276 OA
ATOM      4  N   UNL     1      -8.628 -10.299  18.696  0.00  0.00    -0.313 N 
ATOM     17  C   UNL     1      -9.218 -10.207  17.441  0.00  0.00    +0.216 C 
ATOM     24  H   UNL     1      -8.083  -9.516  19.044  0.00  0.00    +0.149 HD
BRANCH  17   9
ATOM      9  C   UNL     1      -8.958  -8.889  16.778  0.00  0.00    +0.075 C 
ATOM     11  C   UNL     1      -9.863  -7.805  17.374  0.00  0.00    +0.013 C 
ATOM     12  C   UNL     1      -9.296  -8.957  15.288  0.00  0.00    +0.013 C 
ATOM     13  C   UNL     1     -10.627  -7.208  16.198  0.00  0.00    +0.001 C 
ATOM     14  C   UNL     1     -10.679  -8.332  15.179  0.00  0.00    +0.001 C 
ENDBRANCH  17   9
ENDBRANCH  16   4
ENDBRANCH   7  16
TORSDOF 7
ENDMDL
