MODEL 1
REMARK VINA RESULT:      -7.2      0.000      0.000
REMARK  Name = 44716327
REMARK  9 active torsions:
REMARK  status: ('A' for Active; 'I' for Inactive)
REMARK    1  A    between atoms: O_1  and  C_27
REMARK    2  A    between atoms: O_1  and  C_31
REMARK    3  A    between atoms: N_3  and  C_19
REMARK    4  A    between atoms: N_4  and  C_14
REMARK    5  A    between atoms: N_4  and  C_18
REMARK    6  A    between atoms: C_8  and  C_15
REMARK    7  A    between atoms: C_9  and  C_14
REMARK    8  A    between atoms: C_17  and  C_20
REMARK    9  A    between atoms: C_18  and  C_21
REMARK                            x       y       z     vdW  Elec       q    Type
REMARK                         _______ _______ _______ _____ _____    ______ ____
ROOT
ATOM      2  N   UNL     1      12.408   6.761  21.165  0.00  0.00    -0.298 NA
ATOM      7  C   UNL     1      11.549   9.163  20.639  0.00  0.00    +0.002 C 
ATOM      8  C   UNL     1      11.782   8.369  19.324  0.00  0.00    +0.055 C 
ATOM      9  C   UNL     1      13.215   7.762  21.909  0.00  0.00    +0.071 C 
ATOM     10  C   UNL     1      12.859   9.194  21.455  0.00  0.00    +0.024 C 
ATOM     11  C   UNL     1      10.520   8.363  21.465  0.00  0.00    +0.019 C 
ATOM     12  C   UNL     1      12.479   7.032  19.707  0.00  0.00    +0.094 C 
ATOM     13  C   UNL     1      10.996   6.904  21.593  0.00  0.00    +0.085 C 
ENDROOT
BRANCH   8  15
ATOM      3  N   UNL     1      11.957   9.152  16.916  0.00  0.00    -0.270 N 
ATOM      5  N   UNL     1      12.733   9.818  16.043  0.00  0.00    -0.171 NA
ATOM     15  C   UNL     1      12.484   9.076  18.172  0.00  0.00    +0.044 A 
ATOM     16  C   UNL     1      13.685   9.738  18.117  0.00  0.00    +0.053 A 
ATOM     17  C   UNL     1      13.787  10.173  16.782  0.00  0.00    +0.093 A 
ATOM     19  C   UNL     1      10.699   8.602  16.467  0.00  0.00    +0.172 C 
BRANCH  17  20
ATOM     20  C   UNL     1      14.871  10.921  16.199  0.00  0.00    +0.002 A 
ATOM     22  C   UNL     1      15.541  11.882  16.956  0.00  0.00    +0.013 A 
ATOM     23  C   UNL     1      15.249  10.684  14.878  0.00  0.00    +0.013 A 
ATOM     25  C   UNL     1      16.591  12.607  16.391  0.00  0.00    +0.046 A 
ATOM     26  C   UNL     1      16.299  11.409  14.313  0.00  0.00    +0.046 A 
ATOM     27  C   UNL     1      16.969  12.371  15.070  0.00  0.00    +0.120 A 
BRANCH  27   1
ATOM      1  O   UNL     1      17.993  13.077  14.517  0.00  0.00    -0.495 OA
ATOM     31  C   UNL     1      17.854  13.460  13.150  0.00  0.00    +0.277 C 
ENDBRANCH  27   1
ENDBRANCH  17  20
ENDBRANCH   8  15
BRANCH   9  14
ATOM     14  C   UNL     1      14.718   7.489  21.812  0.00  0.00    +0.100 C 
BRANCH  14   4
ATOM      4  N   UNL     1      15.456   8.727  21.631  0.00  0.00    -0.309 NA
ATOM     32  H   UNL     1      16.002   8.911  22.473  0.00  0.00    +0.122 HD
BRANCH   4  18
ATOM     18  C   UNL     1      16.359   8.637  20.489  0.00  0.00    +0.136 C 
BRANCH  18  21
ATOM      6  N   UNL     1      18.360   8.242  21.813  0.00  0.00    -0.259 NA
ATOM     21  C   UNL     1      17.576   7.808  20.802  0.00  0.00    +0.055 A 
ATOM     24  C   UNL     1      17.830   6.669  20.056  0.00  0.00    +0.024 A 
ATOM     28  C   UNL     1      18.962   5.924  20.371  0.00  0.00    +0.003 A 
ATOM     29  C   UNL     1      19.452   7.494  22.090  0.00  0.00    +0.111 A 
ATOM     30  C   UNL     1      19.794   6.338  21.406  0.00  0.00    +0.020 A 
ENDBRANCH  18  21
ENDBRANCH   4  18
ENDBRANCH  14   4
ENDBRANCH   9  14
TORSDOF 7
ENDMDL
MODEL 2
REMARK VINA RESULT:      -7.0     27.776     30.047
REMARK  Name = 44716327
REMARK  9 active torsions:
REMARK  status: ('A' for Active; 'I' for Inactive)
REMARK    1  A    between atoms: O_1  and  C_27
REMARK    2  A    between atoms: O_1  and  C_31
REMARK    3  A    between atoms: N_3  and  C_19
REMARK    4  A    between atoms: N_4  and  C_14
REMARK    5  A    between atoms: N_4  and  C_18
REMARK    6  A    between atoms: C_8  and  C_15
REMARK    7  A    between atoms: C_9  and  C_14
REMARK    8  A    between atoms: C_17  and  C_20
REMARK    9  A    between atoms: C_18  and  C_21
REMARK                            x       y       z     vdW  Elec       q    Type
REMARK                         _______ _______ _______ _____ _____    ______ ____
ROOT
ATOM      2  N   UNL     1      -5.342 -12.675  17.093  0.00  0.00    -0.298 NA
ATOM      7  C   UNL     1      -5.753 -10.684  18.722  0.00  0.00    +0.002 C 
ATOM      8  C   UNL     1      -7.079 -11.447  18.448  0.00  0.00    +0.055 C 
ATOM      9  C   UNL     1      -4.745 -11.432  16.537  0.00  0.00    +0.071 C 
ATOM     10  C   UNL     1      -5.154 -10.207  17.382  0.00  0.00    +0.024 C 
ATOM     11  C   UNL     1      -4.766 -11.709  19.319  0.00  0.00    +0.019 C 
ATOM     12  C   UNL     1      -6.796 -12.482  17.323  0.00  0.00    +0.094 C 
ATOM     13  C   UNL     1      -4.698 -12.943  18.401  0.00  0.00    +0.085 C 
ENDROOT
BRANCH   8  15
ATOM      3  N   UNL     1      -9.493 -10.792  18.880  0.00  0.00    -0.270 N 
ATOM      5  N   UNL     1     -10.485  -9.975  18.485  0.00  0.00    -0.171 NA
ATOM     15  C   UNL     1      -8.335 -10.629  18.177  0.00  0.00    +0.044 A 
ATOM     16  C   UNL     1      -8.587  -9.638  17.261  0.00  0.00    +0.053 A 
ATOM     17  C   UNL     1      -9.926  -9.273  17.496  0.00  0.00    +0.093 A 
ATOM     19  C   UNL     1      -9.732 -11.724  19.957  0.00  0.00    +0.172 C 
BRANCH  17  20
ATOM     20  C   UNL     1     -10.681  -8.267  16.795  0.00  0.00    +0.002 A 
ATOM     22  C   UNL     1     -12.069  -8.374  16.704  0.00  0.00    +0.013 A 
ATOM     23  C   UNL     1     -10.023  -7.186  16.207  0.00  0.00    +0.013 A 
ATOM     25  C   UNL     1     -12.800  -7.400  16.024  0.00  0.00    +0.046 A 
ATOM     26  C   UNL     1     -10.754  -6.213  15.526  0.00  0.00    +0.046 A 
ATOM     27  C   UNL     1     -12.143  -6.320  15.435  0.00  0.00    +0.120 A 
BRANCH  27   1
ATOM      1  O   UNL     1     -12.856  -5.368  14.771  0.00  0.00    -0.495 OA
ATOM     31  C   UNL     1     -12.448  -5.065  13.437  0.00  0.00    +0.277 C 
ENDBRANCH  27   1
ENDBRANCH  17  20
ENDBRANCH   8  15
BRANCH   9  14
ATOM     14  C   UNL     1      -5.074 -11.240  15.055  0.00  0.00    +0.100 C 
BRANCH  14   4
ATOM      4  N   UNL     1      -4.108 -10.357  14.422  0.00  0.00    -0.309 NA
ATOM     32  H   UNL     1      -3.334 -10.200  15.068  0.00  0.00    +0.122 HD
BRANCH   4  18
ATOM     18  C   UNL     1      -3.590 -10.943  13.192  0.00  0.00    +0.136 C 
BRANCH  18  21
ATOM      6  N   UNL     1      -5.192  -9.583  11.968  0.00  0.00    -0.259 NA
ATOM     21  C   UNL     1      -3.953 -10.121  11.984  0.00  0.00    +0.055 A 
ATOM     24  C   UNL     1      -3.022  -9.957  10.971  0.00  0.00    +0.024 A 
ATOM     28  C   UNL     1      -3.388  -9.191   9.869  0.00  0.00    +0.003 A 
ATOM     29  C   UNL     1      -5.513  -8.845  10.881  0.00  0.00    +0.111 A 
ATOM     30  C   UNL     1      -4.656  -8.621   9.816  0.00  0.00    +0.020 A 
ENDBRANCH  18  21
ENDBRANCH   4  18
ENDBRANCH  14   4
ENDBRANCH   9  14
TORSDOF 7
ENDMDL
MODEL 3
REMARK VINA RESULT:      -6.8     26.178     29.442
REMARK  Name = 44716327
REMARK  9 active torsions:
REMARK  status: ('A' for Active; 'I' for Inactive)
REMARK    1  A    between atoms: O_1  and  C_27
REMARK    2  A    between atoms: O_1  and  C_31
REMARK    3  A    between atoms: N_3  and  C_19
REMARK    4  A    between atoms: N_4  and  C_14
REMARK    5  A    between atoms: N_4  and  C_18
REMARK    6  A    between atoms: C_8  and  C_15
REMARK    7  A    between atoms: C_9  and  C_14
REMARK    8  A    between atoms: C_17  and  C_20
REMARK    9  A    between atoms: C_18  and  C_21
REMARK                            x       y       z     vdW  Elec       q    Type
REMARK                         _______ _______ _______ _____ _____    ______ ____
ROOT
ATOM      2  N   UNL     1      -6.255 -10.665  17.938  0.00  0.00    -0.298 NA
ATOM      7  C   UNL     1      -4.141 -12.062  17.335  0.00  0.00    +0.002 C 
ATOM      8  C   UNL     1      -4.108 -10.686  16.613  0.00  0.00    +0.055 C 
ATOM      9  C   UNL     1      -6.654 -12.032  17.513  0.00  0.00    +0.071 C 
ATOM     10  C   UNL     1      -5.439 -12.805  16.956  0.00  0.00    +0.024 C 
ATOM     11  C   UNL     1      -4.211 -11.768  18.848  0.00  0.00    +0.019 C 
ATOM     12  C   UNL     1      -5.483 -10.001  16.858  0.00  0.00    +0.094 C 
ATOM     13  C   UNL     1      -5.373 -10.796  19.123  0.00  0.00    +0.085 C 
ENDROOT
BRANCH   8  15
ATOM      3  N   UNL     1      -2.406 -10.516  14.738  0.00  0.00    -0.270 N 
ATOM      5  N   UNL     1      -2.258 -10.509  13.402  0.00  0.00    -0.171 NA
ATOM     15  C   UNL     1      -3.701 -10.654  15.146  0.00  0.00    +0.044 A 
ATOM     16  C   UNL     1      -4.449 -10.744  13.999  0.00  0.00    +0.053 A 
ATOM     17  C   UNL     1      -3.509 -10.649  12.956  0.00  0.00    +0.093 A 
ATOM     19  C   UNL     1      -1.240 -10.379  15.579  0.00  0.00    +0.172 C 
BRANCH  17  20
ATOM     20  C   UNL     1      -3.782 -10.688  11.543  0.00  0.00    +0.002 A 
ATOM     22  C   UNL     1      -3.792  -9.507  10.801  0.00  0.00    +0.013 A 
ATOM     23  C   UNL     1      -4.037 -11.909  10.916  0.00  0.00    +0.013 A 
ATOM     25  C   UNL     1      -4.057  -9.545   9.432  0.00  0.00    +0.046 A 
ATOM     26  C   UNL     1      -4.302 -11.947   9.547  0.00  0.00    +0.046 A 
ATOM     27  C   UNL     1      -4.313 -10.765   8.806  0.00  0.00    +0.120 A 
BRANCH  27   1
ATOM      1  O   UNL     1      -4.571 -10.804   7.469  0.00  0.00    -0.495 OA
ATOM     31  C   UNL     1      -5.729 -10.106   7.012  0.00  0.00    +0.277 C 
ENDBRANCH  27   1
ENDBRANCH  17  20
ENDBRANCH   8  15
BRANCH   9  14
ATOM     14  C   UNL     1      -7.823 -12.018  16.525  0.00  0.00    +0.100 C 
BRANCH  14   4
ATOM      4  N   UNL     1      -7.396 -12.476  15.214  0.00  0.00    -0.309 NA
ATOM     32  H   UNL     1      -7.110 -13.453  15.282  0.00  0.00    +0.122 HD
BRANCH   4  18
ATOM     18  C   UNL     1      -8.477 -12.363  14.242  0.00  0.00    +0.136 C 
BRANCH  18  21
ATOM      6  N   UNL     1      -7.897 -10.166  13.376  0.00  0.00    -0.259 NA
ATOM     21  C   UNL     1      -8.103 -11.470  13.089  0.00  0.00    +0.055 A 
ATOM     24  C   UNL     1      -7.991 -12.013  11.820  0.00  0.00    +0.024 A 
ATOM     28  C   UNL     1      -7.643 -11.161  10.777  0.00  0.00    +0.003 A 
ATOM     29  C   UNL     1      -7.561  -9.368  12.337  0.00  0.00    +0.111 A 
ATOM     30  C   UNL     1      -7.423  -9.812  11.032  0.00  0.00    +0.020 A 
ENDBRANCH  18  21
ENDBRANCH   4  18
ENDBRANCH  14   4
ENDBRANCH   9  14
TORSDOF 7
ENDMDL
MODEL 4
REMARK VINA RESULT:      -6.8     26.387     29.523
REMARK  Name = 44716327
REMARK  9 active torsions:
REMARK  status: ('A' for Active; 'I' for Inactive)
REMARK    1  A    between atoms: O_1  and  C_27
REMARK    2  A    between atoms: O_1  and  C_31
REMARK    3  A    between atoms: N_3  and  C_19
REMARK    4  A    between atoms: N_4  and  C_14
REMARK    5  A    between atoms: N_4  and  C_18
REMARK    6  A    between atoms: C_8  and  C_15
REMARK    7  A    between atoms: C_9  and  C_14
REMARK    8  A    between atoms: C_17  and  C_20
REMARK    9  A    between atoms: C_18  and  C_21
REMARK                            x       y       z     vdW  Elec       q    Type
REMARK                         _______ _______ _______ _____ _____    ______ ____
ROOT
ATOM      2  N   UNL     1      -5.686 -10.360  18.053  0.00  0.00    -0.298 NA
ATOM      7  C   UNL     1      -5.055 -12.442  16.621  0.00  0.00    +0.002 C 
ATOM      8  C   UNL     1      -4.102 -11.256  16.306  0.00  0.00    +0.055 C 
ATOM      9  C   UNL     1      -6.897 -10.902  17.384  0.00  0.00    +0.071 C 
ATOM     10  C   UNL     1      -6.514 -12.003  16.373  0.00  0.00    +0.024 C 
ATOM     11  C   UNL     1      -4.919 -12.732  18.131  0.00  0.00    +0.019 C 
ATOM     12  C   UNL     1      -4.661 -10.004  17.040  0.00  0.00    +0.094 C 
ATOM     13  C   UNL     1      -5.128 -11.427  18.919  0.00  0.00    +0.085 C 
ENDROOT
BRANCH   8  15
ATOM      3  N   UNL     1      -2.510 -10.665  14.419  0.00  0.00    -0.270 N 
ATOM      5  N   UNL     1      -2.427 -10.444  13.096  0.00  0.00    -0.171 NA
ATOM     15  C   UNL     1      -3.769 -10.969  14.848  0.00  0.00    +0.044 A 
ATOM     16  C   UNL     1      -4.563 -10.947  13.728  0.00  0.00    +0.053 A 
ATOM     17  C   UNL     1      -3.684 -10.618  12.679  0.00  0.00    +0.093 A 
ATOM     19  C   UNL     1      -1.318 -10.561  15.229  0.00  0.00    +0.172 C 
BRANCH  17  20
ATOM     20  C   UNL     1      -4.022 -10.466  11.287  0.00  0.00    +0.002 A 
ATOM     22  C   UNL     1      -3.730  -9.274  10.625  0.00  0.00    +0.013 A 
ATOM     23  C   UNL     1      -4.640 -11.512  10.603  0.00  0.00    +0.013 A 
ATOM     25  C   UNL     1      -4.058  -9.126   9.277  0.00  0.00    +0.046 A 
ATOM     26  C   UNL     1      -4.968 -11.365   9.255  0.00  0.00    +0.046 A 
ATOM     27  C   UNL     1      -4.677 -10.172   8.592  0.00  0.00    +0.120 A 
BRANCH  27   1
ATOM      1  O   UNL     1      -4.997 -10.029   7.276  0.00  0.00    -0.495 OA
ATOM     31  C   UNL     1      -4.973 -11.208   6.472  0.00  0.00    +0.277 C 
ENDBRANCH  27   1
ENDBRANCH  17  20
ENDBRANCH   8  15
BRANCH   9  14
ATOM     14  C   UNL     1      -7.747  -9.805  16.739  0.00  0.00    +0.100 C 
BRANCH  14   4
ATOM      4  N   UNL     1      -8.460  -9.043  17.751  0.00  0.00    -0.309 NA
ATOM     32  H   UNL     1      -8.380  -8.049  17.533  0.00  0.00    +0.122 HD
BRANCH   4  18
ATOM     18  C   UNL     1      -9.870  -9.410  17.786  0.00  0.00    +0.136 C 
BRANCH  18  21
ATOM      6  N   UNL     1     -10.112  -7.271  16.654  0.00  0.00    -0.259 NA
ATOM     21  C   UNL     1     -10.733  -8.385  17.099  0.00  0.00    +0.055 A 
ATOM     24  C   UNL     1     -12.090  -8.626  16.958  0.00  0.00    +0.024 A 
ATOM     28  C   UNL     1     -12.859  -7.660  16.317  0.00  0.00    +0.003 A 
ATOM     29  C   UNL     1     -10.891  -6.354  16.037  0.00  0.00    +0.111 A 
ATOM     30  C   UNL     1     -12.255  -6.499  15.845  0.00  0.00    +0.020 A 
ENDBRANCH  18  21
ENDBRANCH   4  18
ENDBRANCH  14   4
ENDBRANCH   9  14
TORSDOF 7
ENDMDL
MODEL 5
REMARK VINA RESULT:      -6.7      1.775      2.182
REMARK  Name = 44716327
REMARK  9 active torsions:
REMARK  status: ('A' for Active; 'I' for Inactive)
REMARK    1  A    between atoms: O_1  and  C_27
REMARK    2  A    between atoms: O_1  and  C_31
REMARK    3  A    between atoms: N_3  and  C_19
REMARK    4  A    between atoms: N_4  and  C_14
REMARK    5  A    between atoms: N_4  and  C_18
REMARK    6  A    between atoms: C_8  and  C_15
REMARK    7  A    between atoms: C_9  and  C_14
REMARK    8  A    between atoms: C_17  and  C_20
REMARK    9  A    between atoms: C_18  and  C_21
REMARK                            x       y       z     vdW  Elec       q    Type
REMARK                         _______ _______ _______ _____ _____    ______ ____
ROOT
ATOM      2  N   UNL     1      11.257   7.798  21.060  0.00  0.00    -0.298 NA
ATOM      7  C   UNL     1      12.531   9.863  22.010  0.00  0.00    +0.002 C 
ATOM      8  C   UNL     1      11.888  10.204  20.637  0.00  0.00    +0.055 C 
ATOM      9  C   UNL     1      12.628   7.403  21.476  0.00  0.00    +0.071 C 
ATOM     10  C   UNL     1      13.465   8.645  21.847  0.00  0.00    +0.024 C 
ATOM     11  C   UNL     1      11.380   9.430  22.943  0.00  0.00    +0.019 C 
ATOM     12  C   UNL     1      11.326   8.880  20.046  0.00  0.00    +0.094 C 
ATOM     13  C   UNL     1      10.554   8.328  22.254  0.00  0.00    +0.085 C 
ENDROOT
BRANCH   8  15
ATOM      3  N   UNL     1      12.878  12.333  19.673  0.00  0.00    -0.270 N 
ATOM      5  N   UNL     1      13.652  12.825  18.690  0.00  0.00    -0.171 NA
ATOM     15  C   UNL     1      12.723  10.979  19.626  0.00  0.00    +0.044 A 
ATOM     16  C   UNL     1      13.445  10.555  18.538  0.00  0.00    +0.053 A 
ATOM     17  C   UNL     1      13.995  11.734  18.000  0.00  0.00    +0.093 A 
ATOM     19  C   UNL     1      12.306  13.240  20.641  0.00  0.00    +0.172 C 
BRANCH  17  20
ATOM     20  C   UNL     1      14.842  11.838  16.839  0.00  0.00    +0.002 A 
ATOM     22  C   UNL     1      15.604  12.989  16.633  0.00  0.00    +0.013 A 
ATOM     23  C   UNL     1      14.899  10.789  15.922  0.00  0.00    +0.013 A 
ATOM     25  C   UNL     1      16.423  13.090  15.509  0.00  0.00    +0.046 A 
ATOM     26  C   UNL     1      15.718  10.891  14.797  0.00  0.00    +0.046 A 
ATOM     27  C   UNL     1      16.480  12.042  14.591  0.00  0.00    +0.120 A 
BRANCH  27   1
ATOM      1  O   UNL     1      17.279  12.140  13.493  0.00  0.00    -0.495 OA
ATOM     31  C   UNL     1      17.152  13.320  12.701  0.00  0.00    +0.277 C 
ENDBRANCH  27   1
ENDBRANCH  17  20
ENDBRANCH   8  15
BRANCH   9  14
ATOM     14  C   UNL     1      13.328   6.535  20.427  0.00  0.00    +0.100 C 
BRANCH  14   4
ATOM      4  N   UNL     1      14.690   6.234  20.833  0.00  0.00    -0.309 NA
ATOM     32  H   UNL     1      14.753   5.244  21.070  0.00  0.00    +0.122 HD
BRANCH   4  18
ATOM     18  C   UNL     1      15.633   6.526  19.760  0.00  0.00    +0.136 C 
BRANCH  18  21
ATOM      6  N   UNL     1      17.073   8.058  20.982  0.00  0.00    -0.259 NA
ATOM     21  C   UNL     1      16.991   6.899  20.292  0.00  0.00    +0.055 A 
ATOM     24  C   UNL     1      18.066   6.058  20.058  0.00  0.00    +0.024 A 
ATOM     28  C   UNL     1      19.306   6.431  20.565  0.00  0.00    +0.003 A 
ATOM     29  C   UNL     1      18.294   8.389  21.459  0.00  0.00    +0.111 A 
ATOM     30  C   UNL     1      19.431   7.617  21.279  0.00  0.00    +0.020 A 
ENDBRANCH  18  21
ENDBRANCH   4  18
ENDBRANCH  14   4
ENDBRANCH   9  14
TORSDOF 7
ENDMDL
MODEL 6
REMARK VINA RESULT:      -6.5     26.745     30.351
REMARK  Name = 44716327
REMARK  9 active torsions:
REMARK  status: ('A' for Active; 'I' for Inactive)
REMARK    1  A    between atoms: O_1  and  C_27
REMARK    2  A    between atoms: O_1  and  C_31
REMARK    3  A    between atoms: N_3  and  C_19
REMARK    4  A    between atoms: N_4  and  C_14
REMARK    5  A    between atoms: N_4  and  C_18
REMARK    6  A    between atoms: C_8  and  C_15
REMARK    7  A    between atoms: C_9  and  C_14
REMARK    8  A    between atoms: C_17  and  C_20
REMARK    9  A    between atoms: C_18  and  C_21
REMARK                            x       y       z     vdW  Elec       q    Type
REMARK                         _______ _______ _______ _____ _____    ______ ____
ROOT
ATOM      2  N   UNL     1      -5.578 -10.888   9.696  0.00  0.00    -0.298 NA
ATOM      7  C   UNL     1      -4.271  -9.108  11.077  0.00  0.00    +0.002 C 
ATOM      8  C   UNL     1      -4.040 -10.529  11.663  0.00  0.00    +0.055 C 
ATOM      9  C   UNL     1      -6.481  -9.767  10.063  0.00  0.00    +0.071 C 
ATOM     10  C   UNL     1      -5.784  -8.808  11.052  0.00  0.00    +0.024 C 
ATOM     11  C   UNL     1      -3.792  -9.150   9.610  0.00  0.00    +0.019 C 
ATOM     12  C   UNL     1      -5.002 -11.499  10.921  0.00  0.00    +0.094 C 
ATOM     13  C   UNL     1      -4.465 -10.332   8.890  0.00  0.00    +0.085 C 
ENDROOT
BRANCH   8  15
ATOM      3  N   UNL     1      -3.013 -10.550  13.984  0.00  0.00    -0.270 N 
ATOM      5  N   UNL     1      -3.276 -10.745  15.288  0.00  0.00    -0.171 NA
ATOM     15  C   UNL     1      -4.101 -10.701  13.175  0.00  0.00    +0.044 A 
ATOM     16  C   UNL     1      -5.147 -11.016  14.006  0.00  0.00    +0.053 A 
ATOM     17  C   UNL     1      -4.581 -11.030  15.295  0.00  0.00    +0.093 A 
ATOM     19  C   UNL     1      -1.667 -10.217  13.578  0.00  0.00    +0.172 C 
BRANCH  17  20
ATOM     20  C   UNL     1      -5.263 -11.310  16.533  0.00  0.00    +0.002 A 
ATOM     22  C   UNL     1      -5.155 -10.423  17.604  0.00  0.00    +0.013 A 
ATOM     23  C   UNL     1      -6.029 -12.468  16.660  0.00  0.00    +0.013 A 
ATOM     25  C   UNL     1      -5.814 -10.694  18.803  0.00  0.00    +0.046 A 
ATOM     26  C   UNL     1      -6.688 -12.740  17.859  0.00  0.00    +0.046 A 
ATOM     27  C   UNL     1      -6.580 -11.853  18.930  0.00  0.00    +0.120 A 
BRANCH  27   1
ATOM      1  O   UNL     1      -7.224 -12.119  20.100  0.00  0.00    -0.495 OA
ATOM     31  C   UNL     1      -8.344 -13.001  20.037  0.00  0.00    +0.277 C 
ENDBRANCH  27   1
ENDBRANCH  17  20
ENDBRANCH   8  15
BRANCH   9  14
ATOM     14  C   UNL     1      -7.830 -10.255  10.596  0.00  0.00    +0.100 C 
BRANCH  14   4
ATOM      4  N   UNL     1      -7.950  -9.985  12.019  0.00  0.00    -0.309 NA
ATOM     32  H   UNL     1      -7.913  -8.977  12.168  0.00  0.00    +0.122 HD
BRANCH   4  18
ATOM     18  C   UNL     1      -9.211 -10.496  12.545  0.00  0.00    +0.136 C 
BRANCH  18  21
ATOM      6  N   UNL     1     -10.088 -11.327  14.656  0.00  0.00    -0.259 NA
ATOM     21  C   UNL     1      -9.246 -10.462  14.050  0.00  0.00    +0.055 A 
ATOM     24  C   UNL     1      -8.433  -9.567  14.726  0.00  0.00    +0.024 A 
ATOM     28  C   UNL     1      -8.487  -9.561  16.116  0.00  0.00    +0.003 A 
ATOM     29  C   UNL     1     -10.115 -11.292  16.007  0.00  0.00    +0.111 A 
ATOM     30  C   UNL     1      -9.343 -10.437  16.776  0.00  0.00    +0.020 A 
ENDBRANCH  18  21
ENDBRANCH   4  18
ENDBRANCH  14   4
ENDBRANCH   9  14
TORSDOF 7
ENDMDL
MODEL 7
REMARK VINA RESULT:      -6.5     26.899     30.419
REMARK  Name = 44716327
REMARK  9 active torsions:
REMARK  status: ('A' for Active; 'I' for Inactive)
REMARK    1  A    between atoms: O_1  and  C_27
REMARK    2  A    between atoms: O_1  and  C_31
REMARK    3  A    between atoms: N_3  and  C_19
REMARK    4  A    between atoms: N_4  and  C_14
REMARK    5  A    between atoms: N_4  and  C_18
REMARK    6  A    between atoms: C_8  and  C_15
REMARK    7  A    between atoms: C_9  and  C_14
REMARK    8  A    between atoms: C_17  and  C_20
REMARK    9  A    between atoms: C_18  and  C_21
REMARK                            x       y       z     vdW  Elec       q    Type
REMARK                         _______ _______ _______ _____ _____    ______ ____
ROOT
ATOM      2  N   UNL     1      -5.288 -11.278   9.855  0.00  0.00    -0.298 NA
ATOM      7  C   UNL     1      -4.295  -9.262  11.172  0.00  0.00    +0.002 C 
ATOM      8  C   UNL     1      -4.038 -10.591  11.935  0.00  0.00    +0.055 C 
ATOM      9  C   UNL     1      -6.308 -10.205   9.987  0.00  0.00    +0.071 C 
ATOM     10  C   UNL     1      -5.811  -9.095  10.937  0.00  0.00    +0.024 C 
ATOM     11  C   UNL     1      -3.634  -9.412   9.785  0.00  0.00    +0.019 C 
ATOM     12  C   UNL     1      -4.827 -11.710  11.198  0.00  0.00    +0.094 C 
ATOM     13  C   UNL     1      -4.126 -10.714   9.126  0.00  0.00    +0.085 C 
ENDROOT
BRANCH   8  15
ATOM      3  N   UNL     1      -3.263 -10.539  14.352  0.00  0.00    -0.270 N 
ATOM      5  N   UNL     1      -3.682 -10.576  15.628  0.00  0.00    -0.171 NA
ATOM     15  C   UNL     1      -4.275 -10.613  13.439  0.00  0.00    +0.044 A 
ATOM     16  C   UNL     1      -5.434 -10.704  14.169  0.00  0.00    +0.053 A 
ATOM     17  C   UNL     1      -5.009 -10.676  15.511  0.00  0.00    +0.093 A 
ATOM     19  C   UNL     1      -1.849 -10.433  14.075  0.00  0.00    +0.172 C 
BRANCH  17  20
ATOM     20  C   UNL     1      -5.844 -10.745  16.682  0.00  0.00    +0.002 A 
ATOM     22  C   UNL     1      -5.284 -10.580  17.949  0.00  0.00    +0.013 A 
ATOM     23  C   UNL     1      -7.213 -10.976  16.548  0.00  0.00    +0.013 A 
ATOM     25  C   UNL     1      -6.093 -10.647  19.083  0.00  0.00    +0.046 A 
ATOM     26  C   UNL     1      -8.023 -11.043  17.682  0.00  0.00    +0.046 A 
ATOM     27  C   UNL     1      -7.462 -10.879  18.950  0.00  0.00    +0.120 A 
BRANCH  27   1
ATOM      1  O   UNL     1      -8.253 -10.944  20.056  0.00  0.00    -0.495 OA
ATOM     31  C   UNL     1      -9.661 -11.030  19.842  0.00  0.00    +0.277 C 
ENDBRANCH  27   1
ENDBRANCH  17  20
ENDBRANCH   8  15
BRANCH   9  14
ATOM     14  C   UNL     1      -7.675 -10.749  10.410  0.00  0.00    +0.100 C 
BRANCH  14   4
ATOM      4  N   UNL     1      -8.636  -9.669  10.558  0.00  0.00    -0.309 NA
ATOM     32  H   UNL     1      -8.145  -8.832  10.873  0.00  0.00    +0.122 HD
BRANCH   4  18
ATOM     18  C   UNL     1      -9.301  -9.382   9.292  0.00  0.00    +0.136 C 
BRANCH  18  21
ATOM      6  N   UNL     1     -10.526  -7.282   9.330  0.00  0.00    -0.259 NA
ATOM     21  C   UNL     1      -9.369  -7.903   9.017  0.00  0.00    +0.055 A 
ATOM     24  C   UNL     1      -8.268  -7.265   8.469  0.00  0.00    +0.024 A 
ATOM     28  C   UNL     1      -8.362  -5.898   8.228  0.00  0.00    +0.003 A 
ATOM     29  C   UNL     1     -10.582  -5.954   9.082  0.00  0.00    +0.111 A 
ATOM     30  C   UNL     1      -9.538  -5.223   8.537  0.00  0.00    +0.020 A 
ENDBRANCH  18  21
ENDBRANCH   4  18
ENDBRANCH  14   4
ENDBRANCH   9  14
TORSDOF 7
ENDMDL
MODEL 8
REMARK VINA RESULT:      -6.3     24.604     26.640
REMARK  Name = 44716327
REMARK  9 active torsions:
REMARK  status: ('A' for Active; 'I' for Inactive)
REMARK    1  A    between atoms: O_1  and  C_27
REMARK    2  A    between atoms: O_1  and  C_31
REMARK    3  A    between atoms: N_3  and  C_19
REMARK    4  A    between atoms: N_4  and  C_14
REMARK    5  A    between atoms: N_4  and  C_18
REMARK    6  A    between atoms: C_8  and  C_15
REMARK    7  A    between atoms: C_9  and  C_14
REMARK    8  A    between atoms: C_17  and  C_20
REMARK    9  A    between atoms: C_18  and  C_21
REMARK                            x       y       z     vdW  Elec       q    Type
REMARK                         _______ _______ _______ _____ _____    ______ ____
ROOT
ATOM      2  N   UNL     1      15.752  -7.268  -5.585  0.00  0.00    -0.298 NA
ATOM      7  C   UNL     1      14.820  -5.885  -3.584  0.00  0.00    +0.002 C 
ATOM      8  C   UNL     1      16.177  -5.300  -4.064  0.00  0.00    +0.055 C 
ATOM      9  C   UNL     1      15.369  -8.177  -4.475  0.00  0.00    +0.071 C 
ATOM     10  C   UNL     1      15.009  -7.370  -3.209  0.00  0.00    +0.024 C 
ATOM     11  C   UNL     1      13.864  -5.842  -4.796  0.00  0.00    +0.019 C 
ATOM     12  C   UNL     1      16.763  -6.287  -5.113  0.00  0.00    +0.094 C 
ATOM     13  C   UNL     1      14.541  -6.520  -6.001  0.00  0.00    +0.085 C 
ENDROOT
BRANCH   8  15
ATOM      3  N   UNL     1      17.350  -3.624  -2.562  0.00  0.00    -0.270 N 
ATOM      5  N   UNL     1      18.309  -3.483  -1.632  0.00  0.00    -0.171 NA
ATOM     15  C   UNL     1      17.201  -4.904  -3.010  0.00  0.00    +0.044 A 
ATOM     16  C   UNL     1      18.127  -5.651  -2.325  0.00  0.00    +0.053 A 
ATOM     17  C   UNL     1      18.781  -4.725  -1.491  0.00  0.00    +0.093 A 
ATOM     19  C   UNL     1      16.601  -2.463  -2.986  0.00  0.00    +0.172 C 
BRANCH  17  20
ATOM     20  C   UNL     1      19.847  -5.002  -0.563  0.00  0.00    +0.002 A 
ATOM     22  C   UNL     1      21.112  -5.348  -1.038  0.00  0.00    +0.013 A 
ATOM     23  C   UNL     1      19.614  -4.924   0.810  0.00  0.00    +0.013 A 
ATOM     25  C   UNL     1      22.145  -5.618  -0.139  0.00  0.00    +0.046 A 
ATOM     26  C   UNL     1      20.646  -5.193   1.708  0.00  0.00    +0.046 A 
ATOM     27  C   UNL     1      21.911  -5.541   1.233  0.00  0.00    +0.120 A 
BRANCH  27   1
ATOM      1  O   UNL     1      22.918  -5.803   2.112  0.00  0.00    -0.495 OA
ATOM     31  C   UNL     1      22.546  -6.075   3.462  0.00  0.00    +0.277 C 
ENDBRANCH  27   1
ENDBRANCH  17  20
ENDBRANCH   8  15
BRANCH   9  14
ATOM     14  C   UNL     1      16.437  -9.237  -4.192  0.00  0.00    +0.100 C 
BRANCH  14   4
ATOM      4  N   UNL     1      16.832  -9.211  -2.794  0.00  0.00    -0.309 NA
ATOM     32  H   UNL     1      16.119  -9.687  -2.241  0.00  0.00    +0.122 HD
BRANCH   4  18
ATOM     18  C   UNL     1      18.112  -9.881  -2.599  0.00  0.00    +0.136 C 
BRANCH  18  21
ATOM      6  N   UNL     1      18.179 -10.697  -0.309  0.00  0.00    -0.259 NA
ATOM     21  C   UNL     1      18.601  -9.755  -1.180  0.00  0.00    +0.055 A 
ATOM     24  C   UNL     1      19.439  -8.705  -0.843  0.00  0.00    +0.024 A 
ATOM     28  C   UNL     1      19.873  -8.618   0.475  0.00  0.00    +0.003 A 
ATOM     29  C   UNL     1      18.620 -10.580   0.963  0.00  0.00    +0.111 A 
ATOM     30  C   UNL     1      19.460  -9.569   1.402  0.00  0.00    +0.020 A 
ENDBRANCH  18  21
ENDBRANCH   4  18
ENDBRANCH  14   4
ENDBRANCH   9  14
TORSDOF 7
ENDMDL
MODEL 9
REMARK VINA RESULT:      -6.3     13.578     17.294
REMARK  Name = 44716327
REMARK  9 active torsions:
REMARK  status: ('A' for Active; 'I' for Inactive)
REMARK    1  A    between atoms: O_1  and  C_27
REMARK    2  A    between atoms: O_1  and  C_31
REMARK    3  A    between atoms: N_3  and  C_19
REMARK    4  A    between atoms: N_4  and  C_14
REMARK    5  A    between atoms: N_4  and  C_18
REMARK    6  A    between atoms: C_8  and  C_15
REMARK    7  A    between atoms: C_9  and  C_14
REMARK    8  A    between atoms: C_17  and  C_20
REMARK    9  A    between atoms: C_18  and  C_21
REMARK                            x       y       z     vdW  Elec       q    Type
REMARK                         _______ _______ _______ _____ _____    ______ ____
ROOT
ATOM      2  N   UNL     1      13.020   9.495   6.117  0.00  0.00    -0.298 NA
ATOM      7  C   UNL     1      15.287   8.280   5.706  0.00  0.00    +0.002 C 
ATOM      8  C   UNL     1      14.673   8.755   4.360  0.00  0.00    +0.055 C 
ATOM      9  C   UNL     1      13.034   8.191   6.829  0.00  0.00    +0.071 C 
ATOM     10  C   UNL     1      14.278   7.367   6.433  0.00  0.00    +0.024 C 
ATOM     11  C   UNL     1      15.471   9.539   6.580  0.00  0.00    +0.019 C 
ATOM     12  C   UNL     1      13.242   9.283   4.664  0.00  0.00    +0.094 C 
ATOM     13  C   UNL     1      14.141  10.312   6.641  0.00  0.00    +0.085 C 
ENDROOT
BRANCH   8  15
ATOM      3  N   UNL     1      15.762   7.668   2.341  0.00  0.00    -0.270 N 
ATOM      5  N   UNL     1      15.581   6.765   1.363  0.00  0.00    -0.171 NA
ATOM     15  C   UNL     1      14.694   7.791   3.181  0.00  0.00    +0.044 A 
ATOM     16  C   UNL     1      13.750   6.907   2.721  0.00  0.00    +0.053 A 
ATOM     17  C   UNL     1      14.350   6.303   1.600  0.00  0.00    +0.093 A 
ATOM     19  C   UNL     1      17.009   8.394   2.410  0.00  0.00    +0.172 C 
BRANCH  17  20
ATOM     20  C   UNL     1      13.770   5.295   0.751  0.00  0.00    +0.002 A 
ATOM     22  C   UNL     1      13.740   3.964   1.169  0.00  0.00    +0.013 A 
ATOM     23  C   UNL     1      13.240   5.649  -0.490  0.00  0.00    +0.013 A 
ATOM     25  C   UNL     1      13.180   2.987   0.346  0.00  0.00    +0.046 A 
ATOM     26  C   UNL     1      12.679   4.672  -1.313  0.00  0.00    +0.046 A 
ATOM     27  C   UNL     1      12.650   3.341  -0.894  0.00  0.00    +0.120 A 
BRANCH  27   1
ATOM      1  O   UNL     1      12.102   2.388  -1.698  0.00  0.00    -0.495 OA
ATOM     31  C   UNL     1      12.415   2.455  -3.089  0.00  0.00    +0.277 C 
ENDBRANCH  27   1
ENDBRANCH  17  20
ENDBRANCH   8  15
BRANCH   9  14
ATOM     14  C   UNL     1      11.738   7.402   6.626  0.00  0.00    +0.100 C 
BRANCH  14   4
ATOM      4  N   UNL     1      11.982   6.203   5.841  0.00  0.00    -0.309 NA
ATOM     32  H   UNL     1      12.539   5.554   6.395  0.00  0.00    +0.122 HD
BRANCH   4  18
ATOM     18  C   UNL     1      10.729   5.557   5.469  0.00  0.00    +0.136 C 
BRANCH  18  21
ATOM      6  N   UNL     1      10.191   6.838   3.473  0.00  0.00    -0.259 NA
ATOM     21  C   UNL     1      10.483   5.622   3.985  0.00  0.00    +0.055 A 
ATOM     24  C   UNL     1      10.566   4.462   3.232  0.00  0.00    +0.024 A 
ATOM     28  C   UNL     1      10.335   4.557   1.864  0.00  0.00    +0.003 A 
ATOM     29  C   UNL     1       9.972   6.891   2.140  0.00  0.00    +0.111 A 
ATOM     30  C   UNL     1      10.031   5.791   1.300  0.00  0.00    +0.020 A 
ENDBRANCH  18  21
ENDBRANCH   4  18
ENDBRANCH  14   4
ENDBRANCH   9  14
TORSDOF 7
ENDMDL
MODEL 10
REMARK VINA RESULT:      -6.2     26.741     29.789
REMARK  Name = 44716327
REMARK  9 active torsions:
REMARK  status: ('A' for Active; 'I' for Inactive)
REMARK    1  A    between atoms: O_1  and  C_27
REMARK    2  A    between atoms: O_1  and  C_31
REMARK    3  A    between atoms: N_3  and  C_19
REMARK    4  A    between atoms: N_4  and  C_14
REMARK    5  A    between atoms: N_4  and  C_18
REMARK    6  A    between atoms: C_8  and  C_15
REMARK    7  A    between atoms: C_9  and  C_14
REMARK    8  A    between atoms: C_17  and  C_20
REMARK    9  A    between atoms: C_18  and  C_21
REMARK                            x       y       z     vdW  Elec       q    Type
REMARK                         _______ _______ _______ _____ _____    ______ ____
ROOT
ATOM      2  N   UNL     1      -5.222 -10.413  11.236  0.00  0.00    -0.298 NA
ATOM      7  C   UNL     1      -4.737  -8.677   9.355  0.00  0.00    +0.002 C 
ATOM      8  C   UNL     1      -5.746  -9.750   8.858  0.00  0.00    +0.055 C 
ATOM      9  C   UNL     1      -3.756 -10.238  11.072  0.00  0.00    +0.071 C 
ATOM     10  C   UNL     1      -3.445  -9.374   9.831  0.00  0.00    +0.024 C 
ATOM     11  C   UNL     1      -5.374  -8.008  10.592  0.00  0.00    +0.019 C 
ATOM     12  C   UNL     1      -5.828 -10.852   9.953  0.00  0.00    +0.094 C 
ATOM     13  C   UNL     1      -5.802  -9.096  11.594  0.00  0.00    +0.085 C 
ENDROOT
BRANCH   8  15
ATOM      3  N   UNL     1      -6.359 -10.034   6.412  0.00  0.00    -0.270 N 
ATOM      5  N   UNL     1      -6.015 -10.653   5.270  0.00  0.00    -0.171 NA
ATOM     15  C   UNL     1      -5.546 -10.333   7.466  0.00  0.00    +0.044 A 
ATOM     16  C   UNL     1      -4.606 -11.207   6.980  0.00  0.00    +0.053 A 
ATOM     17  C   UNL     1      -4.944 -11.369   5.623  0.00  0.00    +0.093 A 
ATOM     19  C   UNL     1      -7.504  -9.153   6.420  0.00  0.00    +0.172 C 
BRANCH  17  20
ATOM     20  C   UNL     1      -4.263 -12.193   4.657  0.00  0.00    +0.002 A 
ATOM     22  C   UNL     1      -3.046 -12.790   4.985  0.00  0.00    +0.013 A 
ATOM     23  C   UNL     1      -4.822 -12.392   3.395  0.00  0.00    +0.013 A 
ATOM     25  C   UNL     1      -2.387 -13.588   4.050  0.00  0.00    +0.046 A 
ATOM     26  C   UNL     1      -4.163 -13.190   2.459  0.00  0.00    +0.046 A 
ATOM     27  C   UNL     1      -2.944 -13.787   2.787  0.00  0.00    +0.120 A 
BRANCH  27   1
ATOM      1  O   UNL     1      -2.302 -14.566   1.873  0.00  0.00    -0.495 OA
ATOM     31  C   UNL     1      -1.656 -15.741   2.362  0.00  0.00    +0.277 C 
ENDBRANCH  27   1
ENDBRANCH  17  20
ENDBRANCH   8  15
BRANCH   9  14
ATOM     14  C   UNL     1      -3.008 -11.573  11.041  0.00  0.00    +0.100 C 
BRANCH  14   4
ATOM      4  N   UNL     1      -2.031 -11.642  12.114  0.00  0.00    -0.309 NA
ATOM     32  H   UNL     1      -1.108 -11.805  11.709  0.00  0.00    +0.122 HD
BRANCH   4  18
ATOM     18  C   UNL     1      -2.002 -10.400  12.877  0.00  0.00    +0.136 C 
BRANCH  18  21
ATOM      6  N   UNL     1      -1.531 -10.701  15.245  0.00  0.00    -0.259 NA
ATOM     21  C   UNL     1      -2.482 -10.600  14.290  0.00  0.00    +0.055 A 
ATOM     24  C   UNL     1      -3.843 -10.670  14.540  0.00  0.00    +0.024 A 
ATOM     28  C   UNL     1      -4.254 -10.853  15.856  0.00  0.00    +0.003 A 
ATOM     29  C   UNL     1      -1.968 -10.880  16.512  0.00  0.00    +0.111 A 
ATOM     30  C   UNL     1      -3.305 -10.962  16.866  0.00  0.00    +0.020 A 
ENDBRANCH  18  21
ENDBRANCH   4  18
ENDBRANCH  14   4
ENDBRANCH   9  14
TORSDOF 7
ENDMDL
