MODEL 1
REMARK VINA RESULT:      -7.7      0.000      0.000
REMARK  Name = 11879546
REMARK  9 active torsions:
REMARK  status: ('A' for Active; 'I' for Inactive)
REMARK    1  A    between atoms: O_3  and  C_15
REMARK    2  A    between atoms: O_3  and  C_19
REMARK    3  A    between atoms: N_5  and  C_14
REMARK    4  A    between atoms: N_9  and  C_26
REMARK    5  A    between atoms: N_10  and  C_25
REMARK    6  A    between atoms: N_10  and  C_29
REMARK    7  A    between atoms: N_10  and  C_30
REMARK    8  A    between atoms: C_18  and  C_20
REMARK    9  A    between atoms: C_31  and  C_34
REMARK                            x       y       z     vdW  Elec       q    Type
REMARK                         _______ _______ _______ _____ _____    ______ ____
ROOT
ATOM      1  O   UNL     1      15.573   6.527  21.532  0.00  0.00    -0.368 OA
ATOM      2  O   UNL     1      16.783   9.185  20.520  0.00  0.00    -0.368 OA
ATOM     12  C   UNL     1      15.744   8.330  19.994  0.00  0.00    +0.177 C 
ATOM     13  C   UNL     1      16.167   6.902  20.280  0.00  0.00    +0.192 C 
ATOM     14  C   UNL     1      14.474   8.519  20.800  0.00  0.00    +0.168 C 
ATOM     15  C   UNL     1      17.669   7.014  20.386  0.00  0.00    +0.235 C 
ATOM     16  C   UNL     1      14.667   7.553  21.964  0.00  0.00    +0.190 C 
ATOM     17  C   UNL     1      17.841   8.366  21.039  0.00  0.00    +0.207 C 
ENDROOT
BRANCH  14   5
ATOM      5  N   UNL     1      13.266   8.304  20.001  0.00  0.00    -0.217 N 
ATOM      6  N   UNL     1      13.270   7.435  18.984  0.00  0.00    -0.043 NA
ATOM      7  N   UNL     1      11.263   8.385  19.188  0.00  0.00    -0.108 NA
ATOM      8  N   UNL     1      12.039   7.489  18.489  0.00  0.00    -0.023 NA
ATOM     18  C   UNL     1      12.045   8.878  20.121  0.00  0.00    +0.182 A 
BRANCH  18  20
ATOM     20  C   UNL     1      11.696   9.861  21.115  0.00  0.00    +0.021 A 
ATOM     21  C   UNL     1      11.048   9.470  22.288  0.00  0.00    +0.013 A 
ATOM     22  C   UNL     1      12.005  11.206  20.906  0.00  0.00    +0.013 A 
ATOM     23  C   UNL     1      10.712  10.423  23.250  0.00  0.00    +0.024 A 
ATOM     24  C   UNL     1      11.669  12.158  21.869  0.00  0.00    +0.024 A 
ATOM     25  C   UNL     1      11.022  11.766  23.041  0.00  0.00    +0.029 A 
BRANCH  25  10
ATOM     10  N   UNL     1      10.681  12.728  24.014  0.00  0.00    -0.336 N 
ATOM     29  C   UNL     1       9.930  13.912  23.643  0.00  0.00    +0.129 C 
ATOM     30  C   UNL     1      11.087  12.554  25.394  0.00  0.00    +0.129 C 
ENDBRANCH  25  10
ENDBRANCH  18  20
ENDBRANCH  14   5
BRANCH  15   3
ATOM      3  O   UNL     1      18.260   5.981  21.142  0.00  0.00    -0.442 OA
BRANCH   3  19
ATOM      4  O   UNL     1      19.861   6.387  22.723  0.00  0.00    -0.226 OA
ATOM      9  N   UNL     1      20.409   6.097  20.466  0.00  0.00    -0.251 N 
ATOM     19  C   UNL     1      19.562   6.178  21.555  0.00  0.00    +0.405 C 
ATOM     35  H   UNL     1      19.968   5.915  19.567  0.00  0.00    +0.158 HD
BRANCH   9  26
ATOM     26  C   UNL     1      21.814   6.239  20.444  0.00  0.00    +0.038 A 
ATOM     27  C   UNL     1      22.612   5.106  20.416  0.00  0.00    +0.042 A 
ATOM     28  C   UNL     1      22.369   7.510  20.453  0.00  0.00    +0.023 A 
ATOM     31  C   UNL     1      23.999   5.247  20.396  0.00  0.00    +0.054 A 
ATOM     32  C   UNL     1      23.756   7.650  20.433  0.00  0.00    +0.003 A 
ATOM     33  C   UNL     1      24.571   6.518  20.403  0.00  0.00    +0.019 A 
BRANCH  31  34
ATOM     11  N   UNL     1      25.516   3.146  20.341  0.00  0.00    -0.191 NA
ATOM     34  C   UNL     1      24.836   4.088  20.366  0.00  0.00    +0.099 C 
ENDBRANCH  31  34
ENDBRANCH   9  26
ENDBRANCH   3  19
ENDBRANCH  15   3
TORSDOF 7
ENDMDL
MODEL 2
REMARK VINA RESULT:      -7.5      3.351      9.459
REMARK  Name = 11879546
REMARK  9 active torsions:
REMARK  status: ('A' for Active; 'I' for Inactive)
REMARK    1  A    between atoms: O_3  and  C_15
REMARK    2  A    between atoms: O_3  and  C_19
REMARK    3  A    between atoms: N_5  and  C_14
REMARK    4  A    between atoms: N_9  and  C_26
REMARK    5  A    between atoms: N_10  and  C_25
REMARK    6  A    between atoms: N_10  and  C_29
REMARK    7  A    between atoms: N_10  and  C_30
REMARK    8  A    between atoms: C_18  and  C_20
REMARK    9  A    between atoms: C_31  and  C_34
REMARK                            x       y       z     vdW  Elec       q    Type
REMARK                         _______ _______ _______ _____ _____    ______ ____
ROOT
ATOM      1  O   UNL     1      13.002   8.742  21.847  0.00  0.00    -0.368 OA
ATOM      2  O   UNL     1      10.501   6.972  21.437  0.00  0.00    -0.368 OA
ATOM     12  C   UNL     1      11.300   7.750  20.518  0.00  0.00    +0.177 C 
ATOM     13  C   UNL     1      11.719   9.006  21.258  0.00  0.00    +0.192 C 
ATOM     14  C   UNL     1      12.600   7.023  20.236  0.00  0.00    +0.168 C 
ATOM     15  C   UNL     1      10.643   9.149  22.307  0.00  0.00    +0.235 C 
ATOM     16  C   UNL     1      13.496   7.476  21.384  0.00  0.00    +0.190 C 
ATOM     17  C   UNL     1      10.348   7.710  22.658  0.00  0.00    +0.207 C 
ENDROOT
BRANCH  14   5
ATOM      5  N   UNL     1      13.116   7.298  18.893  0.00  0.00    -0.217 N 
ATOM      6  N   UNL     1      12.291   7.316  17.840  0.00  0.00    -0.043 NA
ATOM      7  N   UNL     1      14.383   7.742  17.198  0.00  0.00    -0.108 NA
ATOM      8  N   UNL     1      13.074   7.589  16.803  0.00  0.00    -0.023 NA
ATOM     18  C   UNL     1      14.385   7.557  18.498  0.00  0.00    +0.182 A 
BRANCH  18  20
ATOM     20  C   UNL     1      15.523   7.613  19.380  0.00  0.00    +0.021 A 
ATOM     21  C   UNL     1      16.255   6.455  19.652  0.00  0.00    +0.013 A 
ATOM     22  C   UNL     1      15.896   8.825  19.963  0.00  0.00    +0.013 A 
ATOM     23  C   UNL     1      17.357   6.512  20.504  0.00  0.00    +0.024 A 
ATOM     24  C   UNL     1      16.999   8.880  20.816  0.00  0.00    +0.024 A 
ATOM     25  C   UNL     1      17.730   7.723  21.086  0.00  0.00    +0.029 A 
BRANCH  25  10
ATOM     10  N   UNL     1      18.844   7.778  21.949  0.00  0.00    -0.336 N 
ATOM     29  C   UNL     1      19.535   6.563  22.334  0.00  0.00    +0.129 C 
ATOM     30  C   UNL     1      19.305   9.049  22.472  0.00  0.00    +0.129 C 
ENDBRANCH  25  10
ENDBRANCH  18  20
ENDBRANCH  14   5
BRANCH  15   3
ATOM      3  O   UNL     1      11.047   9.898  23.431  0.00  0.00    -0.442 OA
BRANCH   3  19
ATOM      4  O   UNL     1      12.447  11.663  23.823  0.00  0.00    -0.226 OA
ATOM      9  N   UNL     1      10.788  11.753  22.174  0.00  0.00    -0.251 N 
ATOM     19  C   UNL     1      11.519  11.173  23.194  0.00  0.00    +0.405 C 
ATOM     35  H   UNL     1      10.049  11.183  21.770  0.00  0.00    +0.158 HD
BRANCH   9  26
ATOM     26  C   UNL     1      10.940  13.044  21.620  0.00  0.00    +0.038 A 
ATOM     27  C   UNL     1      11.846  13.241  20.591  0.00  0.00    +0.042 A 
ATOM     28  C   UNL     1      10.180  14.090  22.120  0.00  0.00    +0.023 A 
ATOM     31  C   UNL     1      11.996  14.516  20.046  0.00  0.00    +0.054 A 
ATOM     32  C   UNL     1      10.329  15.365  21.575  0.00  0.00    +0.003 A 
ATOM     33  C   UNL     1      11.238  15.578  20.537  0.00  0.00    +0.019 A 
BRANCH  31  34
ATOM     11  N   UNL     1      13.682  14.915  18.119  0.00  0.00    -0.191 NA
ATOM     34  C   UNL     1      12.926  14.736  18.983  0.00  0.00    +0.099 C 
ENDBRANCH  31  34
ENDBRANCH   9  26
ENDBRANCH   3  19
ENDBRANCH  15   3
TORSDOF 7
ENDMDL
MODEL 3
REMARK VINA RESULT:      -7.4      5.485      9.596
REMARK  Name = 11879546
REMARK  9 active torsions:
REMARK  status: ('A' for Active; 'I' for Inactive)
REMARK    1  A    between atoms: O_3  and  C_15
REMARK    2  A    between atoms: O_3  and  C_19
REMARK    3  A    between atoms: N_5  and  C_14
REMARK    4  A    between atoms: N_9  and  C_26
REMARK    5  A    between atoms: N_10  and  C_25
REMARK    6  A    between atoms: N_10  and  C_29
REMARK    7  A    between atoms: N_10  and  C_30
REMARK    8  A    between atoms: C_18  and  C_20
REMARK    9  A    between atoms: C_31  and  C_34
REMARK                            x       y       z     vdW  Elec       q    Type
REMARK                         _______ _______ _______ _____ _____    ______ ____
ROOT
ATOM      1  O   UNL     1      13.483   9.504  19.828  0.00  0.00    -0.368 OA
ATOM      2  O   UNL     1      14.711   6.808  18.946  0.00  0.00    -0.368 OA
ATOM     12  C   UNL     1      13.621   7.596  18.418  0.00  0.00    +0.177 C 
ATOM     13  C   UNL     1      12.907   8.207  19.608  0.00  0.00    +0.192 C 
ATOM     14  C   UNL     1      14.177   8.784  17.657  0.00  0.00    +0.168 C 
ATOM     15  C   UNL     1      13.244   7.251  20.726  0.00  0.00    +0.235 C 
ATOM     16  C   UNL     1      14.383   9.822  18.756  0.00  0.00    +0.190 C 
ATOM     17  C   UNL     1      14.657   6.842  20.380  0.00  0.00    +0.207 C 
ENDROOT
BRANCH  14   5
ATOM      5  N   UNL     1      13.305   9.201  16.556  0.00  0.00    -0.217 N 
ATOM      6  N   UNL     1      12.140   8.581  16.341  0.00  0.00    -0.043 NA
ATOM      7  N   UNL     1      12.448  10.203  14.841  0.00  0.00    -0.108 NA
ATOM      8  N   UNL     1      11.619   9.200  15.287  0.00  0.00    -0.023 NA
ATOM     18  C   UNL     1      13.488  10.185  15.644  0.00  0.00    +0.182 A 
BRANCH  18  20
ATOM     20  C   UNL     1      14.640  11.049  15.589  0.00  0.00    +0.021 A 
ATOM     21  C   UNL     1      15.724  10.719  14.773  0.00  0.00    +0.013 A 
ATOM     22  C   UNL     1      14.673  12.218  16.350  0.00  0.00    +0.013 A 
ATOM     23  C   UNL     1      16.837  11.557  14.720  0.00  0.00    +0.024 A 
ATOM     24  C   UNL     1      15.787  13.056  16.296  0.00  0.00    +0.024 A 
ATOM     25  C   UNL     1      16.870  12.725  15.480  0.00  0.00    +0.029 A 
BRANCH  25  10
ATOM     10  N   UNL     1      17.996  13.572  15.426  0.00  0.00    -0.336 N 
ATOM     29  C   UNL     1      18.290  14.474  16.523  0.00  0.00    +0.129 C 
ATOM     30  C   UNL     1      18.868  13.560  14.269  0.00  0.00    +0.129 C 
ENDBRANCH  25  10
ENDBRANCH  18  20
ENDBRANCH  14   5
BRANCH  15   3
ATOM      3  O   UNL     1      13.158   7.829  22.009  0.00  0.00    -0.442 OA
BRANCH   3  19
ATOM      4  O   UNL     1      10.925   8.315  22.089  0.00  0.00    -0.226 OA
ATOM      9  N   UNL     1      12.550   9.901  22.662  0.00  0.00    -0.251 N 
ATOM     19  C   UNL     1      12.088   8.667  22.244  0.00  0.00    +0.405 C 
ATOM     35  H   UNL     1      13.560  10.002  22.730  0.00  0.00    +0.158 HD
BRANCH   9  26
ATOM     26  C   UNL     1      11.793  11.043  23.006  0.00  0.00    +0.038 A 
ATOM     27  C   UNL     1      11.519  11.995  22.038  0.00  0.00    +0.042 A 
ATOM     28  C   UNL     1      11.338  11.188  24.308  0.00  0.00    +0.023 A 
ATOM     31  C   UNL     1      10.772  13.122  22.379  0.00  0.00    +0.054 A 
ATOM     32  C   UNL     1      10.591  12.316  24.649  0.00  0.00    +0.003 A 
ATOM     33  C   UNL     1      10.308  13.283  23.684  0.00  0.00    +0.019 A 
BRANCH  31  34
ATOM     11  N   UNL     1      10.245  14.920  20.589  0.00  0.00    -0.191 NA
ATOM     34  C   UNL     1      10.481  14.114  21.391  0.00  0.00    +0.099 C 
ENDBRANCH  31  34
ENDBRANCH   9  26
ENDBRANCH   3  19
ENDBRANCH  15   3
TORSDOF 7
ENDMDL
MODEL 4
REMARK VINA RESULT:      -7.3     28.870     32.365
REMARK  Name = 11879546
REMARK  9 active torsions:
REMARK  status: ('A' for Active; 'I' for Inactive)
REMARK    1  A    between atoms: O_3  and  C_15
REMARK    2  A    between atoms: O_3  and  C_19
REMARK    3  A    between atoms: N_5  and  C_14
REMARK    4  A    between atoms: N_9  and  C_26
REMARK    5  A    between atoms: N_10  and  C_25
REMARK    6  A    between atoms: N_10  and  C_29
REMARK    7  A    between atoms: N_10  and  C_30
REMARK    8  A    between atoms: C_18  and  C_20
REMARK    9  A    between atoms: C_31  and  C_34
REMARK                            x       y       z     vdW  Elec       q    Type
REMARK                         _______ _______ _______ _____ _____    ______ ____
ROOT
ATOM      1  O   UNL     1     -10.018 -10.000  17.603  0.00  0.00    -0.368 OA
ATOM      2  O   UNL     1      -8.161  -9.769  15.142  0.00  0.00    -0.368 OA
ATOM     12  C   UNL     1      -7.913  -9.641  16.560  0.00  0.00    +0.177 C 
ATOM     13  C   UNL     1      -9.130  -8.962  17.157  0.00  0.00    +0.192 C 
ATOM     14  C   UNL     1      -7.893 -11.016  17.198  0.00  0.00    +0.168 C 
ATOM     15  C   UNL     1      -9.701  -8.207  15.981  0.00  0.00    +0.235 C 
ATOM     16  C   UNL     1      -9.368 -11.274  17.488  0.00  0.00    +0.190 C 
ATOM     17  C   UNL     1      -9.416  -9.146  14.832  0.00  0.00    +0.207 C 
ENDROOT
BRANCH  14   5
ATOM      5  N   UNL     1      -7.004 -11.082  18.360  0.00  0.00    -0.217 N 
ATOM      6  N   UNL     1      -7.489 -10.917  19.596  0.00  0.00    -0.043 NA
ATOM      7  N   UNL     1      -5.289 -11.272  19.664  0.00  0.00    -0.108 NA
ATOM      8  N   UNL     1      -6.432 -11.035  20.391  0.00  0.00    -0.023 NA
ATOM     18  C   UNL     1      -5.668 -11.297  18.407  0.00  0.00    +0.182 A 
BRANCH  18  20
ATOM     20  C   UNL     1      -4.832 -11.514  17.253  0.00  0.00    +0.021 A 
ATOM     21  C   UNL     1      -4.875 -12.735  16.577  0.00  0.00    +0.013 A 
ATOM     22  C   UNL     1      -3.978 -10.503  16.809  0.00  0.00    +0.013 A 
ATOM     23  C   UNL     1      -4.067 -12.942  15.460  0.00  0.00    +0.024 A 
ATOM     24  C   UNL     1      -3.170 -10.711  15.691  0.00  0.00    +0.024 A 
ATOM     25  C   UNL     1      -3.214 -11.932  15.016  0.00  0.00    +0.029 A 
BRANCH  25  10
ATOM     10  N   UNL     1      -2.397 -12.143  13.887  0.00  0.00    -0.336 N 
ATOM     29  C   UNL     1      -1.694 -13.400  13.714  0.00  0.00    +0.129 C 
ATOM     30  C   UNL     1      -2.237 -11.102  12.891  0.00  0.00    +0.129 C 
ENDBRANCH  25  10
ENDBRANCH  18  20
ENDBRANCH  14   5
BRANCH  15   3
ATOM      3  O   UNL     1     -11.077  -7.924  16.106  0.00  0.00    -0.442 OA
BRANCH   3  19
ATOM      4  O   UNL     1     -11.283  -5.652  16.260  0.00  0.00    -0.226 OA
ATOM      9  N   UNL     1     -12.182  -6.849  14.460  0.00  0.00    -0.251 N 
ATOM     19  C   UNL     1     -11.503  -6.693  15.653  0.00  0.00    +0.405 C 
ATOM     35  H   UNL     1     -12.263  -7.801  14.111  0.00  0.00    +0.158 HD
BRANCH   9  26
ATOM     26  C   UNL     1     -12.782  -5.849  13.663  0.00  0.00    +0.038 A 
ATOM     27  C   UNL     1     -12.074  -5.310  12.601  0.00  0.00    +0.042 A 
ATOM     28  C   UNL     1     -14.068  -5.424  13.960  0.00  0.00    +0.023 A 
ATOM     31  C   UNL     1     -12.667  -4.322  11.814  0.00  0.00    +0.054 A 
ATOM     32  C   UNL     1     -14.661  -4.436  13.174  0.00  0.00    +0.003 A 
ATOM     33  C   UNL     1     -13.960  -3.886  12.101  0.00  0.00    +0.019 A 
BRANCH  31  34
ATOM     11  N   UNL     1     -11.367  -3.298   9.820  0.00  0.00    -0.191 NA
ATOM     34  C   UNL     1     -11.950  -3.757  10.714  0.00  0.00    +0.099 C 
ENDBRANCH  31  34
ENDBRANCH   9  26
ENDBRANCH   3  19
ENDBRANCH  15   3
TORSDOF 7
ENDMDL
MODEL 5
REMARK VINA RESULT:      -6.9     28.607     32.956
REMARK  Name = 11879546
REMARK  9 active torsions:
REMARK  status: ('A' for Active; 'I' for Inactive)
REMARK    1  A    between atoms: O_3  and  C_15
REMARK    2  A    between atoms: O_3  and  C_19
REMARK    3  A    between atoms: N_5  and  C_14
REMARK    4  A    between atoms: N_9  and  C_26
REMARK    5  A    between atoms: N_10  and  C_25
REMARK    6  A    between atoms: N_10  and  C_29
REMARK    7  A    between atoms: N_10  and  C_30
REMARK    8  A    between atoms: C_18  and  C_20
REMARK    9  A    between atoms: C_31  and  C_34
REMARK                            x       y       z     vdW  Elec       q    Type
REMARK                         _______ _______ _______ _____ _____    ______ ____
ROOT
ATOM      1  O   UNL     1     -11.711  -9.514  16.472  0.00  0.00    -0.368 OA
ATOM      2  O   UNL     1      -9.459  -7.438  16.062  0.00  0.00    -0.368 OA
ATOM     12  C   UNL     1      -9.846  -8.235  17.202  0.00  0.00    +0.177 C 
ATOM     13  C   UNL     1     -11.360  -8.317  17.185  0.00  0.00    +0.192 C 
ATOM     14  C   UNL     1      -9.385  -9.665  17.001  0.00  0.00    +0.168 C 
ATOM     15  C   UNL     1     -11.752  -7.077  16.418  0.00  0.00    +0.235 C 
ATOM     16  C   UNL     1     -10.527 -10.277  16.197  0.00  0.00    +0.190 C 
ATOM     17  C   UNL     1     -10.642  -6.970  15.398  0.00  0.00    +0.207 C 
ENDROOT
BRANCH  14   5
ATOM      5  N   UNL     1      -9.078 -10.338  18.266  0.00  0.00    -0.217 N 
ATOM      6  N   UNL     1      -9.980 -10.373  19.253  0.00  0.00    -0.043 NA
ATOM      7  N   UNL     1      -8.116 -11.434  19.863  0.00  0.00    -0.108 NA
ATOM      8  N   UNL     1      -9.384 -11.046  20.230  0.00  0.00    -0.023 NA
ATOM     18  C   UNL     1      -7.948 -10.984  18.640  0.00  0.00    +0.182 A 
BRANCH  18  20
ATOM     20  C   UNL     1      -6.777 -11.134  17.815  0.00  0.00    +0.021 A 
ATOM     21  C   UNL     1      -5.640 -10.365  18.066  0.00  0.00    +0.013 A 
ATOM     22  C   UNL     1      -6.777 -12.051  16.762  0.00  0.00    +0.013 A 
ATOM     23  C   UNL     1      -4.506 -10.513  17.267  0.00  0.00    +0.024 A 
ATOM     24  C   UNL     1      -5.643 -12.198  15.963  0.00  0.00    +0.024 A 
ATOM     25  C   UNL     1      -4.507 -11.429  16.216  0.00  0.00    +0.029 A 
BRANCH  25  10
ATOM     10  N   UNL     1      -3.361 -11.577  15.408  0.00  0.00    -0.336 N 
ATOM     29  C   UNL     1      -2.122 -10.913  15.763  0.00  0.00    +0.129 C 
ATOM     30  C   UNL     1      -3.410 -12.383  14.205  0.00  0.00    +0.129 C 
ENDBRANCH  25  10
ENDBRANCH  18  20
ENDBRANCH  14   5
BRANCH  15   3
ATOM      3  O   UNL     1     -13.022  -7.166  15.812  0.00  0.00    -0.442 OA
BRANCH   3  19
ATOM      4  O   UNL     1     -12.958  -7.577  13.564  0.00  0.00    -0.226 OA
ATOM      9  N   UNL     1     -13.383  -5.436  14.411  0.00  0.00    -0.251 N 
ATOM     19  C   UNL     1     -13.109  -6.789  14.488  0.00  0.00    +0.405 C 
ATOM     35  H   UNL     1     -13.474  -4.945  15.297  0.00  0.00    +0.158 HD
BRANCH   9  26
ATOM     26  C   UNL     1     -13.550  -4.648  13.250  0.00  0.00    +0.038 A 
ATOM     27  C   UNL     1     -12.528  -4.582  12.318  0.00  0.00    +0.042 A 
ATOM     28  C   UNL     1     -14.736  -3.953  13.068  0.00  0.00    +0.023 A 
ATOM     31  C   UNL     1     -12.694  -3.803  11.173  0.00  0.00    +0.054 A 
ATOM     32  C   UNL     1     -14.903  -3.174  11.923  0.00  0.00    +0.003 A 
ATOM     33  C   UNL     1     -13.881  -3.099  10.976  0.00  0.00    +0.019 A 
BRANCH  31  34
ATOM     11  N   UNL     1     -10.799  -3.663   9.412  0.00  0.00    -0.191 NA
ATOM     34  C   UNL     1     -11.648  -3.726  10.202  0.00  0.00    +0.099 C 
ENDBRANCH  31  34
ENDBRANCH   9  26
ENDBRANCH   3  19
ENDBRANCH  15   3
TORSDOF 7
ENDMDL
MODEL 6
REMARK VINA RESULT:      -6.9     28.864     32.050
REMARK  Name = 11879546
REMARK  9 active torsions:
REMARK  status: ('A' for Active; 'I' for Inactive)
REMARK    1  A    between atoms: O_3  and  C_15
REMARK    2  A    between atoms: O_3  and  C_19
REMARK    3  A    between atoms: N_5  and  C_14
REMARK    4  A    between atoms: N_9  and  C_26
REMARK    5  A    between atoms: N_10  and  C_25
REMARK    6  A    between atoms: N_10  and  C_29
REMARK    7  A    between atoms: N_10  and  C_30
REMARK    8  A    between atoms: C_18  and  C_20
REMARK    9  A    between atoms: C_31  and  C_34
REMARK                            x       y       z     vdW  Elec       q    Type
REMARK                         _______ _______ _______ _____ _____    ______ ____
ROOT
ATOM      1  O   UNL     1     -11.202  -7.227  17.101  0.00  0.00    -0.368 OA
ATOM      2  O   UNL     1     -10.680  -8.534  14.349  0.00  0.00    -0.368 OA
ATOM     12  C   UNL     1     -11.894  -8.291  15.092  0.00  0.00    +0.177 C 
ATOM     13  C   UNL     1     -11.562  -8.506  16.556  0.00  0.00    +0.192 C 
ATOM     14  C   UNL     1     -12.261  -6.823  14.997  0.00  0.00    +0.168 C 
ATOM     15  C   UNL     1     -10.378  -9.440  16.495  0.00  0.00    +0.235 C 
ATOM     16  C   UNL     1     -11.454  -6.200  16.130  0.00  0.00    +0.190 C 
ATOM     17  C   UNL     1      -9.654  -8.955  15.260  0.00  0.00    +0.207 C 
ENDROOT
BRANCH  14   5
ATOM      5  N   UNL     1     -13.708  -6.602  15.062  0.00  0.00    -0.217 N 
ATOM      6  N   UNL     1     -14.420  -7.069  16.093  0.00  0.00    -0.043 NA
ATOM      7  N   UNL     1     -15.745  -6.001  14.651  0.00  0.00    -0.108 NA
ATOM      8  N   UNL     1     -15.669  -6.697  15.836  0.00  0.00    -0.023 NA
ATOM     18  C   UNL     1     -14.516  -5.954  14.190  0.00  0.00    +0.182 A 
BRANCH  18  20
ATOM     20  C   UNL     1     -14.073  -5.330  12.969  0.00  0.00    +0.021 A 
ATOM     21  C   UNL     1     -13.537  -4.041  12.997  0.00  0.00    +0.013 A 
ATOM     22  C   UNL     1     -14.177  -6.014  11.757  0.00  0.00    +0.013 A 
ATOM     23  C   UNL     1     -13.106  -3.439  11.815  0.00  0.00    +0.024 A 
ATOM     24  C   UNL     1     -13.746  -5.411  10.575  0.00  0.00    +0.024 A 
ATOM     25  C   UNL     1     -13.210  -4.123  10.604  0.00  0.00    +0.029 A 
BRANCH  25  10
ATOM     10  N   UNL     1     -12.775  -3.513   9.409  0.00  0.00    -0.336 N 
ATOM     29  C   UNL     1     -13.734  -2.930   8.491  0.00  0.00    +0.129 C 
ATOM     30  C   UNL     1     -11.365  -3.472   9.077  0.00  0.00    +0.129 C 
ENDBRANCH  25  10
ENDBRANCH  18  20
ENDBRANCH  14   5
BRANCH  15   3
ATOM      3  O   UNL     1      -9.561  -9.390  17.643  0.00  0.00    -0.442 OA
BRANCH   3  19
ATOM      4  O   UNL     1      -8.863 -11.568  17.663  0.00  0.00    -0.226 OA
ATOM      9  N   UNL     1      -7.375  -9.797  18.022  0.00  0.00    -0.251 N 
ATOM     19  C   UNL     1      -8.604 -10.376  17.769  0.00  0.00    +0.405 C 
ATOM     35  H   UNL     1      -7.360  -8.781  18.075  0.00  0.00    +0.158 HD
BRANCH   9  26
ATOM     26  C   UNL     1      -6.133 -10.441  18.219  0.00  0.00    +0.038 A 
ATOM     27  C   UNL     1      -5.164 -10.366  17.232  0.00  0.00    +0.042 A 
ATOM     28  C   UNL     1      -5.909 -11.138  19.396  0.00  0.00    +0.023 A 
ATOM     31  C   UNL     1      -3.938 -11.003  17.426  0.00  0.00    +0.054 A 
ATOM     32  C   UNL     1      -4.683 -11.775  19.591  0.00  0.00    +0.003 A 
ATOM     33  C   UNL     1      -3.698 -11.707  18.606  0.00  0.00    +0.019 A 
BRANCH  31  34
ATOM     11  N   UNL     1      -2.106 -10.878  15.598  0.00  0.00    -0.191 NA
ATOM     34  C   UNL     1      -2.928 -10.934  16.417  0.00  0.00    +0.099 C 
ENDBRANCH  31  34
ENDBRANCH   9  26
ENDBRANCH   3  19
ENDBRANCH  15   3
TORSDOF 7
ENDMDL
MODEL 7
REMARK VINA RESULT:      -6.7     16.970     18.745
REMARK  Name = 11879546
REMARK  9 active torsions:
REMARK  status: ('A' for Active; 'I' for Inactive)
REMARK    1  A    between atoms: O_3  and  C_15
REMARK    2  A    between atoms: O_3  and  C_19
REMARK    3  A    between atoms: N_5  and  C_14
REMARK    4  A    between atoms: N_9  and  C_26
REMARK    5  A    between atoms: N_10  and  C_25
REMARK    6  A    between atoms: N_10  and  C_29
REMARK    7  A    between atoms: N_10  and  C_30
REMARK    8  A    between atoms: C_18  and  C_20
REMARK    9  A    between atoms: C_31  and  C_34
REMARK                            x       y       z     vdW  Elec       q    Type
REMARK                         _______ _______ _______ _____ _____    ______ ____
ROOT
ATOM      1  O   UNL     1      12.785   8.784   5.385  0.00  0.00    -0.368 OA
ATOM      2  O   UNL     1      13.717   7.941   2.561  0.00  0.00    -0.368 OA
ATOM     12  C   UNL     1      13.223   7.181   3.686  0.00  0.00    +0.177 C 
ATOM     13  C   UNL     1      13.771   7.842   4.935  0.00  0.00    +0.192 C 
ATOM     14  C   UNL     1      11.720   7.354   3.793  0.00  0.00    +0.168 C 
ATOM     15  C   UNL     1      15.013   8.535   4.428  0.00  0.00    +0.235 C 
ATOM     16  C   UNL     1      11.586   8.634   4.610  0.00  0.00    +0.190 C 
ATOM     17  C   UNL     1      14.590   8.973   3.044  0.00  0.00    +0.207 C 
ENDROOT
BRANCH  14   5
ATOM      5  N   UNL     1      11.059   6.176   4.360  0.00  0.00    -0.217 N 
ATOM      6  N   UNL     1      10.626   6.184   5.625  0.00  0.00    -0.043 NA
ATOM      7  N   UNL     1      10.184   4.222   4.663  0.00  0.00    -0.108 NA
ATOM      8  N   UNL     1      10.090   4.982   5.806  0.00  0.00    -0.023 NA
ATOM     18  C   UNL     1      10.789   4.983   3.780  0.00  0.00    +0.182 A 
BRANCH  18  20
ATOM     20  C   UNL     1      11.121   4.637   2.421  0.00  0.00    +0.021 A 
ATOM     21  C   UNL     1      12.303   3.946   2.144  0.00  0.00    +0.013 A 
ATOM     22  C   UNL     1      10.262   4.991   1.380  0.00  0.00    +0.013 A 
ATOM     23  C   UNL     1      12.622   3.610   0.829  0.00  0.00    +0.024 A 
ATOM     24  C   UNL     1      10.583   4.655   0.064  0.00  0.00    +0.024 A 
ATOM     25  C   UNL     1      11.763   3.964  -0.211  0.00  0.00    +0.029 A 
BRANCH  25  10
ATOM     10  N   UNL     1      12.088   3.626  -1.541  0.00  0.00    -0.336 N 
ATOM     29  C   UNL     1      11.089   3.041  -2.414  0.00  0.00    +0.129 C 
ATOM     30  C   UNL     1      13.428   3.846  -2.049  0.00  0.00    +0.129 C 
ENDBRANCH  25  10
ENDBRANCH  18  20
ENDBRANCH  14   5
BRANCH  15   3
ATOM      3  O   UNL     1      15.419   9.622   5.227  0.00  0.00    -0.442 OA
BRANCH   3  19
ATOM      4  O   UNL     1      17.286  10.838   5.744  0.00  0.00    -0.226 OA
ATOM      9  N   UNL     1      17.406   8.554   5.249  0.00  0.00    -0.251 N 
ATOM     19  C   UNL     1      16.775   9.769   5.438  0.00  0.00    +0.405 C 
ATOM     35  H   UNL     1      16.806   7.772   4.994  0.00  0.00    +0.158 HD
BRANCH   9  26
ATOM     26  C   UNL     1      18.783   8.261   5.363  0.00  0.00    +0.038 A 
ATOM     27  C   UNL     1      19.459   7.732   4.275  0.00  0.00    +0.042 A 
ATOM     28  C   UNL     1      19.432   8.509   6.563  0.00  0.00    +0.023 A 
ATOM     31  C   UNL     1      20.818   7.443   4.389  0.00  0.00    +0.054 A 
ATOM     32  C   UNL     1      20.792   8.220   6.677  0.00  0.00    +0.003 A 
ATOM     33  C   UNL     1      21.485   7.687   5.590  0.00  0.00    +0.019 A 
BRANCH  31  34
ATOM     11  N   UNL     1      22.108   6.454   2.371  0.00  0.00    -0.191 NA
ATOM     34  C   UNL     1      21.530   6.897   3.276  0.00  0.00    +0.099 C 
ENDBRANCH  31  34
ENDBRANCH   9  26
ENDBRANCH   3  19
ENDBRANCH  15   3
TORSDOF 7
ENDMDL
MODEL 8
REMARK VINA RESULT:      -6.5     29.412     33.241
REMARK  Name = 11879546
REMARK  9 active torsions:
REMARK  status: ('A' for Active; 'I' for Inactive)
REMARK    1  A    between atoms: O_3  and  C_15
REMARK    2  A    between atoms: O_3  and  C_19
REMARK    3  A    between atoms: N_5  and  C_14
REMARK    4  A    between atoms: N_9  and  C_26
REMARK    5  A    between atoms: N_10  and  C_25
REMARK    6  A    between atoms: N_10  and  C_29
REMARK    7  A    between atoms: N_10  and  C_30
REMARK    8  A    between atoms: C_18  and  C_20
REMARK    9  A    between atoms: C_31  and  C_34
REMARK                            x       y       z     vdW  Elec       q    Type
REMARK                         _______ _______ _______ _____ _____    ______ ____
ROOT
ATOM      1  O   UNL     1     -14.329   3.377  33.276  0.00  0.00    -0.368 OA
ATOM      2  O   UNL     1     -16.230   4.827  31.316  0.00  0.00    -0.368 OA
ATOM     12  C   UNL     1     -15.194   3.841  31.112  0.00  0.00    +0.177 C 
ATOM     13  C   UNL     1     -14.086   4.160  32.097  0.00  0.00    +0.192 C 
ATOM     14  C   UNL     1     -15.700   2.477  31.538  0.00  0.00    +0.168 C 
ATOM     15  C   UNL     1     -14.285   5.634  32.356  0.00  0.00    +0.235 C 
ATOM     16  C   UNL     1     -15.407   2.461  33.034  0.00  0.00    +0.190 C 
ATOM     17  C   UNL     1     -15.790   5.765  32.309  0.00  0.00    +0.207 C 
ENDROOT
BRANCH  14   5
ATOM      5  N   UNL     1     -15.092   1.389  30.768  0.00  0.00    -0.217 N 
ATOM      6  N   UNL     1     -14.211   0.562  31.341  0.00  0.00    -0.043 NA
ATOM      7  N   UNL     1     -14.528   0.003  29.206  0.00  0.00    -0.108 NA
ATOM      8  N   UNL     1     -13.869  -0.286  30.378  0.00  0.00    -0.023 NA
ATOM     18  C   UNL     1     -15.282   1.046  29.472  0.00  0.00    +0.182 A 
BRANCH  18  20
ATOM     20  C   UNL     1     -16.167   1.729  28.563  0.00  0.00    +0.021 A 
ATOM     21  C   UNL     1     -15.708   2.827  27.833  0.00  0.00    +0.013 A 
ATOM     22  C   UNL     1     -17.484   1.295  28.412  0.00  0.00    +0.013 A 
ATOM     23  C   UNL     1     -16.565   3.487  26.952  0.00  0.00    +0.024 A 
ATOM     24  C   UNL     1     -18.341   1.955  27.531  0.00  0.00    +0.024 A 
ATOM     25  C   UNL     1     -17.881   3.052  26.801  0.00  0.00    +0.029 A 
BRANCH  25  10
ATOM     10  N   UNL     1     -18.748   3.720  25.912  0.00  0.00    -0.336 N 
ATOM     29  C   UNL     1     -19.329   4.998  26.274  0.00  0.00    +0.129 C 
ATOM     30  C   UNL     1     -19.079   3.133  24.629  0.00  0.00    +0.129 C 
ENDBRANCH  25  10
ENDBRANCH  18  20
ENDBRANCH  14   5
BRANCH  15   3
ATOM      3  O   UNL     1     -13.753   6.068  33.587  0.00  0.00    -0.442 OA
BRANCH   3  19
ATOM      4  O   UNL     1     -13.455   8.090  34.613  0.00  0.00    -0.226 OA
ATOM      9  N   UNL     1     -12.629   7.669  32.464  0.00  0.00    -0.251 N 
ATOM     19  C   UNL     1     -13.285   7.365  33.641  0.00  0.00    +0.405 C 
ATOM     35  H   UNL     1     -12.591   6.929  31.767  0.00  0.00    +0.158 HD
BRANCH   9  26
ATOM     26  C   UNL     1     -12.004   8.884  32.105  0.00  0.00    +0.038 A 
ATOM     27  C   UNL     1     -10.897   9.316  32.817  0.00  0.00    +0.042 A 
ATOM     28  C   UNL     1     -12.512   9.622  31.046  0.00  0.00    +0.023 A 
ATOM     31  C   UNL     1     -10.281  10.516  32.462  0.00  0.00    +0.054 A 
ATOM     32  C   UNL     1     -11.896  10.822  30.692  0.00  0.00    +0.003 A 
ATOM     33  C   UNL     1     -10.780  11.269  31.399  0.00  0.00    +0.019 A 
BRANCH  31  34
ATOM     11  N   UNL     1      -8.208  11.348  33.776  0.00  0.00    -0.191 NA
ATOM     34  C   UNL     1      -9.137  10.975  33.186  0.00  0.00    +0.099 C 
ENDBRANCH  31  34
ENDBRANCH   9  26
ENDBRANCH   3  19
ENDBRANCH  15   3
TORSDOF 7
ENDMDL
MODEL 9
REMARK VINA RESULT:      -6.4     32.499     36.402
REMARK  Name = 11879546
REMARK  9 active torsions:
REMARK  status: ('A' for Active; 'I' for Inactive)
REMARK    1  A    between atoms: O_3  and  C_15
REMARK    2  A    between atoms: O_3  and  C_19
REMARK    3  A    between atoms: N_5  and  C_14
REMARK    4  A    between atoms: N_9  and  C_26
REMARK    5  A    between atoms: N_10  and  C_25
REMARK    6  A    between atoms: N_10  and  C_29
REMARK    7  A    between atoms: N_10  and  C_30
REMARK    8  A    between atoms: C_18  and  C_20
REMARK    9  A    between atoms: C_31  and  C_34
REMARK                            x       y       z     vdW  Elec       q    Type
REMARK                         _______ _______ _______ _____ _____    ______ ____
ROOT
ATOM      1  O   UNL     1     -11.006  -9.263  39.265  0.00  0.00    -0.368 OA
ATOM      2  O   UNL     1      -8.007  -9.798  39.788  0.00  0.00    -0.368 OA
ATOM     12  C   UNL     1      -8.703  -8.683  39.189  0.00  0.00    +0.177 C 
ATOM     13  C   UNL     1      -9.860  -9.262  38.399  0.00  0.00    +0.192 C 
ATOM     14  C   UNL     1      -9.360  -7.853  40.274  0.00  0.00    +0.168 C 
ATOM     15  C   UNL     1      -9.388 -10.665  38.098  0.00  0.00    +0.235 C 
ATOM     16  C   UNL     1     -10.694  -8.563  40.479  0.00  0.00    +0.190 C 
ATOM     17  C   UNL     1      -8.623 -11.019  39.352  0.00  0.00    +0.207 C 
ENDROOT
BRANCH  14   5
ATOM      5  N   UNL     1      -9.453  -6.435  39.917  0.00  0.00    -0.217 N 
ATOM      6  N   UNL     1     -10.616  -5.912  39.513  0.00  0.00    -0.043 NA
ATOM      7  N   UNL     1      -9.023  -4.352  39.528  0.00  0.00    -0.108 NA
ATOM      8  N   UNL     1     -10.346  -4.634  39.276  0.00  0.00    -0.023 NA
ATOM     18  C   UNL     1      -8.489  -5.485  39.925  0.00  0.00    +0.182 A 
BRANCH  18  20
ATOM     20  C   UNL     1      -7.119  -5.710  40.308  0.00  0.00    +0.021 A 
ATOM     21  C   UNL     1      -6.724  -5.526  41.635  0.00  0.00    +0.013 A 
ATOM     22  C   UNL     1      -6.183  -6.113  39.354  0.00  0.00    +0.013 A 
ATOM     23  C   UNL     1      -5.398  -5.746  42.005  0.00  0.00    +0.024 A 
ATOM     24  C   UNL     1      -4.856  -6.333  39.725  0.00  0.00    +0.024 A 
ATOM     25  C   UNL     1      -4.464  -6.150  41.052  0.00  0.00    +0.029 A 
BRANCH  25  10
ATOM     10  N   UNL     1      -3.122  -6.371  41.427  0.00  0.00    -0.336 N 
ATOM     29  C   UNL     1      -2.083  -5.446  41.016  0.00  0.00    +0.129 C 
ATOM     30  C   UNL     1      -2.763  -7.531  42.216  0.00  0.00    +0.129 C 
ENDBRANCH  25  10
ENDBRANCH  18  20
ENDBRANCH  14   5
BRANCH  15   3
ATOM      3  O   UNL     1     -10.438 -11.571  37.844  0.00  0.00    -0.442 OA
BRANCH   3  19
ATOM      4  O   UNL     1      -9.519 -12.333  35.893  0.00  0.00    -0.226 OA
ATOM      9  N   UNL     1     -11.836 -12.297  36.229  0.00  0.00    -0.251 N 
ATOM     19  C   UNL     1     -10.511 -12.098  36.571  0.00  0.00    +0.405 C 
ATOM     35  H   UNL     1     -12.524 -12.038  36.932  0.00  0.00    +0.158 HD
BRANCH   9  26
ATOM     26  C   UNL     1     -12.354 -12.816  35.022  0.00  0.00    +0.038 A 
ATOM     27  C   UNL     1     -13.414 -12.172  34.404  0.00  0.00    +0.042 A 
ATOM     28  C   UNL     1     -11.793 -13.962  34.479  0.00  0.00    +0.023 A 
ATOM     31  C   UNL     1     -13.926 -12.685  33.213  0.00  0.00    +0.054 A 
ATOM     32  C   UNL     1     -12.305 -14.475  33.288  0.00  0.00    +0.003 A 
ATOM     33  C   UNL     1     -13.371 -13.837  32.654  0.00  0.00    +0.019 A 
BRANCH  31  34
ATOM     11  N   UNL     1     -15.906 -11.501  32.034  0.00  0.00    -0.191 NA
ATOM     34  C   UNL     1     -15.018 -12.032  32.562  0.00  0.00    +0.099 C 
ENDBRANCH  31  34
ENDBRANCH   9  26
ENDBRANCH   3  19
ENDBRANCH  15   3
TORSDOF 7
ENDMDL
MODEL 10
REMARK VINA RESULT:      -6.4      2.372      3.507
REMARK  Name = 11879546
REMARK  9 active torsions:
REMARK  status: ('A' for Active; 'I' for Inactive)
REMARK    1  A    between atoms: O_3  and  C_15
REMARK    2  A    between atoms: O_3  and  C_19
REMARK    3  A    between atoms: N_5  and  C_14
REMARK    4  A    between atoms: N_9  and  C_26
REMARK    5  A    between atoms: N_10  and  C_25
REMARK    6  A    between atoms: N_10  and  C_29
REMARK    7  A    between atoms: N_10  and  C_30
REMARK    8  A    between atoms: C_18  and  C_20
REMARK    9  A    between atoms: C_31  and  C_34
REMARK                            x       y       z     vdW  Elec       q    Type
REMARK                         _______ _______ _______ _____ _____    ______ ____
ROOT
ATOM      1  O   UNL     1      16.356   8.493  20.583  0.00  0.00    -0.368 OA
ATOM      2  O   UNL     1      16.363   5.868  18.951  0.00  0.00    -0.368 OA
ATOM     12  C   UNL     1      15.401   6.439  19.866  0.00  0.00    +0.177 C 
ATOM     13  C   UNL     1      16.193   7.118  20.966  0.00  0.00    +0.192 C 
ATOM     14  C   UNL     1      14.658   7.568  19.179  0.00  0.00    +0.168 C 
ATOM     15  C   UNL     1      17.506   6.373  20.940  0.00  0.00    +0.235 C 
ATOM     16  C   UNL     1      15.574   8.764  19.411  0.00  0.00    +0.190 C 
ATOM     17  C   UNL     1      17.684   6.093  19.466  0.00  0.00    +0.207 C 
ENDROOT
BRANCH  14   5
ATOM      5  N   UNL     1      13.288   7.721  19.677  0.00  0.00    -0.217 N 
ATOM      6  N   UNL     1      12.633   6.676  20.192  0.00  0.00    -0.043 NA
ATOM      7  N   UNL     1      11.351   8.500  20.241  0.00  0.00    -0.108 NA
ATOM      8  N   UNL     1      11.445   7.160  20.537  0.00  0.00    -0.023 NA
ATOM     18  C   UNL     1      12.507   8.827  19.709  0.00  0.00    +0.182 A 
BRANCH  18  20
ATOM     20  C   UNL     1      12.904  10.127  19.231  0.00  0.00    +0.021 A 
ATOM     21  C   UNL     1      13.205  10.314  17.881  0.00  0.00    +0.013 A 
ATOM     22  C   UNL     1      12.989  11.201  20.118  0.00  0.00    +0.013 A 
ATOM     23  C   UNL     1      13.588  11.573  17.420  0.00  0.00    +0.024 A 
ATOM     24  C   UNL     1      13.372  12.460  19.656  0.00  0.00    +0.024 A 
ATOM     25  C   UNL     1      13.672  12.646  18.306  0.00  0.00    +0.029 A 
BRANCH  25  10
ATOM     10  N   UNL     1      14.060  13.919  17.839  0.00  0.00    -0.336 N 
ATOM     29  C   UNL     1      14.573  14.914  18.761  0.00  0.00    +0.129 C 
ATOM     30  C   UNL     1      13.940  14.254  16.434  0.00  0.00    +0.129 C 
ENDBRANCH  25  10
ENDBRANCH  18  20
ENDBRANCH  14   5
BRANCH  15   3
ATOM      3  O   UNL     1      18.583   7.108  21.474  0.00  0.00    -0.442 OA
BRANCH   3  19
ATOM      4  O   UNL     1      19.905   6.223  23.117  0.00  0.00    -0.226 OA
ATOM      9  N   UNL     1      20.388   5.909  20.848  0.00  0.00    -0.251 N 
ATOM     19  C   UNL     1      19.667   6.385  21.927  0.00  0.00    +0.405 C 
ATOM     35  H   UNL     1      20.030   6.151  19.927  0.00  0.00    +0.158 HD
BRANCH   9  26
ATOM     26  C   UNL     1      21.565   5.128  20.865  0.00  0.00    +0.038 A 
ATOM     27  C   UNL     1      22.780   5.721  20.561  0.00  0.00    +0.042 A 
ATOM     28  C   UNL     1      21.480   3.781  21.183  0.00  0.00    +0.023 A 
ATOM     31  C   UNL     1      23.941   4.948  20.577  0.00  0.00    +0.054 A 
ATOM     32  C   UNL     1      22.641   3.008  21.199  0.00  0.00    +0.003 A 
ATOM     33  C   UNL     1      23.872   3.592  20.896  0.00  0.00    +0.019 A 
BRANCH  31  34
ATOM     11  N   UNL     1      26.228   6.030  20.016  0.00  0.00    -0.191 NA
ATOM     34  C   UNL     1      25.202   5.545  20.267  0.00  0.00    +0.099 C 
ENDBRANCH  31  34
ENDBRANCH   9  26
ENDBRANCH   3  19
ENDBRANCH  15   3
TORSDOF 7
ENDMDL
