MODEL 1
REMARK VINA RESULT:      -7.8      0.000      0.000
REMARK  Name = 11887247
REMARK  5 active torsions:
REMARK  status: ('A' for Active; 'I' for Inactive)
REMARK    1  A    between atoms: N_6  and  C_13
REMARK    2  A    between atoms: N_7  and  C_14
REMARK    3  A    between atoms: C_17  and  C_19
REMARK    4  A    between atoms: C_18  and  C_20
REMARK    5  A    between atoms: C_30  and  C_32
REMARK                            x       y       z     vdW  Elec       q    Type
REMARK                         _______ _______ _______ _____ _____    ______ ____
ROOT
ATOM      1  O   UNL     1      13.744   8.309  17.771  0.00  0.00    -0.370 OA
ATOM      2  O   UNL     1      13.452   8.015  20.889  0.00  0.00    -0.370 OA
ATOM     11  C   UNL     1      14.027   9.018  20.030  0.00  0.00    +0.176 C 
ATOM     12  C   UNL     1      14.673   8.291  18.866  0.00  0.00    +0.171 C 
ATOM     13  C   UNL     1      12.926   9.849  19.401  0.00  0.00    +0.168 C 
ATOM     14  C   UNL     1      14.867   6.878  19.368  0.00  0.00    +0.130 C 
ATOM     15  C   UNL     1      12.585   9.068  18.137  0.00  0.00    +0.190 C 
ATOM     16  C   UNL     1      13.710   6.717  20.335  0.00  0.00    +0.185 C 
ENDROOT
BRANCH  13   6
ATOM      6  N   UNL     1      13.330  11.241  19.180  0.00  0.00    -0.217 N 
ATOM      8  N   UNL     1      13.650  11.668  17.954  0.00  0.00    -0.043 NA
ATOM      9  N   UNL     1      13.839  13.327  19.432  0.00  0.00    -0.108 NA
ATOM     10  N   UNL     1      13.961  12.949  18.114  0.00  0.00    -0.023 NA
ATOM     17  C   UNL     1      13.445  12.251  20.074  0.00  0.00    +0.182 A 
BRANCH  17  19
ATOM      4  O   UNL     1      10.482  12.390  23.966  0.00  0.00    -0.453 OA
ATOM      5  O   UNL     1      12.272  11.830  25.481  0.00  0.00    -0.453 OA
ATOM     19  C   UNL     1      13.175  12.134  21.484  0.00  0.00    +0.024 A 
ATOM     21  C   UNL     1      11.879  12.343  21.965  0.00  0.00    +0.061 A 
ATOM     22  C   UNL     1      14.218  11.807  22.370  0.00  0.00    +0.015 A 
ATOM     25  C   UNL     1      11.670  12.220  23.323  0.00  0.00    +0.167 A 
ATOM     26  C   UNL     1      13.979  11.687  23.741  0.00  0.00    +0.050 A 
ATOM     27  C   UNL     1      12.691  11.901  24.188  0.00  0.00    +0.166 A 
ATOM     31  C   UNL     1      10.871  12.141  25.333  0.00  0.00    +0.466 C 
ENDBRANCH  17  19
ENDBRANCH  13   6
BRANCH  14   7
ATOM      3  O   UNL     1      17.223   5.610  18.326  0.00  0.00    -0.270 OA
ATOM      7  N   UNL     1      16.136   6.731  20.040  0.00  0.00    -0.304 N 
ATOM     18  C   UNL     1      17.222   6.099  19.452  0.00  0.00    +0.244 C 
ATOM     33  H   UNL     1      16.171   7.009  21.015  0.00  0.00    +0.149 HD
BRANCH  18  20
ATOM     20  C   UNL     1      18.448   6.006  20.286  0.00  0.00    +0.037 A 
ATOM     23  C   UNL     1      19.450   5.138  19.904  0.00  0.00    +0.013 A 
ATOM     24  C   UNL     1      18.548   6.793  21.415  0.00  0.00    +0.013 A 
ATOM     28  C   UNL     1      20.601   5.051  20.685  0.00  0.00    +0.004 A 
ATOM     29  C   UNL     1      19.700   6.708  22.196  0.00  0.00    +0.004 A 
ATOM     30  C   UNL     1      20.727   5.837  21.832  0.00  0.00    -0.050 A 
ATOM     32  C   UNL     1      21.958   5.743  22.668  0.00  0.00    +0.044 C 
ENDBRANCH  18  20
ENDBRANCH  14   7
TORSDOF 4
ENDMDL
MODEL 2
REMARK VINA RESULT:      -7.1      4.202      7.330
REMARK  Name = 11887247
REMARK  5 active torsions:
REMARK  status: ('A' for Active; 'I' for Inactive)
REMARK    1  A    between atoms: N_6  and  C_13
REMARK    2  A    between atoms: N_7  and  C_14
REMARK    3  A    between atoms: C_17  and  C_19
REMARK    4  A    between atoms: C_18  and  C_20
REMARK    5  A    between atoms: C_30  and  C_32
REMARK                            x       y       z     vdW  Elec       q    Type
REMARK                         _______ _______ _______ _____ _____    ______ ____
ROOT
ATOM      1  O   UNL     1      14.635  12.333  17.037  0.00  0.00    -0.370 OA
ATOM      2  O   UNL     1      15.206  10.126  19.206  0.00  0.00    -0.370 OA
ATOM     11  C   UNL     1      14.056  10.470  18.409  0.00  0.00    +0.176 C 
ATOM     12  C   UNL     1      14.030  11.982  18.292  0.00  0.00    +0.171 C 
ATOM     13  C   UNL     1      14.248   9.978  16.988  0.00  0.00    +0.168 C 
ATOM     14  C   UNL     1      14.888  12.461  19.441  0.00  0.00    +0.130 C 
ATOM     15  C   UNL     1      14.969  11.141  16.315  0.00  0.00    +0.190 C 
ATOM     16  C   UNL     1      15.885  11.328  19.595  0.00  0.00    +0.185 C 
ENDROOT
BRANCH  13   6
ATOM      6  N   UNL     1      12.986   9.581  16.356  0.00  0.00    -0.217 N 
ATOM      8  N   UNL     1      12.715   9.942  15.098  0.00  0.00    -0.043 NA
ATOM      9  N   UNL     1      11.036   8.745  15.945  0.00  0.00    -0.108 NA
ATOM     10  N   UNL     1      11.516   9.426  14.850  0.00  0.00    -0.023 NA
ATOM     17  C   UNL     1      11.965   8.854  16.867  0.00  0.00    +0.182 A 
BRANCH  17  19
ATOM      4  O   UNL     1      10.394   8.770  21.501  0.00  0.00    -0.453 OA
ATOM      5  O   UNL     1      11.748   6.848  22.035  0.00  0.00    -0.453 OA
ATOM     19  C   UNL     1      11.932   8.307  18.199  0.00  0.00    +0.024 A 
ATOM     21  C   UNL     1      11.116   8.893  19.172  0.00  0.00    +0.061 A 
ATOM     22  C   UNL     1      12.721   7.186  18.513  0.00  0.00    +0.015 A 
ATOM     25  C   UNL     1      11.120   8.335  20.434  0.00  0.00    +0.167 A 
ATOM     26  C   UNL     1      12.704   6.639  19.798  0.00  0.00    +0.050 A 
ATOM     27  C   UNL     1      11.892   7.238  20.739  0.00  0.00    +0.166 A 
ATOM     31  C   UNL     1      10.798   7.823  22.511  0.00  0.00    +0.466 C 
ENDBRANCH  17  19
ENDBRANCH  13   6
BRANCH  14   7
ATOM      3  O   UNL     1      13.119  14.644  20.031  0.00  0.00    -0.270 OA
ATOM      7  N   UNL     1      14.106  12.636  20.641  0.00  0.00    -0.304 N 
ATOM     18  C   UNL     1      13.275  13.730  20.836  0.00  0.00    +0.244 C 
ATOM     33  H   UNL     1      14.274  11.980  21.396  0.00  0.00    +0.149 HD
BRANCH  18  20
ATOM     20  C   UNL     1      12.557  13.777  22.136  0.00  0.00    +0.037 A 
ATOM     23  C   UNL     1      13.275  14.041  23.284  0.00  0.00    +0.013 A 
ATOM     24  C   UNL     1      11.196  13.557  22.154  0.00  0.00    +0.013 A 
ATOM     28  C   UNL     1      12.602  14.085  24.505  0.00  0.00    +0.004 A 
ATOM     29  C   UNL     1      10.522  13.603  23.374  0.00  0.00    +0.004 A 
ATOM     30  C   UNL     1      11.224  13.867  24.550  0.00  0.00    -0.050 A 
ATOM     32  C   UNL     1      10.505  13.915  25.855  0.00  0.00    +0.044 C 
ENDBRANCH  18  20
ENDBRANCH  14   7
TORSDOF 4
ENDMDL
MODEL 3
REMARK VINA RESULT:      -7.0      3.955      6.638
REMARK  Name = 11887247
REMARK  5 active torsions:
REMARK  status: ('A' for Active; 'I' for Inactive)
REMARK    1  A    between atoms: N_6  and  C_13
REMARK    2  A    between atoms: N_7  and  C_14
REMARK    3  A    between atoms: C_17  and  C_19
REMARK    4  A    between atoms: C_18  and  C_20
REMARK    5  A    between atoms: C_30  and  C_32
REMARK                            x       y       z     vdW  Elec       q    Type
REMARK                         _______ _______ _______ _____ _____    ______ ____
ROOT
ATOM      1  O   UNL     1      11.581   9.359  16.675  0.00  0.00    -0.370 OA
ATOM      2  O   UNL     1      14.311   7.815  16.922  0.00  0.00    -0.370 OA
ATOM     11  C   UNL     1      13.529   8.612  17.831  0.00  0.00    +0.176 C 
ATOM     12  C   UNL     1      12.921   9.743  17.024  0.00  0.00    +0.171 C 
ATOM     13  C   UNL     1      12.340   7.811  18.327  0.00  0.00    +0.168 C 
ATOM     14  C   UNL     1      13.783   9.824  15.784  0.00  0.00    +0.130 C 
ATOM     15  C   UNL     1      11.272   8.095  17.277  0.00  0.00    +0.190 C 
ATOM     16  C   UNL     1      14.232   8.386  15.608  0.00  0.00    +0.185 C 
ENDROOT
BRANCH  13   6
ATOM      6  N   UNL     1      11.966   8.156  19.702  0.00  0.00    -0.217 N 
ATOM      8  N   UNL     1      10.701   8.470  20.002  0.00  0.00    -0.043 NA
ATOM      9  N   UNL     1      11.983   8.568  21.824  0.00  0.00    -0.108 NA
ATOM     10  N   UNL     1      10.717   8.722  21.306  0.00  0.00    -0.023 NA
ATOM     17  C   UNL     1      12.740   8.216  20.811  0.00  0.00    +0.182 A 
BRANCH  17  19
ATOM      4  O   UNL     1      17.417   9.487  21.489  0.00  0.00    -0.453 OA
ATOM      5  O   UNL     1      18.205   7.270  20.963  0.00  0.00    -0.453 OA
ATOM     19  C   UNL     1      14.153   7.936  20.841  0.00  0.00    +0.024 A 
ATOM     21  C   UNL     1      15.057   8.949  21.176  0.00  0.00    +0.061 A 
ATOM     22  C   UNL     1      14.615   6.643  20.535  0.00  0.00    +0.015 A 
ATOM     25  C   UNL     1      16.399   8.633  21.191  0.00  0.00    +0.167 A 
ATOM     26  C   UNL     1      15.980   6.349  20.559  0.00  0.00    +0.050 A 
ATOM     27  C   UNL     1      16.849   7.368  20.891  0.00  0.00    +0.166 A 
ATOM     31  C   UNL     1      18.557   8.616  21.343  0.00  0.00    +0.466 C 
ENDBRANCH  17  19
ENDBRANCH  13   6
BRANCH  14   7
ATOM      3  O   UNL     1      15.451  10.974  13.749  0.00  0.00    -0.270 OA
ATOM      7  N   UNL     1      14.909  10.703  15.988  0.00  0.00    -0.304 N 
ATOM     18  C   UNL     1      15.659  11.210  14.936  0.00  0.00    +0.244 C 
ATOM     33  H   UNL     1      15.209  10.847  16.946  0.00  0.00    +0.149 HD
BRANCH  18  20
ATOM     20  C   UNL     1      16.803  12.079  15.314  0.00  0.00    +0.037 A 
ATOM     23  C   UNL     1      16.627  13.016  16.311  0.00  0.00    +0.013 A 
ATOM     24  C   UNL     1      18.006  11.920  14.658  0.00  0.00    +0.013 A 
ATOM     28  C   UNL     1      17.701  13.832  16.667  0.00  0.00    +0.004 A 
ATOM     29  C   UNL     1      19.081  12.734  15.015  0.00  0.00    +0.004 A 
ATOM     30  C   UNL     1      18.929  13.690  16.019  0.00  0.00    -0.050 A 
ATOM     32  C   UNL     1      20.077  14.562  16.399  0.00  0.00    +0.044 C 
ENDBRANCH  18  20
ENDBRANCH  14   7
TORSDOF 4
ENDMDL
MODEL 4
REMARK VINA RESULT:      -7.0     29.609     32.638
REMARK  Name = 11887247
REMARK  5 active torsions:
REMARK  status: ('A' for Active; 'I' for Inactive)
REMARK    1  A    between atoms: N_6  and  C_13
REMARK    2  A    between atoms: N_7  and  C_14
REMARK    3  A    between atoms: C_17  and  C_19
REMARK    4  A    between atoms: C_18  and  C_20
REMARK    5  A    between atoms: C_30  and  C_32
REMARK                            x       y       z     vdW  Elec       q    Type
REMARK                         _______ _______ _______ _____ _____    ______ ____
ROOT
ATOM      1  O   UNL     1     -13.931   2.314  33.526  0.00  0.00    -0.370 OA
ATOM      2  O   UNL     1     -16.222   3.943  32.114  0.00  0.00    -0.370 OA
ATOM     11  C   UNL     1     -15.109   3.164  31.635  0.00  0.00    +0.176 C 
ATOM     12  C   UNL     1     -13.954   3.402  32.589  0.00  0.00    +0.171 C 
ATOM     13  C   UNL     1     -15.420   1.686  31.768  0.00  0.00    +0.168 C 
ATOM     14  C   UNL     1     -14.309   4.693  33.292  0.00  0.00    +0.130 C 
ATOM     15  C   UNL     1     -14.944   1.361  33.180  0.00  0.00    +0.190 C 
ATOM     16  C   UNL     1     -15.825   4.653  33.296  0.00  0.00    +0.185 C 
ENDROOT
BRANCH  13   6
ATOM      6  N   UNL     1     -14.804   0.886  30.706  0.00  0.00    -0.217 N 
ATOM      8  N   UNL     1     -13.788   0.061  30.981  0.00  0.00    -0.043 NA
ATOM      9  N   UNL     1     -14.296  -0.023  28.811  0.00  0.00    -0.108 NA
ATOM     10  N   UNL     1     -13.479  -0.494  29.814  0.00  0.00    -0.023 NA
ATOM     17  C   UNL     1     -15.110   0.831  29.388  0.00  0.00    +0.182 A 
BRANCH  17  19
ATOM      4  O   UNL     1     -16.825   4.792  27.084  0.00  0.00    -0.453 OA
ATOM      5  O   UNL     1     -19.048   3.870  26.932  0.00  0.00    -0.453 OA
ATOM     19  C   UNL     1     -16.156   1.593  28.757  0.00  0.00    +0.024 A 
ATOM     21  C   UNL     1     -15.876   2.861  28.235  0.00  0.00    +0.061 A 
ATOM     22  C   UNL     1     -17.454   1.057  28.666  0.00  0.00    +0.015 A 
ATOM     25  C   UNL     1     -16.911   3.553  27.640  0.00  0.00    +0.167 A 
ATOM     26  C   UNL     1     -18.483   1.779  28.057  0.00  0.00    +0.050 A 
ATOM     27  C   UNL     1     -18.179   3.027  27.553  0.00  0.00    +0.166 A 
ATOM     31  C   UNL     1     -18.183   4.987  26.637  0.00  0.00    +0.466 C 
ENDBRANCH  17  19
ENDBRANCH  13   6
BRANCH  14   7
ATOM      3  O   UNL     1     -13.704   7.284  34.372  0.00  0.00    -0.270 OA
ATOM      7  N   UNL     1     -13.818   5.838  32.563  0.00  0.00    -0.304 N 
ATOM     18  C   UNL     1     -13.553   7.054  33.176  0.00  0.00    +0.244 C 
ATOM     33  H   UNL     1     -13.780   5.755  31.553  0.00  0.00    +0.149 HD
BRANCH  18  20
ATOM     20  C   UNL     1     -13.078   8.142  32.281  0.00  0.00    +0.037 A 
ATOM     23  C   UNL     1     -14.009   8.912  31.617  0.00  0.00    +0.013 A 
ATOM     24  C   UNL     1     -11.721   8.347  32.146  0.00  0.00    +0.013 A 
ATOM     28  C   UNL     1     -13.564   9.934  30.778  0.00  0.00    +0.004 A 
ATOM     29  C   UNL     1     -11.275   9.370  31.309  0.00  0.00    +0.004 A 
ATOM     30  C   UNL     1     -12.196  10.163  30.624  0.00  0.00    -0.050 A 
ATOM     32  C   UNL     1     -11.720  11.255  29.727  0.00  0.00    +0.044 C 
ENDBRANCH  18  20
ENDBRANCH  14   7
TORSDOF 4
ENDMDL
MODEL 5
REMARK VINA RESULT:      -7.0      4.185      7.891
REMARK  Name = 11887247
REMARK  5 active torsions:
REMARK  status: ('A' for Active; 'I' for Inactive)
REMARK    1  A    between atoms: N_6  and  C_13
REMARK    2  A    between atoms: N_7  and  C_14
REMARK    3  A    between atoms: C_17  and  C_19
REMARK    4  A    between atoms: C_18  and  C_20
REMARK    5  A    between atoms: C_30  and  C_32
REMARK                            x       y       z     vdW  Elec       q    Type
REMARK                         _______ _______ _______ _____ _____    ______ ____
ROOT
ATOM      1  O   UNL     1      11.028   8.496  22.012  0.00  0.00    -0.370 OA
ATOM      2  O   UNL     1      11.851  11.355  20.989  0.00  0.00    -0.370 OA
ATOM     11  C   UNL     1      12.559  10.111  21.155  0.00  0.00    +0.176 C 
ATOM     12  C   UNL     1      12.020   9.455  22.412  0.00  0.00    +0.171 C 
ATOM     13  C   UNL     1      12.192   9.156  20.035  0.00  0.00    +0.168 C 
ATOM     14  C   UNL     1      11.376  10.588  23.179  0.00  0.00    +0.130 C 
ATOM     15  C   UNL     1      10.961   8.443  20.581  0.00  0.00    +0.190 C 
ATOM     16  C   UNL     1      10.917  11.512  22.067  0.00  0.00    +0.185 C 
ENDROOT
BRANCH  13   6
ATOM      6  N   UNL     1      13.304   8.278  19.661  0.00  0.00    -0.217 N 
ATOM      8  N   UNL     1      13.500   7.122  20.303  0.00  0.00    -0.043 NA
ATOM      9  N   UNL     1      15.044   7.406  18.720  0.00  0.00    -0.108 NA
ATOM     10  N   UNL     1      14.570   6.591  19.722  0.00  0.00    -0.023 NA
ATOM     17  C   UNL     1      14.243   8.446  18.700  0.00  0.00    +0.182 A 
BRANCH  17  19
ATOM      4  O   UNL     1      13.322  10.774  14.495  0.00  0.00    -0.453 OA
ATOM      5  O   UNL     1      14.477  12.762  15.221  0.00  0.00    -0.453 OA
ATOM     19  C   UNL     1      14.322   9.585  17.822  0.00  0.00    +0.024 A 
ATOM     21  C   UNL     1      13.729   9.532  16.556  0.00  0.00    +0.061 A 
ATOM     22  C   UNL     1      14.996  10.746  18.243  0.00  0.00    +0.015 A 
ATOM     25  C   UNL     1      13.832  10.647  15.751  0.00  0.00    +0.167 A 
ATOM     26  C   UNL     1      15.085  11.862  17.408  0.00  0.00    +0.050 A 
ATOM     27  C   UNL     1      14.492  11.781  16.165  0.00  0.00    +0.166 A 
ATOM     31  C   UNL     1      13.734  12.117  14.166  0.00  0.00    +0.466 C 
ENDBRANCH  17  19
ENDBRANCH  13   6
BRANCH  14   7
ATOM      3  O   UNL     1      10.777  12.266  25.431  0.00  0.00    -0.270 OA
ATOM      7  N   UNL     1      12.328  11.241  24.044  0.00  0.00    -0.304 N 
ATOM     18  C   UNL     1      11.941  12.037  25.112  0.00  0.00    +0.244 C 
ATOM     33  H   UNL     1      13.304  11.191  23.770  0.00  0.00    +0.149 HD
BRANCH  18  20
ATOM     20  C   UNL     1      13.043  12.661  25.890  0.00  0.00    +0.037 A 
ATOM     23  C   UNL     1      14.251  12.001  25.981  0.00  0.00    +0.013 A 
ATOM     24  C   UNL     1      12.824  13.882  26.493  0.00  0.00    +0.013 A 
ATOM     28  C   UNL     1      15.286  12.587  26.710  0.00  0.00    +0.004 A 
ATOM     29  C   UNL     1      13.860  14.469  27.221  0.00  0.00    +0.004 A 
ATOM     30  C   UNL     1      15.090  13.822  27.329  0.00  0.00    -0.050 A 
ATOM     32  C   UNL     1      16.197  14.448  28.109  0.00  0.00    +0.044 C 
ENDBRANCH  18  20
ENDBRANCH  14   7
TORSDOF 4
ENDMDL
MODEL 6
REMARK VINA RESULT:      -6.9      4.512      6.623
REMARK  Name = 11887247
REMARK  5 active torsions:
REMARK  status: ('A' for Active; 'I' for Inactive)
REMARK    1  A    between atoms: N_6  and  C_13
REMARK    2  A    between atoms: N_7  and  C_14
REMARK    3  A    between atoms: C_17  and  C_19
REMARK    4  A    between atoms: C_18  and  C_20
REMARK    5  A    between atoms: C_30  and  C_32
REMARK                            x       y       z     vdW  Elec       q    Type
REMARK                         _______ _______ _______ _____ _____    ______ ____
ROOT
ATOM      1  O   UNL     1      13.344  10.303  18.083  0.00  0.00    -0.370 OA
ATOM      2  O   UNL     1      13.320   8.510  15.498  0.00  0.00    -0.370 OA
ATOM     11  C   UNL     1      14.132   8.538  16.687  0.00  0.00    +0.176 C 
ATOM     12  C   UNL     1      14.315   9.994  17.070  0.00  0.00    +0.171 C 
ATOM     13  C   UNL     1      13.368   7.927  17.847  0.00  0.00    +0.168 C 
ATOM     14  C   UNL     1      14.010  10.756  15.800  0.00  0.00    +0.130 C 
ATOM     15  C   UNL     1      12.613   9.118  18.425  0.00  0.00    +0.190 C 
ATOM     16  C   UNL     1      12.997   9.856  15.118  0.00  0.00    +0.185 C 
ENDROOT
BRANCH  13   6
ATOM      6  N   UNL     1      14.246   7.231  18.792  0.00  0.00    -0.217 N 
ATOM      8  N   UNL     1      15.344   6.602  18.360  0.00  0.00    -0.043 NA
ATOM      9  N   UNL     1      15.144   6.394  20.571  0.00  0.00    -0.108 NA
ATOM     10  N   UNL     1      15.892   6.090  19.457  0.00  0.00    -0.023 NA
ATOM     17  C   UNL     1      14.128   7.103  20.135  0.00  0.00    +0.182 A 
BRANCH  17  19
ATOM      4  O   UNL     1      12.149  10.587  22.945  0.00  0.00    -0.453 OA
ATOM      5  O   UNL     1      10.087   9.362  23.191  0.00  0.00    -0.453 OA
ATOM     19  C   UNL     1      13.058   7.661  20.921  0.00  0.00    +0.024 A 
ATOM     21  C   UNL     1      13.222   8.907  21.535  0.00  0.00    +0.061 A 
ATOM     22  C   UNL     1      11.854   6.949  21.067  0.00  0.00    +0.015 A 
ATOM     25  C   UNL     1      12.169   9.399  22.279  0.00  0.00    +0.167 A 
ATOM     26  C   UNL     1      10.803   7.471  21.824  0.00  0.00    +0.050 A 
ATOM     27  C   UNL     1      10.992   8.701  22.420  0.00  0.00    +0.166 A 
ATOM     31  C   UNL     1      10.827  10.556  23.520  0.00  0.00    +0.466 C 
ENDBRANCH  17  19
ENDBRANCH  13   6
BRANCH  14   7
ATOM      3  O   UNL     1      15.780  13.017  15.790  0.00  0.00    -0.270 OA
ATOM      7  N   UNL     1      15.194  10.919  14.992  0.00  0.00    -0.304 N 
ATOM     18  C   UNL     1      15.990  12.054  15.057  0.00  0.00    +0.244 C 
ATOM     33  H   UNL     1      15.363  10.216  14.281  0.00  0.00    +0.149 HD
BRANCH  18  20
ATOM     20  C   UNL     1      17.159  12.080  14.140  0.00  0.00    +0.037 A 
ATOM     23  C   UNL     1      18.401  11.743  14.635  0.00  0.00    +0.013 A 
ATOM     24  C   UNL     1      16.964  12.439  12.822  0.00  0.00    +0.013 A 
ATOM     28  C   UNL     1      19.499  11.766  13.775  0.00  0.00    +0.004 A 
ATOM     29  C   UNL     1      18.062  12.461  11.961  0.00  0.00    +0.004 A 
ATOM     30  C   UNL     1      19.329  12.125  12.437  0.00  0.00    -0.050 A 
ATOM     32  C   UNL     1      20.502  12.150  11.518  0.00  0.00    +0.044 C 
ENDBRANCH  18  20
ENDBRANCH  14   7
TORSDOF 4
ENDMDL
MODEL 7
REMARK VINA RESULT:      -6.9     17.176     20.985
REMARK  Name = 11887247
REMARK  5 active torsions:
REMARK  status: ('A' for Active; 'I' for Inactive)
REMARK    1  A    between atoms: N_6  and  C_13
REMARK    2  A    between atoms: N_7  and  C_14
REMARK    3  A    between atoms: C_17  and  C_19
REMARK    4  A    between atoms: C_18  and  C_20
REMARK    5  A    between atoms: C_30  and  C_32
REMARK                            x       y       z     vdW  Elec       q    Type
REMARK                         _______ _______ _______ _____ _____    ______ ____
ROOT
ATOM      1  O   UNL     1       9.084   8.465   0.459  0.00  0.00    -0.370 OA
ATOM      2  O   UNL     1      11.896   7.700   1.645  0.00  0.00    -0.370 OA
ATOM     11  C   UNL     1      10.822   6.944   1.055  0.00  0.00    +0.176 C 
ATOM     12  C   UNL     1       9.524   7.585   1.506  0.00  0.00    +0.171 C 
ATOM     13  C   UNL     1      10.835   7.120  -0.452  0.00  0.00    +0.168 C 
ATOM     14  C   UNL     1       9.906   8.380   2.734  0.00  0.00    +0.130 C 
ATOM     15  C   UNL     1       9.975   8.362  -0.659  0.00  0.00    +0.190 C 
ATOM     16  C   UNL     1      11.344   8.761   2.438  0.00  0.00    +0.185 C 
ENDROOT
BRANCH  13   6
ATOM      6  N   UNL     1      10.376   5.922  -1.161  0.00  0.00    -0.217 N 
ATOM      8  N   UNL     1       9.167   5.892  -1.730  0.00  0.00    -0.043 NA
ATOM      9  N   UNL     1      10.225   3.956  -2.046  0.00  0.00    -0.108 NA
ATOM     10  N   UNL     1       9.079   4.683  -2.272  0.00  0.00    -0.023 NA
ATOM     17  C   UNL     1      11.016   4.745  -1.356  0.00  0.00    +0.182 A 
BRANCH  17  19
ATOM      4  O   UNL     1      15.883   4.551  -1.826  0.00  0.00    -0.453 OA
ATOM      5  O   UNL     1      16.164   3.618   0.379  0.00  0.00    -0.453 OA
ATOM     19  C   UNL     1      12.339   4.441  -0.874  0.00  0.00    +0.024 A 
ATOM     21  C   UNL     1      13.450   4.689  -1.686  0.00  0.00    +0.061 A 
ATOM     22  C   UNL     1      12.505   3.896   0.413  0.00  0.00    +0.015 A 
ATOM     25  C   UNL     1      14.696   4.380  -1.181  0.00  0.00    +0.167 A 
ATOM     26  C   UNL     1      13.779   3.594   0.900  0.00  0.00    +0.050 A 
ATOM     27  C   UNL     1      14.857   3.848   0.077  0.00  0.00    +0.166 A 
ATOM     31  C   UNL     1      16.808   4.066  -0.831  0.00  0.00    +0.466 C 
ENDBRANCH  17  19
ENDBRANCH  13   6
BRANCH  14   7
ATOM      3  O   UNL     1       9.247   9.298   5.374  0.00  0.00    -0.270 OA
ATOM      7  N   UNL     1       9.813   7.575   3.928  0.00  0.00    -0.304 N 
ATOM     18  C   UNL     1       9.486   8.112   5.166  0.00  0.00    +0.244 C 
ATOM     33  H   UNL     1      10.111   6.608   3.852  0.00  0.00    +0.149 HD
BRANCH  18  20
ATOM     20  C   UNL     1       9.458   7.154   6.301  0.00  0.00    +0.037 A 
ATOM     23  C   UNL     1       8.971   7.580   7.519  0.00  0.00    +0.013 A 
ATOM     24  C   UNL     1       9.918   5.869   6.101  0.00  0.00    +0.013 A 
ATOM     28  C   UNL     1       8.943   6.681   8.586  0.00  0.00    +0.004 A 
ATOM     29  C   UNL     1       9.889   4.970   7.167  0.00  0.00    +0.004 A 
ATOM     30  C   UNL     1       9.402   5.375   8.409  0.00  0.00    -0.050 A 
ATOM     32  C   UNL     1       9.373   4.415   9.549  0.00  0.00    +0.044 C 
ENDBRANCH  18  20
ENDBRANCH  14   7
TORSDOF 4
ENDMDL
MODEL 8
REMARK VINA RESULT:      -6.9     14.480     17.302
REMARK  Name = 11887247
REMARK  5 active torsions:
REMARK  status: ('A' for Active; 'I' for Inactive)
REMARK    1  A    between atoms: N_6  and  C_13
REMARK    2  A    between atoms: N_7  and  C_14
REMARK    3  A    between atoms: C_17  and  C_19
REMARK    4  A    between atoms: C_18  and  C_20
REMARK    5  A    between atoms: C_30  and  C_32
REMARK                            x       y       z     vdW  Elec       q    Type
REMARK                         _______ _______ _______ _____ _____    ______ ____
ROOT
ATOM      1  O   UNL     1      12.508   9.573   7.555  0.00  0.00    -0.370 OA
ATOM      2  O   UNL     1      13.043   9.194   4.478  0.00  0.00    -0.370 OA
ATOM     11  C   UNL     1      12.808   8.285   5.571  0.00  0.00    +0.176 C 
ATOM     12  C   UNL     1      13.497   8.866   6.791  0.00  0.00    +0.171 C 
ATOM     13  C   UNL     1      11.335   8.278   5.928  0.00  0.00    +0.168 C 
ATOM     14  C   UNL     1      14.512   9.833   6.223  0.00  0.00    +0.130 C 
ATOM     15  C   UNL     1      11.222   9.410   6.943  0.00  0.00    +0.190 C 
ATOM     16  C   UNL     1      13.840  10.293   4.944  0.00  0.00    +0.185 C 
ENDROOT
BRANCH  13   6
ATOM      6  N   UNL     1      10.879   6.969   6.404  0.00  0.00    -0.217 N 
ATOM      8  N   UNL     1      10.846   6.698   7.713  0.00  0.00    -0.043 NA
ATOM      9  N   UNL     1      10.142   4.941   6.534  0.00  0.00    -0.108 NA
ATOM     10  N   UNL     1      10.393   5.452   7.787  0.00  0.00    -0.023 NA
ATOM     17  C   UNL     1      10.450   5.901   5.692  0.00  0.00    +0.182 A 
BRANCH  17  19
ATOM      4  O   UNL     1      11.357   3.866   1.335  0.00  0.00    -0.453 OA
ATOM      5  O   UNL     1      10.175   5.607   0.159  0.00  0.00    -0.453 OA
ATOM     19  C   UNL     1      10.359   5.855   4.256  0.00  0.00    +0.024 A 
ATOM     21  C   UNL     1      10.955   4.803   3.553  0.00  0.00    +0.061 A 
ATOM     22  C   UNL     1       9.669   6.870   3.566  0.00  0.00    +0.015 A 
ATOM     25  C   UNL     1      10.842   4.803   2.178  0.00  0.00    +0.167 A 
ATOM     26  C   UNL     1       9.569   6.845   2.174  0.00  0.00    +0.050 A 
ATOM     27  C   UNL     1      10.167   5.796   1.506  0.00  0.00    +0.166 A 
ATOM     31  C   UNL     1      10.930   4.382   0.058  0.00  0.00    +0.466 C 
ENDBRANCH  17  19
ENDBRANCH  13   6
BRANCH  14   7
ATOM      3  O   UNL     1      17.130  11.005   6.346  0.00  0.00    -0.270 OA
ATOM      7  N   UNL     1      15.765   9.173   5.948  0.00  0.00    -0.304 N 
ATOM     18  C   UNL     1      16.987   9.826   6.034  0.00  0.00    +0.244 C 
ATOM     33  H   UNL     1      15.714   8.232   5.572  0.00  0.00    +0.149 HD
BRANCH  18  20
ATOM     20  C   UNL     1      18.183   9.014   5.692  0.00  0.00    +0.037 A 
ATOM     23  C   UNL     1      18.277   8.464   4.431  0.00  0.00    +0.013 A 
ATOM     24  C   UNL     1      19.163   8.838   6.647  0.00  0.00    +0.013 A 
ATOM     28  C   UNL     1      19.400   7.703   4.110  0.00  0.00    +0.004 A 
ATOM     29  C   UNL     1      20.287   8.078   6.325  0.00  0.00    +0.004 A 
ATOM     30  C   UNL     1      20.406   7.510   5.057  0.00  0.00    -0.050 A 
ATOM     32  C   UNL     1      21.607   6.695   4.713  0.00  0.00    +0.044 C 
ENDBRANCH  18  20
ENDBRANCH  14   7
TORSDOF 4
ENDMDL
MODEL 9
REMARK VINA RESULT:      -6.8     18.523     22.288
REMARK  Name = 11887247
REMARK  5 active torsions:
REMARK  status: ('A' for Active; 'I' for Inactive)
REMARK    1  A    between atoms: N_6  and  C_13
REMARK    2  A    between atoms: N_7  and  C_14
REMARK    3  A    between atoms: C_17  and  C_19
REMARK    4  A    between atoms: C_18  and  C_20
REMARK    5  A    between atoms: C_30  and  C_32
REMARK                            x       y       z     vdW  Elec       q    Type
REMARK                         _______ _______ _______ _____ _____    ______ ____
ROOT
ATOM      1  O   UNL     1       8.660   7.482  -1.983  0.00  0.00    -0.370 OA
ATOM      2  O   UNL     1      11.518   7.597  -0.673  0.00  0.00    -0.370 OA
ATOM     11  C   UNL     1      10.587   6.533  -0.947  0.00  0.00    +0.176 C 
ATOM     12  C   UNL     1       9.195   7.085  -0.710  0.00  0.00    +0.171 C 
ATOM     13  C   UNL     1      10.619   6.189  -2.424  0.00  0.00    +0.168 C 
ATOM     14  C   UNL     1       9.417   8.296   0.167  0.00  0.00    +0.130 C 
ATOM     15  C   UNL     1       9.589   7.143  -3.020  0.00  0.00    +0.190 C 
ATOM     16  C   UNL     1      10.790   8.767  -0.273  0.00  0.00    +0.185 C 
ENDROOT
BRANCH  13   6
ATOM      6  N   UNL     1      10.366   4.767  -2.675  0.00  0.00    -0.217 N 
ATOM      8  N   UNL     1       9.272   4.380  -3.338  0.00  0.00    -0.043 NA
ATOM      9  N   UNL     1      10.497   2.611  -2.755  0.00  0.00    -0.108 NA
ATOM     10  N   UNL     1       9.357   3.055  -3.385  0.00  0.00    -0.023 NA
ATOM     17  C   UNL     1      11.108   3.691  -2.324  0.00  0.00    +0.182 A 
BRANCH  17  19
ATOM      4  O   UNL     1      13.828   3.141   1.707  0.00  0.00    -0.453 OA
ATOM      5  O   UNL     1      15.829   3.882   0.584  0.00  0.00    -0.453 OA
ATOM     19  C   UNL     1      12.350   3.752  -1.598  0.00  0.00    +0.024 A 
ATOM     21  C   UNL     1      12.389   3.381  -0.250  0.00  0.00    +0.061 A 
ATOM     22  C   UNL     1      13.520   4.184  -2.251  0.00  0.00    +0.015 A 
ATOM     25  C   UNL     1      13.603   3.458   0.402  0.00  0.00    +0.167 A 
ATOM     26  C   UNL     1      14.736   4.251  -1.567  0.00  0.00    +0.050 A 
ATOM     27  C   UNL     1      14.744   3.881  -0.238  0.00  0.00    +0.166 A 
ATOM     31  C   UNL     1      15.241   3.413   1.815  0.00  0.00    +0.466 C 
ENDBRANCH  17  19
ENDBRANCH  13   6
BRANCH  14   7
ATOM      3  O   UNL     1       7.449   9.046   2.119  0.00  0.00    -0.270 OA
ATOM      7  N   UNL     1       9.410   7.938   1.565  0.00  0.00    -0.304 N 
ATOM     18  C   UNL     1       8.410   8.351   2.435  0.00  0.00    +0.244 C 
ATOM     33  H   UNL     1      10.232   7.463   1.920  0.00  0.00    +0.149 HD
BRANCH  18  20
ATOM     20  C   UNL     1       8.562   7.920   3.849  0.00  0.00    +0.037 A 
ATOM     23  C   UNL     1       9.203   6.728   4.117  0.00  0.00    +0.013 A 
ATOM     24  C   UNL     1       8.059   8.726   4.849  0.00  0.00    +0.013 A 
ATOM     28  C   UNL     1       9.347   6.324   5.444  0.00  0.00    +0.004 A 
ATOM     29  C   UNL     1       8.204   8.323   6.176  0.00  0.00    +0.004 A 
ATOM     30  C   UNL     1       8.847   7.122   6.474  0.00  0.00    -0.050 A 
ATOM     32  C   UNL     1       9.001   6.689   7.893  0.00  0.00    +0.044 C 
ENDBRANCH  18  20
ENDBRANCH  14   7
TORSDOF 4
ENDMDL
MODEL 10
REMARK VINA RESULT:      -6.7     28.142     30.728
REMARK  Name = 11887247
REMARK  5 active torsions:
REMARK  status: ('A' for Active; 'I' for Inactive)
REMARK    1  A    between atoms: N_6  and  C_13
REMARK    2  A    between atoms: N_7  and  C_14
REMARK    3  A    between atoms: C_17  and  C_19
REMARK    4  A    between atoms: C_18  and  C_20
REMARK    5  A    between atoms: C_30  and  C_32
REMARK                            x       y       z     vdW  Elec       q    Type
REMARK                         _______ _______ _______ _____ _____    ______ ____
ROOT
ATOM      1  O   UNL     1      -6.134  -8.976  11.600  0.00  0.00    -0.370 OA
ATOM      2  O   UNL     1      -6.640 -12.068  11.320  0.00  0.00    -0.370 OA
ATOM     11  C   UNL     1      -5.457 -11.258  11.463  0.00  0.00    +0.176 C 
ATOM     12  C   UNL     1      -5.691  -9.983  10.676  0.00  0.00    +0.171 C 
ATOM     13  C   UNL     1      -5.317 -10.802  12.902  0.00  0.00    +0.168 C 
ATOM     14  C   UNL     1      -6.801 -10.336   9.712  0.00  0.00    +0.130 C 
ATOM     15  C   UNL     1      -6.118  -9.505  12.932  0.00  0.00    +0.190 C 
ATOM     16  C   UNL     1      -7.584 -11.378  10.488  0.00  0.00    +0.185 C 
ENDROOT
BRANCH  13   6
ATOM      6  N   UNL     1      -3.916 -10.676  13.317  0.00  0.00    -0.217 N 
ATOM      8  N   UNL     1      -2.986 -10.266  12.448  0.00  0.00    -0.043 NA
ATOM      9  N   UNL     1      -2.068 -10.674  14.438  0.00  0.00    -0.108 NA
ATOM     10  N   UNL     1      -1.854 -10.267  13.141  0.00  0.00    -0.023 NA
ATOM     17  C   UNL     1      -3.355 -10.922  14.524  0.00  0.00    +0.182 A 
BRANCH  17  19
ATOM      4  O   UNL     1      -5.525 -10.219  18.854  0.00  0.00    -0.453 OA
ATOM      5  O   UNL     1      -6.125 -12.546  19.049  0.00  0.00    -0.453 OA
ATOM     19  C   UNL     1      -4.074 -11.377  15.686  0.00  0.00    +0.024 A 
ATOM     21  C   UNL     1      -4.421 -10.468  16.691  0.00  0.00    +0.061 A 
ATOM     22  C   UNL     1      -4.426 -12.734  15.802  0.00  0.00    +0.015 A 
ATOM     25  C   UNL     1      -5.109 -10.952  17.785  0.00  0.00    +0.167 A 
ATOM     26  C   UNL     1      -5.124 -13.198  16.919  0.00  0.00    +0.050 A 
ATOM     27  C   UNL     1      -5.452 -12.280  17.896  0.00  0.00    +0.166 A 
ATOM     31  C   UNL     1      -6.167 -11.236  19.650  0.00  0.00    +0.466 C 
ENDBRANCH  17  19
ENDBRANCH  13   6
BRANCH  14   7
ATOM      3  O   UNL     1      -6.823  -9.085   7.128  0.00  0.00    -0.270 OA
ATOM      7  N   UNL     1      -6.274 -10.883   8.485  0.00  0.00    -0.304 N 
ATOM     18  C   UNL     1      -6.332 -10.200   7.279  0.00  0.00    +0.244 C 
ATOM     33  H   UNL     1      -5.959 -11.847   8.513  0.00  0.00    +0.149 HD
BRANCH  18  20
ATOM     20  C   UNL     1      -5.769 -10.912   6.102  0.00  0.00    +0.037 A 
ATOM     23  C   UNL     1      -6.511 -10.969   4.941  0.00  0.00    +0.013 A 
ATOM     24  C   UNL     1      -4.521 -11.490   6.208  0.00  0.00    +0.013 A 
ATOM     28  C   UNL     1      -5.983 -11.637   3.836  0.00  0.00    +0.004 A 
ATOM     29  C   UNL     1      -3.992 -12.156   5.102  0.00  0.00    +0.004 A 
ATOM     30  C   UNL     1      -4.723 -12.230   3.916  0.00  0.00    -0.050 A 
ATOM     32  C   UNL     1      -4.159 -12.943   2.735  0.00  0.00    +0.044 C 
ENDBRANCH  18  20
ENDBRANCH  14   7
TORSDOF 4
ENDMDL
