MODEL 1
REMARK VINA RESULT:      -7.0      0.000      0.000
REMARK  Name = 11939796
REMARK  8 active torsions:
REMARK  status: ('A' for Active; 'I' for Inactive)
REMARK    1  A    between atoms: N_4  and  C_12
REMARK    2  A    between atoms: N_5  and  C_13
REMARK    3  A    between atoms: N_6  and  C_18
REMARK    4  A    between atoms: N_9  and  C_26
REMARK    5  A    between atoms: N_9  and  C_29
REMARK    6  A    between atoms: N_9  and  C_30
REMARK    7  A    between atoms: C_18  and  C_23
REMARK    8  A    between atoms: C_19  and  C_22
REMARK                            x       y       z     vdW  Elec       q    Type
REMARK                         _______ _______ _______ _____ _____    ______ ____
ROOT
ATOM      4  N   UNL     1      10.844  10.819  22.735  0.00  0.00    -0.306 N 
ATOM      7  N   UNL     1      12.288   9.137  21.963  0.00  0.00    -0.214 NA
ATOM      8  N   UNL     1       9.981   8.654  22.461  0.00  0.00    -0.223 NA
ATOM     16  C   UNL     1      11.043   9.497  22.375  0.00  0.00    +0.216 A 
ATOM     19  C   UNL     1      12.447   7.842  21.621  0.00  0.00    +0.076 A 
ATOM     20  C   UNL     1      10.210   7.374  22.104  0.00  0.00    +0.116 A 
ATOM     21  C   UNL     1      11.434   6.906  21.672  0.00  0.00    +0.048 A 
ATOM     31  H   UNL     1       9.927  11.063  23.090  0.00  0.00    +0.149 HD
ENDROOT
BRANCH   4  12
ATOM      1  O   UNL     1      11.130  13.576  24.111  0.00  0.00    -0.370 OA
ATOM      2  O   UNL     1      13.986  12.369  23.760  0.00  0.00    -0.370 OA
ATOM     10  C   UNL     1      12.689  11.785  23.972  0.00  0.00    +0.171 C 
ATOM     11  C   UNL     1      11.932  12.697  24.916  0.00  0.00    +0.171 C 
ATOM     12  C   UNL     1      11.884  11.824  22.695  0.00  0.00    +0.130 C 
ATOM     13  C   UNL     1      13.018  13.478  25.623  0.00  0.00    +0.131 C 
ATOM     14  C   UNL     1      11.272  13.213  22.730  0.00  0.00    +0.185 C 
ATOM     15  C   UNL     1      14.105  13.552  24.565  0.00  0.00    +0.185 C 
BRANCH  13   5
ATOM      3  O   UNL     1      14.075  14.654  28.036  0.00  0.00    -0.253 OA
ATOM      5  N   UNL     1      13.479  12.782  26.799  0.00  0.00    -0.292 N 
ATOM      6  N   UNL     1      14.351  12.524  28.914  0.00  0.00    -0.300 N 
ATOM     17  C   UNL     1      13.977  13.433  27.927  0.00  0.00    +0.300 C 
ATOM     32  H   UNL     1      13.379  11.772  26.835  0.00  0.00    +0.151 HD
ATOM     33  H   UNL     1      14.235  11.532  28.734  0.00  0.00    +0.150 HD
BRANCH   6  18
ATOM     18  C   UNL     1      14.900  12.931  30.186  0.00  0.00    +0.102 C 
ATOM     23  C   UNL     1      13.823  13.032  31.246  0.00  0.00    +0.024 C 
ENDBRANCH   6  18
ENDBRANCH  13   5
ENDBRANCH   4  12
BRANCH  19  22
ATOM     22  C   UNL     1      13.776   7.481  21.188  0.00  0.00    +0.001 A 
ATOM     24  C   UNL     1      13.978   6.956  19.910  0.00  0.00    +0.012 A 
ATOM     25  C   UNL     1      14.864   7.655  22.046  0.00  0.00    +0.012 A 
ATOM     26  C   UNL     1      16.347   6.781  20.350  0.00  0.00    +0.029 A 
ATOM     27  C   UNL     1      15.261   6.606  19.491  0.00  0.00    +0.024 A 
ATOM     28  C   UNL     1      16.147   7.306  21.627  0.00  0.00    +0.024 A 
BRANCH  26   9
ATOM      9  N   UNL     1      17.645   6.428  19.927  0.00  0.00    -0.336 N 
ATOM     29  C   UNL     1      17.834   5.547  18.792  0.00  0.00    +0.129 C 
ATOM     30  C   UNL     1      18.808   6.932  20.630  0.00  0.00    +0.129 C 
ENDBRANCH  26   9
ENDBRANCH  19  22
TORSDOF 5
ENDMDL
MODEL 2
REMARK VINA RESULT:      -6.9     27.104     30.067
REMARK  Name = 11939796
REMARK  8 active torsions:
REMARK  status: ('A' for Active; 'I' for Inactive)
REMARK    1  A    between atoms: N_4  and  C_12
REMARK    2  A    between atoms: N_5  and  C_13
REMARK    3  A    between atoms: N_6  and  C_18
REMARK    4  A    between atoms: N_9  and  C_26
REMARK    5  A    between atoms: N_9  and  C_29
REMARK    6  A    between atoms: N_9  and  C_30
REMARK    7  A    between atoms: C_18  and  C_23
REMARK    8  A    between atoms: C_19  and  C_22
REMARK                            x       y       z     vdW  Elec       q    Type
REMARK                         _______ _______ _______ _____ _____    ______ ____
ROOT
ATOM      4  N   UNL     1      -3.994 -11.237  16.945  0.00  0.00    -0.306 N 
ATOM      7  N   UNL     1      -3.534 -11.118  14.646  0.00  0.00    -0.214 NA
ATOM      8  N   UNL     1      -1.946 -10.314  16.270  0.00  0.00    -0.223 NA
ATOM     16  C   UNL     1      -3.132 -10.879  15.924  0.00  0.00    +0.216 A 
ATOM     19  C   UNL     1      -2.669 -10.756  13.676  0.00  0.00    +0.076 A 
ATOM     20  C   UNL     1      -1.129  -9.977  15.251  0.00  0.00    +0.116 A 
ATOM     21  C   UNL     1      -1.441 -10.176  13.921  0.00  0.00    +0.048 A 
ATOM     31  H   UNL     1      -3.707 -11.006  17.889  0.00  0.00    +0.149 HD
ENDROOT
BRANCH   4  12
ATOM      1  O   UNL     1      -6.641 -11.149  18.548  0.00  0.00    -0.370 OA
ATOM      2  O   UNL     1      -7.351 -11.443  15.524  0.00  0.00    -0.370 OA
ATOM     10  C   UNL     1      -6.267 -10.808  16.223  0.00  0.00    +0.171 C 
ATOM     11  C   UNL     1      -6.841 -10.200  17.488  0.00  0.00    +0.171 C 
ATOM     12  C   UNL     1      -5.289 -11.844  16.723  0.00  0.00    +0.130 C 
ATOM     13  C   UNL     1      -8.316 -10.052  17.188  0.00  0.00    +0.131 C 
ATOM     14  C   UNL     1      -5.902 -12.271  18.044  0.00  0.00    +0.185 C 
ATOM     15  C   UNL     1      -8.573 -11.211  16.241  0.00  0.00    +0.185 C 
BRANCH  13   5
ATOM      3  O   UNL     1     -10.730  -8.488  17.415  0.00  0.00    -0.253 OA
ATOM      5  N   UNL     1      -8.595  -8.787  16.553  0.00  0.00    -0.292 N 
ATOM      6  N   UNL     1      -9.799  -6.906  15.996  0.00  0.00    -0.300 N 
ATOM     17  C   UNL     1      -9.794  -8.096  16.719  0.00  0.00    +0.300 C 
ATOM     32  H   UNL     1      -7.860  -8.345  16.009  0.00  0.00    +0.151 HD
ATOM     33  H   UNL     1      -8.980  -6.664  15.446  0.00  0.00    +0.150 HD
BRANCH   6  18
ATOM     18  C   UNL     1     -10.920  -5.997  15.990  0.00  0.00    +0.102 C 
ATOM     23  C   UNL     1     -11.798  -6.208  14.773  0.00  0.00    +0.024 C 
ENDBRANCH   6  18
ENDBRANCH  13   5
ENDBRANCH   4  12
BRANCH  19  22
ATOM     22  C   UNL     1      -3.115 -11.017  12.329  0.00  0.00    +0.001 A 
ATOM     24  C   UNL     1      -3.437  -9.956  11.480  0.00  0.00    +0.012 A 
ATOM     25  C   UNL     1      -3.229 -12.331  11.870  0.00  0.00    +0.012 A 
ATOM     26  C   UNL     1      -3.983 -11.521   9.722  0.00  0.00    +0.029 A 
ATOM     27  C   UNL     1      -3.869 -10.208  10.178  0.00  0.00    +0.024 A 
ATOM     28  C   UNL     1      -3.662 -12.583  10.569  0.00  0.00    +0.024 A 
BRANCH  26   9
ATOM      9  N   UNL     1      -4.419 -11.777   8.405  0.00  0.00    -0.336 N 
ATOM     29  C   UNL     1      -5.017 -10.720   7.612  0.00  0.00    +0.129 C 
ATOM     30  C   UNL     1      -4.288 -13.101   7.833  0.00  0.00    +0.129 C 
ENDBRANCH  26   9
ENDBRANCH  19  22
TORSDOF 5
ENDMDL
MODEL 3
REMARK VINA RESULT:      -6.9     27.574     31.559
REMARK  Name = 11939796
REMARK  8 active torsions:
REMARK  status: ('A' for Active; 'I' for Inactive)
REMARK    1  A    between atoms: N_4  and  C_12
REMARK    2  A    between atoms: N_5  and  C_13
REMARK    3  A    between atoms: N_6  and  C_18
REMARK    4  A    between atoms: N_9  and  C_26
REMARK    5  A    between atoms: N_9  and  C_29
REMARK    6  A    between atoms: N_9  and  C_30
REMARK    7  A    between atoms: C_18  and  C_23
REMARK    8  A    between atoms: C_19  and  C_22
REMARK                            x       y       z     vdW  Elec       q    Type
REMARK                         _______ _______ _______ _____ _____    ______ ____
ROOT
ATOM      4  N   UNL     1      -3.267 -10.344  12.341  0.00  0.00    -0.306 N 
ATOM      7  N   UNL     1      -4.035 -10.698  14.531  0.00  0.00    -0.214 NA
ATOM      8  N   UNL     1      -1.695 -10.342  14.082  0.00  0.00    -0.223 NA
ATOM     16  C   UNL     1      -2.991 -10.465  13.692  0.00  0.00    +0.216 A 
ATOM     19  C   UNL     1      -3.729 -10.810  15.840  0.00  0.00    +0.076 A 
ATOM     20  C   UNL     1      -1.460 -10.465  15.404  0.00  0.00    +0.116 A 
ATOM     21  C   UNL     1      -2.448 -10.702  16.340  0.00  0.00    +0.048 A 
ATOM     31  H   UNL     1      -2.476 -10.223  11.720  0.00  0.00    +0.149 HD
ENDROOT
BRANCH   4  12
ATOM      1  O   UNL     1      -4.699  -8.835  10.049  0.00  0.00    -0.370 OA
ATOM      2  O   UNL     1      -5.830 -11.742  10.148  0.00  0.00    -0.370 OA
ATOM     10  C   UNL     1      -4.546 -11.174  10.458  0.00  0.00    +0.171 C 
ATOM     11  C   UNL     1      -4.284 -10.073   9.449  0.00  0.00    +0.171 C 
ATOM     12  C   UNL     1      -4.599 -10.454  11.784  0.00  0.00    +0.130 C 
ATOM     13  C   UNL     1      -5.186 -10.420   8.285  0.00  0.00    +0.131 C 
ATOM     14  C   UNL     1      -5.121  -9.082  11.398  0.00  0.00    +0.185 C 
ATOM     15  C   UNL     1      -6.352 -11.107   8.971  0.00  0.00    +0.185 C 
BRANCH  13   5
ATOM      3  O   UNL     1      -5.674 -10.658   5.451  0.00  0.00    -0.253 OA
ATOM      5  N   UNL     1      -4.525 -11.309   7.360  0.00  0.00    -0.292 N 
ATOM      6  N   UNL     1      -4.041 -12.302   5.341  0.00  0.00    -0.300 N 
ATOM     17  C   UNL     1      -4.825 -11.358   6.000  0.00  0.00    +0.300 C 
ATOM     32  H   UNL     1      -3.760 -11.883   7.703  0.00  0.00    +0.151 HD
ATOM     33  H   UNL     1      -3.365 -12.837   5.878  0.00  0.00    +0.150 HD
BRANCH   6  18
ATOM     18  C   UNL     1      -4.148 -12.557   3.924  0.00  0.00    +0.102 C 
ATOM     23  C   UNL     1      -2.799 -12.464   3.242  0.00  0.00    +0.024 C 
ENDBRANCH   6  18
ENDBRANCH  13   5
ENDBRANCH   4  12
BRANCH  19  22
ATOM     22  C   UNL     1      -4.852 -11.058  16.712  0.00  0.00    +0.001 A 
ATOM     24  C   UNL     1      -4.676 -11.058  18.098  0.00  0.00    +0.012 A 
ATOM     25  C   UNL     1      -6.117 -11.302  16.174  0.00  0.00    +0.012 A 
ATOM     26  C   UNL     1      -7.024 -11.542  18.402  0.00  0.00    +0.029 A 
ATOM     27  C   UNL     1      -5.760 -11.298  18.941  0.00  0.00    +0.024 A 
ATOM     28  C   UNL     1      -7.201 -11.543  17.018  0.00  0.00    +0.024 A 
BRANCH  26   9
ATOM      9  N   UNL     1      -8.121 -11.785  19.254  0.00  0.00    -0.336 N 
ATOM     29  C   UNL     1      -8.191 -13.007  20.029  0.00  0.00    +0.129 C 
ATOM     30  C   UNL     1      -9.198 -10.821  19.355  0.00  0.00    +0.129 C 
ENDBRANCH  26   9
ENDBRANCH  19  22
TORSDOF 5
ENDMDL
MODEL 4
REMARK VINA RESULT:      -6.6      3.207      3.586
REMARK  Name = 11939796
REMARK  8 active torsions:
REMARK  status: ('A' for Active; 'I' for Inactive)
REMARK    1  A    between atoms: N_4  and  C_12
REMARK    2  A    between atoms: N_5  and  C_13
REMARK    3  A    between atoms: N_6  and  C_18
REMARK    4  A    between atoms: N_9  and  C_26
REMARK    5  A    between atoms: N_9  and  C_29
REMARK    6  A    between atoms: N_9  and  C_30
REMARK    7  A    between atoms: C_18  and  C_23
REMARK    8  A    between atoms: C_19  and  C_22
REMARK                            x       y       z     vdW  Elec       q    Type
REMARK                         _______ _______ _______ _____ _____    ______ ____
ROOT
ATOM      4  N   UNL     1      10.674  10.618  23.167  0.00  0.00    -0.306 N 
ATOM      7  N   UNL     1      11.756  10.210  21.125  0.00  0.00    -0.214 NA
ATOM      8  N   UNL     1      10.435   8.499  22.189  0.00  0.00    -0.223 NA
ATOM     16  C   UNL     1      10.963   9.749  22.129  0.00  0.00    +0.216 A 
ATOM     19  C   UNL     1      12.017   9.337  20.130  0.00  0.00    +0.076 A 
ATOM     20  C   UNL     1      10.737   7.678  21.162  0.00  0.00    +0.116 A 
ATOM     21  C   UNL     1      11.531   8.046  20.095  0.00  0.00    +0.048 A 
ATOM     31  H   UNL     1      10.126  10.248  23.935  0.00  0.00    +0.149 HD
ENDROOT
BRANCH   4  12
ATOM      1  O   UNL     1      11.115  12.558  25.538  0.00  0.00    -0.370 OA
ATOM      2  O   UNL     1      13.257  13.190  23.359  0.00  0.00    -0.370 OA
ATOM     10  C   UNL     1      12.586  11.983  23.758  0.00  0.00    +0.171 C 
ATOM     11  C   UNL     1      12.425  12.034  25.264  0.00  0.00    +0.171 C 
ATOM     12  C   UNL     1      11.169  11.976  23.235  0.00  0.00    +0.130 C 
ATOM     13  C   UNL     1      13.486  13.013  25.715  0.00  0.00    +0.131 C 
ATOM     14  C   UNL     1      10.418  12.755  24.300  0.00  0.00    +0.185 C 
ATOM     15  C   UNL     1      13.582  13.956  24.528  0.00  0.00    +0.185 C 
BRANCH  13   5
ATOM      3  O   UNL     1      14.537  12.148  28.259  0.00  0.00    -0.253 OA
ATOM      5  N   UNL     1      14.743  12.347  25.955  0.00  0.00    -0.292 N 
ATOM      6  N   UNL     1      16.418  11.340  27.170  0.00  0.00    -0.300 N 
ATOM     17  C   UNL     1      15.174  11.962  27.224  0.00  0.00    +0.300 C 
ATOM     32  H   UNL     1      15.314  12.087  25.157  0.00  0.00    +0.151 HD
ATOM     33  H   UNL     1      16.873  11.230  26.268  0.00  0.00    +0.150 HD
BRANCH   6  18
ATOM     18  C   UNL     1      17.098  10.843  28.343  0.00  0.00    +0.102 C 
ATOM     23  C   UNL     1      18.500  10.375  28.014  0.00  0.00    +0.024 C 
ENDBRANCH   6  18
ENDBRANCH  13   5
ENDBRANCH   4  12
BRANCH  19  22
ATOM     22  C   UNL     1      12.861   9.845  19.075  0.00  0.00    +0.001 A 
ATOM     24  C   UNL     1      13.282   9.000  18.046  0.00  0.00    +0.012 A 
ATOM     25  C   UNL     1      13.262  11.183  19.081  0.00  0.00    +0.012 A 
ATOM     26  C   UNL     1      14.497  10.827  17.035  0.00  0.00    +0.029 A 
ATOM     27  C   UNL     1      14.098   9.491  17.027  0.00  0.00    +0.024 A 
ATOM     28  C   UNL     1      14.078  11.673  18.062  0.00  0.00    +0.024 A 
BRANCH  26   9
ATOM      9  N   UNL     1      15.321  11.324  16.004  0.00  0.00    -0.336 N 
ATOM     29  C   UNL     1      16.111  12.522  16.209  0.00  0.00    +0.129 C 
ATOM     30  C   UNL     1      15.379  10.651  14.722  0.00  0.00    +0.129 C 
ENDBRANCH  26   9
ENDBRANCH  19  22
TORSDOF 5
ENDMDL
MODEL 5
REMARK VINA RESULT:      -6.4     28.972     31.657
REMARK  Name = 11939796
REMARK  8 active torsions:
REMARK  status: ('A' for Active; 'I' for Inactive)
REMARK    1  A    between atoms: N_4  and  C_12
REMARK    2  A    between atoms: N_5  and  C_13
REMARK    3  A    between atoms: N_6  and  C_18
REMARK    4  A    between atoms: N_9  and  C_26
REMARK    5  A    between atoms: N_9  and  C_29
REMARK    6  A    between atoms: N_9  and  C_30
REMARK    7  A    between atoms: C_18  and  C_23
REMARK    8  A    between atoms: C_19  and  C_22
REMARK                            x       y       z     vdW  Elec       q    Type
REMARK                         _______ _______ _______ _____ _____    ______ ____
ROOT
ATOM      4  N   UNL     1      -6.909 -11.221  17.765  0.00  0.00    -0.306 N 
ATOM      7  N   UNL     1      -8.924 -10.030  17.592  0.00  0.00    -0.214 NA
ATOM      8  N   UNL     1      -8.427 -11.345  19.549  0.00  0.00    -0.223 NA
ATOM     16  C   UNL     1      -8.123 -10.855  18.319  0.00  0.00    +0.216 A 
ATOM     19  C   UNL     1     -10.100  -9.693  18.163  0.00  0.00    +0.076 A 
ATOM     20  C   UNL     1      -9.617 -10.969  20.059  0.00  0.00    +0.116 A 
ATOM     21  C   UNL     1     -10.503 -10.137  19.406  0.00  0.00    +0.048 A 
ATOM     31  H   UNL     1      -6.344 -11.877  18.292  0.00  0.00    +0.149 HD
ENDROOT
BRANCH   4  12
ATOM      1  O   UNL     1      -4.149 -10.279  16.728  0.00  0.00    -0.370 OA
ATOM      2  O   UNL     1      -5.643 -11.674  14.371  0.00  0.00    -0.370 OA
ATOM     10  C   UNL     1      -5.655 -11.868  15.795  0.00  0.00    +0.171 C 
ATOM     11  C   UNL     1      -4.240 -11.645  16.292  0.00  0.00    +0.171 C 
ATOM     12  C   UNL     1      -6.457 -10.776  16.464  0.00  0.00    +0.130 C 
ATOM     13  C   UNL     1      -3.381 -11.863  15.067  0.00  0.00    +0.131 C 
ATOM     14  C   UNL     1      -5.439  -9.661  16.616  0.00  0.00    +0.185 C 
ATOM     15  C   UNL     1      -4.298 -11.411  13.944  0.00  0.00    +0.185 C 
BRANCH  13   5
ATOM      3  O   UNL     1      -1.215 -12.944  13.497  0.00  0.00    -0.253 OA
ATOM      5  N   UNL     1      -3.022 -13.253  14.921  0.00  0.00    -0.292 N 
ATOM      6  N   UNL     1      -1.831 -15.075  14.175  0.00  0.00    -0.300 N 
ATOM     17  C   UNL     1      -1.954 -13.689  14.139  0.00  0.00    +0.300 C 
ATOM     32  H   UNL     1      -3.531 -13.944  15.464  0.00  0.00    +0.151 HD
ATOM     33  H   UNL     1      -2.490 -15.611  14.733  0.00  0.00    +0.150 HD
BRANCH   6  18
ATOM     18  C   UNL     1      -0.807 -15.791  13.452  0.00  0.00    +0.102 C 
ATOM     23  C   UNL     1      -1.293 -16.219  12.082  0.00  0.00    +0.024 C 
ENDBRANCH   6  18
ENDBRANCH  13   5
ENDBRANCH   4  12
BRANCH  19  22
ATOM     22  C   UNL     1     -10.935  -8.820  17.374  0.00  0.00    +0.001 A 
ATOM     24  C   UNL     1     -10.466  -7.562  16.988  0.00  0.00    +0.012 A 
ATOM     25  C   UNL     1     -12.216  -9.228  16.995  0.00  0.00    +0.012 A 
ATOM     26  C   UNL     1     -12.552  -7.126  15.850  0.00  0.00    +0.029 A 
ATOM     27  C   UNL     1     -11.273  -6.717  16.227  0.00  0.00    +0.024 A 
ATOM     28  C   UNL     1     -13.022  -8.383  16.234  0.00  0.00    +0.024 A 
BRANCH  26   9
ATOM      9  N   UNL     1     -13.368  -6.272  15.080  0.00  0.00    -0.336 N 
ATOM     29  C   UNL     1     -14.810  -6.415  15.106  0.00  0.00    +0.129 C 
ATOM     30  C   UNL     1     -12.775  -5.250  14.241  0.00  0.00    +0.129 C 
ENDBRANCH  26   9
ENDBRANCH  19  22
TORSDOF 5
ENDMDL
MODEL 6
REMARK VINA RESULT:      -6.4     29.544     32.328
REMARK  Name = 11939796
REMARK  8 active torsions:
REMARK  status: ('A' for Active; 'I' for Inactive)
REMARK    1  A    between atoms: N_4  and  C_12
REMARK    2  A    between atoms: N_5  and  C_13
REMARK    3  A    between atoms: N_6  and  C_18
REMARK    4  A    between atoms: N_9  and  C_26
REMARK    5  A    between atoms: N_9  and  C_29
REMARK    6  A    between atoms: N_9  and  C_30
REMARK    7  A    between atoms: C_18  and  C_23
REMARK    8  A    between atoms: C_19  and  C_22
REMARK                            x       y       z     vdW  Elec       q    Type
REMARK                         _______ _______ _______ _____ _____    ______ ____
ROOT
ATOM      4  N   UNL     1      -9.143  -8.284  16.026  0.00  0.00    -0.306 N 
ATOM      7  N   UNL     1      -8.998 -10.041  17.576  0.00  0.00    -0.214 NA
ATOM      8  N   UNL     1      -7.031  -9.208  16.461  0.00  0.00    -0.223 NA
ATOM     16  C   UNL     1      -8.367  -9.205  16.708  0.00  0.00    +0.216 A 
ATOM     19  C   UNL     1      -8.212 -10.926  18.223  0.00  0.00    +0.076 A 
ATOM     20  C   UNL     1      -6.305 -10.118  17.142  0.00  0.00    +0.116 A 
ATOM     21  C   UNL     1      -6.846 -11.011  18.044  0.00  0.00    +0.048 A 
ATOM     31  H   UNL     1      -8.670  -7.703  15.344  0.00  0.00    +0.149 HD
ENDROOT
BRANCH   4  12
ATOM      1  O   UNL     1     -11.023  -5.838  16.278  0.00  0.00    -0.370 OA
ATOM      2  O   UNL     1     -12.601  -8.129  14.865  0.00  0.00    -0.370 OA
ATOM     10  C   UNL     1     -11.212  -7.756  14.882  0.00  0.00    +0.171 C 
ATOM     11  C   UNL     1     -11.153  -6.241  14.905  0.00  0.00    +0.171 C 
ATOM     12  C   UNL     1     -10.577  -8.170  16.188  0.00  0.00    +0.130 C 
ATOM     13  C   UNL     1     -12.497  -5.812  14.358  0.00  0.00    +0.131 C 
ATOM     14  C   UNL     1     -10.910  -7.006  17.104  0.00  0.00    +0.185 C 
ATOM     15  C   UNL     1     -13.406  -6.942  14.808  0.00  0.00    +0.185 C 
BRANCH  13   5
ATOM      3  O   UNL     1     -12.283  -3.397  12.794  0.00  0.00    -0.253 OA
ATOM      5  N   UNL     1     -12.465  -5.708  12.919  0.00  0.00    -0.292 N 
ATOM      6  N   UNL     1     -12.351  -4.682  10.863  0.00  0.00    -0.300 N 
ATOM     17  C   UNL     1     -12.359  -4.495  12.243  0.00  0.00    +0.300 C 
ATOM     32  H   UNL     1     -12.456  -6.564  12.372  0.00  0.00    +0.151 HD
ATOM     33  H   UNL     1     -12.420  -5.626  10.497  0.00  0.00    +0.150 HD
BRANCH   6  18
ATOM     18  C   UNL     1     -12.251  -3.589   9.925  0.00  0.00    +0.102 C 
ATOM     23  C   UNL     1     -10.906  -3.579   9.228  0.00  0.00    +0.024 C 
ENDBRANCH   6  18
ENDBRANCH  13   5
ENDBRANCH   4  12
BRANCH  19  22
ATOM     22  C   UNL     1      -8.901 -11.804  19.137  0.00  0.00    +0.001 A 
ATOM     24  C   UNL     1     -10.189 -11.488  19.575  0.00  0.00    +0.012 A 
ATOM     25  C   UNL     1      -8.283 -12.972  19.589  0.00  0.00    +0.012 A 
ATOM     26  C   UNL     1     -10.236 -13.502  20.909  0.00  0.00    +0.029 A 
ATOM     27  C   UNL     1     -10.856 -12.336  20.459  0.00  0.00    +0.024 A 
ATOM     28  C   UNL     1      -8.949 -13.819  20.473  0.00  0.00    +0.024 A 
BRANCH  26   9
ATOM      9  N   UNL     1     -10.910 -14.360  21.803  0.00  0.00    -0.336 N 
ATOM     29  C   UNL     1     -10.409 -15.697  22.055  0.00  0.00    +0.129 C 
ATOM     30  C   UNL     1     -12.119 -13.921  22.470  0.00  0.00    +0.129 C 
ENDBRANCH  26   9
ENDBRANCH  19  22
TORSDOF 5
ENDMDL
MODEL 7
REMARK VINA RESULT:      -6.4     28.657     31.205
REMARK  Name = 11939796
REMARK  8 active torsions:
REMARK  status: ('A' for Active; 'I' for Inactive)
REMARK    1  A    between atoms: N_4  and  C_12
REMARK    2  A    between atoms: N_5  and  C_13
REMARK    3  A    between atoms: N_6  and  C_18
REMARK    4  A    between atoms: N_9  and  C_26
REMARK    5  A    between atoms: N_9  and  C_29
REMARK    6  A    between atoms: N_9  and  C_30
REMARK    7  A    between atoms: C_18  and  C_23
REMARK    8  A    between atoms: C_19  and  C_22
REMARK                            x       y       z     vdW  Elec       q    Type
REMARK                         _______ _______ _______ _____ _____    ______ ____
ROOT
ATOM      4  N   UNL     1      -4.751  -9.747  10.920  0.00  0.00    -0.306 N 
ATOM      7  N   UNL     1      -5.218 -10.184   8.662  0.00  0.00    -0.214 NA
ATOM      8  N   UNL     1      -6.505  -8.568   9.901  0.00  0.00    -0.223 NA
ATOM     16  C   UNL     1      -5.514  -9.492   9.794  0.00  0.00    +0.216 A 
ATOM     19  C   UNL     1      -5.982  -9.911   7.584  0.00  0.00    +0.076 A 
ATOM     20  C   UNL     1      -7.229  -8.344   8.786  0.00  0.00    +0.116 A 
ATOM     21  C   UNL     1      -7.011  -8.992   7.587  0.00  0.00    +0.048 A 
ATOM     31  H   UNL     1      -5.014  -9.264  11.771  0.00  0.00    +0.149 HD
ENDROOT
BRANCH   4  12
ATOM      1  O   UNL     1      -2.103  -9.845  12.520  0.00  0.00    -0.370 OA
ATOM      2  O   UNL     1      -3.047 -12.778  12.031  0.00  0.00    -0.370 OA
ATOM     10  C   UNL     1      -3.748 -11.536  12.209  0.00  0.00    +0.171 C 
ATOM     11  C   UNL     1      -2.980 -10.729  13.238  0.00  0.00    +0.171 C 
ATOM     12  C   UNL     1      -3.666 -10.704  10.951  0.00  0.00    +0.130 C 
ATOM     13  C   UNL     1      -2.177 -11.764  13.993  0.00  0.00    +0.131 C 
ATOM     14  C   UNL     1      -2.338  -9.987  11.112  0.00  0.00    +0.185 C 
ATOM     15  C   UNL     1      -1.930 -12.821  12.931  0.00  0.00    +0.185 C 
BRANCH  13   5
ATOM      3  O   UNL     1      -3.002 -10.365  16.377  0.00  0.00    -0.253 OA
ATOM      5  N   UNL     1      -2.930 -12.302  15.100  0.00  0.00    -0.292 N 
ATOM      6  N   UNL     1      -4.008 -12.314  17.133  0.00  0.00    -0.300 N 
ATOM     17  C   UNL     1      -3.287 -11.551  16.218  0.00  0.00    +0.300 C 
ATOM     32  H   UNL     1      -3.271 -13.257  15.036  0.00  0.00    +0.151 HD
ATOM     33  H   UNL     1      -4.196 -13.289  16.918  0.00  0.00    +0.150 HD
BRANCH   6  18
ATOM     18  C   UNL     1      -4.502 -11.782  18.381  0.00  0.00    +0.102 C 
ATOM     23  C   UNL     1      -3.665 -12.252  19.553  0.00  0.00    +0.024 C 
ENDBRANCH   6  18
ENDBRANCH  13   5
ENDBRANCH   4  12
BRANCH  19  22
ATOM     22  C   UNL     1      -5.651 -10.658   6.394  0.00  0.00    +0.001 A 
ATOM     24  C   UNL     1      -4.476 -11.410   6.343  0.00  0.00    +0.012 A 
ATOM     25  C   UNL     1      -6.505 -10.630   5.289  0.00  0.00    +0.012 A 
ATOM     26  C   UNL     1      -5.010 -12.102   4.090  0.00  0.00    +0.029 A 
ATOM     27  C   UNL     1      -4.155 -12.131   5.193  0.00  0.00    +0.024 A 
ATOM     28  C   UNL     1      -6.185 -11.352   4.140  0.00  0.00    +0.024 A 
BRANCH  26   9
ATOM      9  N   UNL     1      -4.687 -12.832   2.927  0.00  0.00    -0.336 N 
ATOM     29  C   UNL     1      -3.316 -13.220   2.661  0.00  0.00    +0.129 C 
ATOM     30  C   UNL     1      -5.720 -13.191   1.977  0.00  0.00    +0.129 C 
ENDBRANCH  26   9
ENDBRANCH  19  22
TORSDOF 5
ENDMDL
MODEL 8
REMARK VINA RESULT:      -6.2     27.491     30.664
REMARK  Name = 11939796
REMARK  8 active torsions:
REMARK  status: ('A' for Active; 'I' for Inactive)
REMARK    1  A    between atoms: N_4  and  C_12
REMARK    2  A    between atoms: N_5  and  C_13
REMARK    3  A    between atoms: N_6  and  C_18
REMARK    4  A    between atoms: N_9  and  C_26
REMARK    5  A    between atoms: N_9  and  C_29
REMARK    6  A    between atoms: N_9  and  C_30
REMARK    7  A    between atoms: C_18  and  C_23
REMARK    8  A    between atoms: C_19  and  C_22
REMARK                            x       y       z     vdW  Elec       q    Type
REMARK                         _______ _______ _______ _____ _____    ______ ____
ROOT
ATOM      4  N   UNL     1      -3.579 -12.048  16.165  0.00  0.00    -0.306 N 
ATOM      7  N   UNL     1      -3.393 -11.345  13.934  0.00  0.00    -0.214 NA
ATOM      8  N   UNL     1      -1.778 -10.661  15.586  0.00  0.00    -0.223 NA
ATOM     16  C   UNL     1      -2.896 -11.330  15.199  0.00  0.00    +0.216 A 
ATOM     19  C   UNL     1      -2.702 -10.634  13.018  0.00  0.00    +0.076 A 
ATOM     20  C   UNL     1      -1.137  -9.971  14.621  0.00  0.00    +0.116 A 
ATOM     21  C   UNL     1      -1.557  -9.921  13.307  0.00  0.00    +0.048 A 
ATOM     31  H   UNL     1      -3.230 -11.987  17.114  0.00  0.00    +0.149 HD
ENDROOT
BRANCH   4  12
ATOM      1  O   UNL     1      -5.364 -13.830  17.959  0.00  0.00    -0.370 OA
ATOM      2  O   UNL     1      -7.182 -12.509  15.795  0.00  0.00    -0.370 OA
ATOM     10  C   UNL     1      -5.983 -12.085  16.465  0.00  0.00    +0.171 C 
ATOM     11  C   UNL     1      -6.068 -12.579  17.896  0.00  0.00    +0.171 C 
ATOM     12  C   UNL     1      -4.783 -12.805  15.897  0.00  0.00    +0.130 C 
ATOM     13  C   UNL     1      -7.547 -12.798  18.122  0.00  0.00    +0.131 C 
ATOM     14  C   UNL     1      -4.772 -14.104  16.681  0.00  0.00    +0.185 C 
ATOM     15  C   UNL     1      -8.035 -13.178  16.736  0.00  0.00    +0.185 C 
BRANCH  13   5
ATOM      3  O   UNL     1      -9.940 -12.607  19.723  0.00  0.00    -0.253 OA
ATOM      5  N   UNL     1      -8.188 -11.592  18.589  0.00  0.00    -0.292 N 
ATOM      6  N   UNL     1      -9.750 -10.296  19.674  0.00  0.00    -0.300 N 
ATOM     17  C   UNL     1      -9.347 -11.592  19.362  0.00  0.00    +0.300 C 
ATOM     32  H   UNL     1      -7.739 -10.701  18.400  0.00  0.00    +0.151 HD
ATOM     33  H   UNL     1      -9.197  -9.516  19.330  0.00  0.00    +0.150 HD
BRANCH   6  18
ATOM     18  C   UNL     1     -10.923 -10.008  20.465  0.00  0.00    +0.102 C 
ATOM     23  C   UNL     1     -12.165  -9.921  19.601  0.00  0.00    +0.024 C 
ENDBRANCH   6  18
ENDBRANCH  13   5
ENDBRANCH   4  12
BRANCH  19  22
ATOM     22  C   UNL     1      -3.247 -10.662  11.683  0.00  0.00    +0.001 A 
ATOM     24  C   UNL     1      -3.843 -11.827  11.193  0.00  0.00    +0.012 A 
ATOM     25  C   UNL     1      -3.180  -9.526  10.874  0.00  0.00    +0.012 A 
ATOM     26  C   UNL     1      -4.301 -10.719   9.096  0.00  0.00    +0.029 A 
ATOM     27  C   UNL     1      -4.369 -11.855   9.902  0.00  0.00    +0.024 A 
ATOM     28  C   UNL     1      -3.707  -9.554   9.583  0.00  0.00    +0.024 A 
BRANCH  26   9
ATOM      9  N   UNL     1      -4.834 -10.746   7.790  0.00  0.00    -0.336 N 
ATOM     29  C   UNL     1      -5.775  -9.731   7.360  0.00  0.00    +0.129 C 
ATOM     30  C   UNL     1      -4.457 -11.797   6.866  0.00  0.00    +0.129 C 
ENDBRANCH  26   9
ENDBRANCH  19  22
TORSDOF 5
ENDMDL
MODEL 9
REMARK VINA RESULT:      -6.1     30.272     34.429
REMARK  Name = 11939796
REMARK  8 active torsions:
REMARK  status: ('A' for Active; 'I' for Inactive)
REMARK    1  A    between atoms: N_4  and  C_12
REMARK    2  A    between atoms: N_5  and  C_13
REMARK    3  A    between atoms: N_6  and  C_18
REMARK    4  A    between atoms: N_9  and  C_26
REMARK    5  A    between atoms: N_9  and  C_29
REMARK    6  A    between atoms: N_9  and  C_30
REMARK    7  A    between atoms: C_18  and  C_23
REMARK    8  A    between atoms: C_19  and  C_22
REMARK                            x       y       z     vdW  Elec       q    Type
REMARK                         _______ _______ _______ _____ _____    ______ ____
ROOT
ATOM      4  N   UNL     1      -4.764 -12.071   4.622  0.00  0.00    -0.306 N 
ATOM      7  N   UNL     1      -4.509 -11.437   6.868  0.00  0.00    -0.214 NA
ATOM      8  N   UNL     1      -6.084 -10.310   5.434  0.00  0.00    -0.223 NA
ATOM     16  C   UNL     1      -5.130 -11.248   5.673  0.00  0.00    +0.216 A 
ATOM     19  C   UNL     1      -4.890 -10.618   7.869  0.00  0.00    +0.076 A 
ATOM     20  C   UNL     1      -6.417  -9.525   6.479  0.00  0.00    +0.116 A 
ATOM     21  C   UNL     1      -5.848  -9.634   7.732  0.00  0.00    +0.048 A 
ATOM     31  H   UNL     1      -5.195 -11.887   3.724  0.00  0.00    +0.149 HD
ENDROOT
BRANCH   4  12
ATOM      1  O   UNL     1      -4.297 -14.690   3.040  0.00  0.00    -0.370 OA
ATOM      2  O   UNL     1      -1.521 -13.619   3.979  0.00  0.00    -0.370 OA
ATOM     10  C   UNL     1      -2.753 -12.974   3.616  0.00  0.00    +0.171 C 
ATOM     11  C   UNL     1      -3.356 -13.764   2.472  0.00  0.00    +0.171 C 
ATOM     12  C   UNL     1      -3.763 -13.110   4.731  0.00  0.00    +0.130 C 
ATOM     13  C   UNL     1      -2.180 -14.508   1.880  0.00  0.00    +0.131 C 
ATOM     14  C   UNL     1      -4.383 -14.468   4.455  0.00  0.00    +0.185 C 
ATOM     15  C   UNL     1      -1.288 -14.721   3.089  0.00  0.00    +0.185 C 
BRANCH  13   5
ATOM      3  O   UNL     1      -1.251 -15.403  -0.702  0.00  0.00    -0.253 OA
ATOM      5  N   UNL     1      -1.515 -13.717   0.872  0.00  0.00    -0.292 N 
ATOM      6  N   UNL     1      -0.487 -13.255  -1.134  0.00  0.00    -0.300 N 
ATOM     17  C   UNL     1      -1.099 -14.233  -0.353  0.00  0.00    +0.300 C 
ATOM     32  H   UNL     1      -1.401 -12.721   1.036  0.00  0.00    +0.151 HD
ATOM     33  H   UNL     1      -0.404 -12.314  -0.763  0.00  0.00    +0.150 HD
BRANCH   6  18
ATOM     18  C   UNL     1       0.039 -13.520  -2.452  0.00  0.00    +0.102 C 
ATOM     23  C   UNL     1       1.535 -13.291  -2.508  0.00  0.00    +0.024 C 
ENDBRANCH   6  18
ENDBRANCH  13   5
ENDBRANCH   4  12
BRANCH  19  22
ATOM     22  C   UNL     1      -4.218 -10.835   9.127  0.00  0.00    +0.001 A 
ATOM     24  C   UNL     1      -4.079 -12.129   9.634  0.00  0.00    +0.012 A 
ATOM     25  C   UNL     1      -3.703  -9.751   9.843  0.00  0.00    +0.012 A 
ATOM     26  C   UNL     1      -2.918 -11.255  11.564  0.00  0.00    +0.029 A 
ATOM     27  C   UNL     1      -3.430 -12.339  10.851  0.00  0.00    +0.024 A 
ATOM     28  C   UNL     1      -3.054  -9.961  11.059  0.00  0.00    +0.024 A 
BRANCH  26   9
ATOM      9  N   UNL     1      -2.260 -11.467  12.794  0.00  0.00    -0.336 N 
ATOM     29  C   UNL     1      -1.791 -12.789  13.157  0.00  0.00    +0.129 C 
ATOM     30  C   UNL     1      -2.057 -10.367  13.716  0.00  0.00    +0.129 C 
ENDBRANCH  26   9
ENDBRANCH  19  22
TORSDOF 5
ENDMDL
MODEL 10
REMARK VINA RESULT:      -6.1     27.349     31.155
REMARK  Name = 11939796
REMARK  8 active torsions:
REMARK  status: ('A' for Active; 'I' for Inactive)
REMARK    1  A    between atoms: N_4  and  C_12
REMARK    2  A    between atoms: N_5  and  C_13
REMARK    3  A    between atoms: N_6  and  C_18
REMARK    4  A    between atoms: N_9  and  C_26
REMARK    5  A    between atoms: N_9  and  C_29
REMARK    6  A    between atoms: N_9  and  C_30
REMARK    7  A    between atoms: C_18  and  C_23
REMARK    8  A    between atoms: C_19  and  C_22
REMARK                            x       y       z     vdW  Elec       q    Type
REMARK                         _______ _______ _______ _____ _____    ______ ____
ROOT
ATOM      4  N   UNL     1      -9.971  -9.257  18.129  0.00  0.00    -0.306 N 
ATOM      7  N   UNL     1      -7.816 -10.084  17.701  0.00  0.00    -0.214 NA
ATOM      8  N   UNL     1      -9.184 -11.034  19.442  0.00  0.00    -0.223 NA
ATOM     16  C   UNL     1      -8.960 -10.152  18.433  0.00  0.00    +0.216 A 
ATOM     19  C   UNL     1      -6.853 -10.971  18.025  0.00  0.00    +0.076 A 
ATOM     20  C   UNL     1      -8.179 -11.892  19.713  0.00  0.00    +0.116 A 
ATOM     21  C   UNL     1      -6.979 -11.907  19.031  0.00  0.00    +0.048 A 
ATOM     31  H   UNL     1     -10.797  -9.282  18.715  0.00  0.00    +0.149 HD
ENDROOT
BRANCH   4  12
ATOM      1  O   UNL     1     -11.241  -9.059  15.314  0.00  0.00    -0.370 OA
ATOM      2  O   UNL     1     -10.864  -6.162  16.411  0.00  0.00    -0.370 OA
ATOM     10  C   UNL     1     -11.128  -7.427  17.042  0.00  0.00    +0.171 C 
ATOM     11  C   UNL     1     -12.057  -8.201  16.128  0.00  0.00    +0.171 C 
ATOM     12  C   UNL     1      -9.870  -8.262  17.083  0.00  0.00    +0.130 C 
ATOM     13  C   UNL     1     -12.709  -7.135  15.277  0.00  0.00    +0.131 C 
ATOM     14  C   UNL     1      -9.871  -8.932  15.721  0.00  0.00    +0.185 C 
ATOM     15  C   UNL     1     -11.624  -6.076  15.196  0.00  0.00    +0.185 C 
BRANCH  13   5
ATOM      3  O   UNL     1     -15.349  -8.300  15.236  0.00  0.00    -0.253 OA
ATOM      5  N   UNL     1     -13.898  -6.617  15.910  0.00  0.00    -0.292 N 
ATOM      6  N   UNL     1     -16.111  -6.537  16.536  0.00  0.00    -0.300 N 
ATOM     17  C   UNL     1     -15.139  -7.249  15.839  0.00  0.00    +0.300 C 
ATOM     32  H   UNL     1     -13.817  -5.786  16.488  0.00  0.00    +0.151 HD
ATOM     33  H   UNL     1     -15.846  -5.675  17.004  0.00  0.00    +0.150 HD
BRANCH   6  18
ATOM     18  C   UNL     1     -17.486  -6.968  16.624  0.00  0.00    +0.102 C 
ATOM     23  C   UNL     1     -18.315  -6.012  17.457  0.00  0.00    +0.024 C 
ENDBRANCH   6  18
ENDBRANCH  13   5
ENDBRANCH   4  12
BRANCH  19  22
ATOM     22  C   UNL     1      -5.647 -10.880  17.237  0.00  0.00    +0.001 A 
ATOM     24  C   UNL     1      -4.405 -11.129  17.825  0.00  0.00    +0.012 A 
ATOM     25  C   UNL     1      -5.718 -10.543  15.883  0.00  0.00    +0.012 A 
ATOM     26  C   UNL     1      -3.313 -10.703  15.712  0.00  0.00    +0.029 A 
ATOM     27  C   UNL     1      -3.240 -11.041  17.064  0.00  0.00    +0.024 A 
ATOM     28  C   UNL     1      -4.553 -10.454  15.122  0.00  0.00    +0.024 A 
BRANCH  26   9
ATOM      9  N   UNL     1      -2.135 -10.614  14.942  0.00  0.00    -0.336 N 
ATOM     29  C   UNL     1      -2.202 -10.622  13.494  0.00  0.00    +0.129 C 
ATOM     30  C   UNL     1      -0.841 -10.528  15.588  0.00  0.00    +0.129 C 
ENDBRANCH  26   9
ENDBRANCH  19  22
TORSDOF 5
ENDMDL
