MODEL 1
REMARK VINA RESULT:      -7.1      0.000      0.000
REMARK  Name = 11867148
REMARK  5 active torsions:
REMARK  status: ('A' for Active; 'I' for Inactive)
REMARK    1  A    between atoms: S_1  and  N_8
REMARK    2  A    between atoms: S_1  and  C_24
REMARK    3  A    between atoms: N_8  and  C_19
REMARK    4  A    between atoms: C_18  and  C_21
REMARK    5  A    between atoms: C_24  and  C_28
REMARK                            x       y       z     vdW  Elec       q    Type
REMARK                         _______ _______ _______ _____ _____    ______ ____
ROOT
ATOM      2  O   UNL     1      13.132   7.868   2.777  0.00  0.00    -0.266 OA
ATOM      3  O   UNL     1      13.747   6.318  -2.129  0.00  0.00    -0.270 OA
ATOM      6  N   UNL     1      13.722   4.408  -0.778  0.00  0.00    -0.297 N 
ATOM      7  N   UNL     1      13.168   5.627   2.097  0.00  0.00    -0.310 N 
ATOM      9  C   UNL     1      15.264   4.482   1.174  0.00  0.00    +0.027 C 
ATOM     10  C   UNL     1      13.152   3.226   1.330  0.00  0.00    +0.054 C 
ATOM     11  C   UNL     1      14.631   3.204   1.713  0.00  0.00    +0.018 C 
ATOM     12  C   UNL     1      15.114   4.551  -0.357  0.00  0.00    +0.113 C 
ATOM     13  C   UNL     1      14.619   5.686   1.872  0.00  0.00    +0.130 C 
ATOM     14  C   UNL     1      13.016   3.249  -0.204  0.00  0.00    +0.117 C 
ATOM     15  C   UNL     1      12.452   4.434   1.924  0.00  0.00    +0.027 A 
ATOM     16  C   UNL     1      11.147   4.371   2.244  0.00  0.00    +0.024 A 
ATOM     17  C   UNL     1      12.556   6.798   2.590  0.00  0.00    +0.274 A 
ATOM     18  C   UNL     1      13.164   5.349  -1.646  0.00  0.00    +0.247 C 
ATOM     19  C   UNL     1      11.110   6.672   2.901  0.00  0.00    +0.112 A 
ATOM     20  C   UNL     1      10.450   5.523   2.748  0.00  0.00    +0.031 A 
ENDROOT
BRANCH  18  21
ATOM     21  C   UNL     1      11.752   5.196  -2.011  0.00  0.00    +0.037 A 
ATOM     22  C   UNL     1      11.407   4.509  -3.172  0.00  0.00    +0.013 A 
ATOM     23  C   UNL     1      10.763   5.736  -1.193  0.00  0.00    +0.013 A 
ATOM     25  C   UNL     1      10.064   4.362  -3.519  0.00  0.00    +0.001 A 
ATOM     26  C   UNL     1       9.419   5.589  -1.541  0.00  0.00    +0.001 A 
ATOM     27  C   UNL     1       9.070   4.902  -2.703  0.00  0.00    +0.000 A 
ENDBRANCH  18  21
BRANCH  19   8
ATOM      8  N   UNL     1      10.390   7.779   3.385  0.00  0.00    -0.215 N 
ATOM     34  H   UNL     1       9.425   7.800   3.028  0.00  0.00    +0.173 HD
BRANCH   8   1
ATOM      1  S   UNL     1      10.504   8.047   5.066  0.00  0.00    +0.047 S 
ATOM      4  O   UNL     1      11.545   7.205   5.626  0.00  0.00    -0.155 OA
ATOM      5  O   UNL     1      10.470   9.473   5.328  0.00  0.00    -0.155 OA
BRANCH   1  24
ATOM     24  C   UNL     1       8.945   7.370   5.580  0.00  0.00    +0.223 C 
BRANCH  24  28
ATOM     28  C   UNL     1       9.224   6.304   6.594  0.00  0.00    -0.025 A 
ATOM     29  C   UNL     1       9.533   5.013   6.174  0.00  0.00    +0.005 A 
ATOM     30  C   UNL     1       9.171   6.609   7.951  0.00  0.00    +0.005 A 
ATOM     31  C   UNL     1       9.793   4.020   7.119  0.00  0.00    +0.000 A 
ATOM     32  C   UNL     1       9.431   5.616   8.896  0.00  0.00    +0.000 A 
ATOM     33  C   UNL     1       9.742   4.322   8.479  0.00  0.00    +0.000 A 
ENDBRANCH  24  28
ENDBRANCH   1  24
ENDBRANCH   8   1
ENDBRANCH  19   8
TORSDOF 5
ENDMDL
MODEL 2
REMARK VINA RESULT:      -7.0      2.541      7.449
REMARK  Name = 11867148
REMARK  5 active torsions:
REMARK  status: ('A' for Active; 'I' for Inactive)
REMARK    1  A    between atoms: S_1  and  N_8
REMARK    2  A    between atoms: S_1  and  C_24
REMARK    3  A    between atoms: N_8  and  C_19
REMARK    4  A    between atoms: C_18  and  C_21
REMARK    5  A    between atoms: C_24  and  C_28
REMARK                            x       y       z     vdW  Elec       q    Type
REMARK                         _______ _______ _______ _____ _____    ______ ____
ROOT
ATOM      2  O   UNL     1       8.407   7.994   2.842  0.00  0.00    -0.266 OA
ATOM      3  O   UNL     1      11.827  10.298   5.980  0.00  0.00    -0.270 OA
ATOM      6  N   UNL     1      11.133   8.318   7.016  0.00  0.00    -0.297 N 
ATOM      7  N   UNL     1       9.211   7.056   4.832  0.00  0.00    -0.310 N 
ATOM      9  C   UNL     1       8.667   8.009   7.145  0.00  0.00    +0.027 C 
ATOM     10  C   UNL     1      10.137   6.045   6.947  0.00  0.00    +0.054 C 
ATOM     11  C   UNL     1       8.879   6.579   7.629  0.00  0.00    +0.018 C 
ATOM     12  C   UNL     1       9.879   8.885   7.510  0.00  0.00    +0.113 C 
ATOM     13  C   UNL     1       8.405   7.987   5.634  0.00  0.00    +0.130 C 
ATOM     14  C   UNL     1      11.350   6.902   7.358  0.00  0.00    +0.117 C 
ATOM     15  C   UNL     1       9.989   6.058   5.437  0.00  0.00    +0.027 A 
ATOM     16  C   UNL     1      10.629   5.144   4.686  0.00  0.00    +0.024 A 
ATOM     17  C   UNL     1       9.084   7.152   3.431  0.00  0.00    +0.274 A 
ATOM     18  C   UNL     1      12.001   9.116   6.267  0.00  0.00    +0.247 C 
ATOM     19  C   UNL     1       9.833   6.132   2.657  0.00  0.00    +0.112 A 
ATOM     20  C   UNL     1      10.552   5.178   3.251  0.00  0.00    +0.031 A 
ENDROOT
BRANCH  18  21
ATOM     21  C   UNL     1      13.229   8.498   5.753  0.00  0.00    +0.037 A 
ATOM     22  C   UNL     1      13.208   7.826   4.534  0.00  0.00    +0.013 A 
ATOM     23  C   UNL     1      14.410   8.590   6.486  0.00  0.00    +0.013 A 
ATOM     25  C   UNL     1      14.374   7.240   4.043  0.00  0.00    +0.001 A 
ATOM     26  C   UNL     1      15.577   8.003   5.995  0.00  0.00    +0.001 A 
ATOM     27  C   UNL     1      15.559   7.328   4.774  0.00  0.00    +0.000 A 
ENDBRANCH  18  21
BRANCH  19   8
ATOM      8  N   UNL     1       9.793   6.138   1.251  0.00  0.00    -0.215 N 
ATOM     34  H   UNL     1       8.846   6.325   0.891  0.00  0.00    +0.173 HD
BRANCH   8   1
ATOM      1  S   UNL     1      11.008   7.060   0.488  0.00  0.00    +0.047 S 
ATOM      4  O   UNL     1      10.398   8.056  -0.374  0.00  0.00    -0.155 OA
ATOM      5  O   UNL     1      12.015   7.429   1.465  0.00  0.00    -0.155 OA
BRANCH   1  24
ATOM     24  C   UNL     1      11.711   5.813  -0.563  0.00  0.00    +0.223 C 
BRANCH  24  28
ATOM     28  C   UNL     1      12.746   5.078   0.232  0.00  0.00    -0.025 A 
ATOM     29  C   UNL     1      12.409   3.889   0.872  0.00  0.00    +0.005 A 
ATOM     30  C   UNL     1      14.037   5.588   0.326  0.00  0.00    +0.005 A 
ATOM     31  C   UNL     1      13.373   3.203   1.612  0.00  0.00    +0.000 A 
ATOM     32  C   UNL     1      15.001   4.903   1.066  0.00  0.00    +0.000 A 
ATOM     33  C   UNL     1      14.668   3.711   1.709  0.00  0.00    +0.000 A 
ENDBRANCH  24  28
ENDBRANCH   1  24
ENDBRANCH   8   1
ENDBRANCH  19   8
TORSDOF 5
ENDMDL
MODEL 3
REMARK VINA RESULT:      -6.8      2.760      4.163
REMARK  Name = 11867148
REMARK  5 active torsions:
REMARK  status: ('A' for Active; 'I' for Inactive)
REMARK    1  A    between atoms: S_1  and  N_8
REMARK    2  A    between atoms: S_1  and  C_24
REMARK    3  A    between atoms: N_8  and  C_19
REMARK    4  A    between atoms: C_18  and  C_21
REMARK    5  A    between atoms: C_24  and  C_28
REMARK                            x       y       z     vdW  Elec       q    Type
REMARK                         _______ _______ _______ _____ _____    ______ ____
ROOT
ATOM      2  O   UNL     1      12.061  10.747   4.808  0.00  0.00    -0.266 OA
ATOM      3  O   UNL     1      13.456   7.849   0.746  0.00  0.00    -0.270 OA
ATOM      6  N   UNL     1      14.967   7.415   2.480  0.00  0.00    -0.297 N 
ATOM      7  N   UNL     1      13.787   9.163   4.849  0.00  0.00    -0.310 N 
ATOM      9  C   UNL     1      15.965   9.438   3.531  0.00  0.00    +0.027 C 
ATOM     10  C   UNL     1      15.599   7.411   4.881  0.00  0.00    +0.054 C 
ATOM     11  C   UNL     1      16.570   8.563   4.623  0.00  0.00    +0.018 C 
ATOM     12  C   UNL     1      15.756   8.622   2.242  0.00  0.00    +0.113 C 
ATOM     13  C   UNL     1      14.654  10.041   4.051  0.00  0.00    +0.130 C 
ATOM     14  C   UNL     1      15.435   6.577   3.596  0.00  0.00    +0.117 C 
ATOM     15  C   UNL     1      14.245   7.929   5.331  0.00  0.00    +0.027 A 
ATOM     16  C   UNL     1      13.478   7.191   6.154  0.00  0.00    +0.024 A 
ATOM     17  C   UNL     1      12.514   9.667   5.186  0.00  0.00    +0.274 A 
ATOM     18  C   UNL     1      13.853   7.153   1.679  0.00  0.00    +0.247 C 
ATOM     19  C   UNL     1      11.705   8.796   6.076  0.00  0.00    +0.112 A 
ATOM     20  C   UNL     1      12.166   7.635   6.540  0.00  0.00    +0.031 A 
ENDROOT
BRANCH  18  21
ATOM     21  C   UNL     1      13.060   5.955   1.976  0.00  0.00    +0.037 A 
ATOM     22  C   UNL     1      13.386   4.742   1.376  0.00  0.00    +0.013 A 
ATOM     23  C   UNL     1      11.986   6.037   2.859  0.00  0.00    +0.013 A 
ATOM     25  C   UNL     1      12.633   3.603   1.659  0.00  0.00    +0.001 A 
ATOM     26  C   UNL     1      11.232   4.897   3.142  0.00  0.00    +0.001 A 
ATOM     27  C   UNL     1      11.556   3.680   2.542  0.00  0.00    +0.000 A 
ENDBRANCH  18  21
BRANCH  19   8
ATOM      8  N   UNL     1      10.413   9.190   6.468  0.00  0.00    -0.215 N 
ATOM     34  H   UNL     1      10.412  10.106   6.937  0.00  0.00    +0.173 HD
BRANCH   8   1
ATOM      1  S   UNL     1       9.206   9.032   5.273  0.00  0.00    +0.047 S 
ATOM      4  O   UNL     1       8.638  10.334   4.976  0.00  0.00    -0.155 OA
ATOM      5  O   UNL     1       9.688   8.165   4.215  0.00  0.00    -0.155 OA
BRANCH   1  24
ATOM     24  C   UNL     1       7.990   8.125   6.196  0.00  0.00    +0.223 C 
BRANCH  24  28
ATOM     28  C   UNL     1       8.668   6.930   6.791  0.00  0.00    -0.025 A 
ATOM     29  C   UNL     1       9.027   5.861   5.976  0.00  0.00    +0.005 A 
ATOM     30  C   UNL     1       8.934   6.895   8.157  0.00  0.00    +0.005 A 
ATOM     31  C   UNL     1       9.659   4.747   6.530  0.00  0.00    +0.000 A 
ATOM     32  C   UNL     1       9.566   5.781   8.712  0.00  0.00    +0.000 A 
ATOM     33  C   UNL     1       9.928   4.709   7.898  0.00  0.00    +0.000 A 
ENDBRANCH  24  28
ENDBRANCH   1  24
ENDBRANCH   8   1
ENDBRANCH  19   8
TORSDOF 5
ENDMDL
MODEL 4
REMARK VINA RESULT:      -6.7     24.708     28.020
REMARK  Name = 11867148
REMARK  5 active torsions:
REMARK  status: ('A' for Active; 'I' for Inactive)
REMARK    1  A    between atoms: S_1  and  N_8
REMARK    2  A    between atoms: S_1  and  C_24
REMARK    3  A    between atoms: N_8  and  C_19
REMARK    4  A    between atoms: C_18  and  C_21
REMARK    5  A    between atoms: C_24  and  C_28
REMARK                            x       y       z     vdW  Elec       q    Type
REMARK                         _______ _______ _______ _____ _____    ______ ____
ROOT
ATOM      2  O   UNL     1      -6.581  -9.718  13.835  0.00  0.00    -0.266 OA
ATOM      3  O   UNL     1      -5.062 -14.487  12.494  0.00  0.00    -0.270 OA
ATOM      6  N   UNL     1      -3.142 -13.238  12.975  0.00  0.00    -0.297 N 
ATOM      7  N   UNL     1      -4.363 -10.467  13.915  0.00  0.00    -0.310 N 
ATOM      9  C   UNL     1      -3.005 -11.038  11.821  0.00  0.00    +0.027 C 
ATOM     10  C   UNL     1      -1.993 -11.316  14.048  0.00  0.00    +0.054 C 
ATOM     11  C   UNL     1      -1.798 -10.672  12.676  0.00  0.00    +0.018 C 
ATOM     12  C   UNL     1      -3.119 -12.566  11.677  0.00  0.00    +0.113 C 
ATOM     13  C   UNL     1      -4.261 -10.421  12.450  0.00  0.00    +0.130 C 
ATOM     14  C   UNL     1      -2.060 -12.848  13.894  0.00  0.00    +0.117 C 
ATOM     15  C   UNL     1      -3.262 -10.813  14.712  0.00  0.00    +0.027 A 
ATOM     16  C   UNL     1      -3.340 -10.739  16.053  0.00  0.00    +0.024 A 
ATOM     17  C   UNL     1      -5.586 -10.049  14.479  0.00  0.00    +0.274 A 
ATOM     18  C   UNL     1      -4.156 -14.156  13.257  0.00  0.00    +0.247 C 
ATOM     19  C   UNL     1      -5.618 -10.011  15.962  0.00  0.00    +0.112 A 
ATOM     20  C   UNL     1      -4.555 -10.325  16.703  0.00  0.00    +0.031 A 
ENDROOT
BRANCH  18  21
ATOM     21  C   UNL     1      -4.169 -14.778  14.586  0.00  0.00    +0.037 A 
ATOM     22  C   UNL     1      -4.858 -14.166  15.630  0.00  0.00    +0.013 A 
ATOM     23  C   UNL     1      -3.494 -15.977  14.796  0.00  0.00    +0.013 A 
ATOM     25  C   UNL     1      -4.872 -14.756  16.893  0.00  0.00    +0.001 A 
ATOM     26  C   UNL     1      -3.508 -16.568  16.061  0.00  0.00    +0.001 A 
ATOM     27  C   UNL     1      -4.197 -15.958  17.108  0.00  0.00    +0.000 A 
ENDBRANCH  18  21
BRANCH  19   8
ATOM      8  N   UNL     1      -6.791  -9.623  16.635  0.00  0.00    -0.215 N 
ATOM     34  H   UNL     1      -7.191  -8.756  16.250  0.00  0.00    +0.173 HD
BRANCH   8   1
ATOM      1  S   UNL     1      -7.941 -10.860  16.874  0.00  0.00    +0.047 S 
ATOM      4  O   UNL     1      -8.845 -10.912  15.740  0.00  0.00    -0.155 OA
ATOM      5  O   UNL     1      -7.270 -12.053  17.355  0.00  0.00    -0.155 OA
BRANCH   1  24
ATOM     24  C   UNL     1      -8.844 -10.167  18.237  0.00  0.00    +0.223 C 
BRANCH  24  28
ATOM     28  C   UNL     1      -9.949  -9.329  17.672  0.00  0.00    -0.025 A 
ATOM     29  C   UNL     1     -11.236  -9.852  17.581  0.00  0.00    +0.005 A 
ATOM     30  C   UNL     1      -9.683  -8.033  17.240  0.00  0.00    +0.005 A 
ATOM     31  C   UNL     1     -12.266  -9.072  17.054  0.00  0.00    +0.000 A 
ATOM     32  C   UNL     1     -10.713  -7.253  16.714  0.00  0.00    +0.000 A 
ATOM     33  C   UNL     1     -12.004  -7.773  16.621  0.00  0.00    +0.000 A 
ENDBRANCH  24  28
ENDBRANCH   1  24
ENDBRANCH   8   1
ENDBRANCH  19   8
TORSDOF 5
ENDMDL
MODEL 5
REMARK VINA RESULT:      -6.6     25.103     28.388
REMARK  Name = 11867148
REMARK  5 active torsions:
REMARK  status: ('A' for Active; 'I' for Inactive)
REMARK    1  A    between atoms: S_1  and  N_8
REMARK    2  A    between atoms: S_1  and  C_24
REMARK    3  A    between atoms: N_8  and  C_19
REMARK    4  A    between atoms: C_18  and  C_21
REMARK    5  A    between atoms: C_24  and  C_28
REMARK                            x       y       z     vdW  Elec       q    Type
REMARK                         _______ _______ _______ _____ _____    ______ ____
ROOT
ATOM      2  O   UNL     1      -6.530  -9.652  13.875  0.00  0.00    -0.266 OA
ATOM      3  O   UNL     1      -5.243 -14.478  12.494  0.00  0.00    -0.270 OA
ATOM      6  N   UNL     1      -3.260 -13.293  12.868  0.00  0.00    -0.297 N 
ATOM      7  N   UNL     1      -4.337 -10.476  13.848  0.00  0.00    -0.310 N 
ATOM      9  C   UNL     1      -3.107 -11.105  11.693  0.00  0.00    +0.027 C 
ATOM     10  C   UNL     1      -1.994 -11.406  13.868  0.00  0.00    +0.054 C 
ATOM     11  C   UNL     1      -1.846 -10.776  12.483  0.00  0.00    +0.018 C 
ATOM     12  C   UNL     1      -3.281 -12.629  11.566  0.00  0.00    +0.113 C 
ATOM     13  C   UNL     1      -4.308 -10.443  12.380  0.00  0.00    +0.130 C 
ATOM     14  C   UNL     1      -2.120 -12.935  13.729  0.00  0.00    +0.117 C 
ATOM     15  C   UNL     1      -3.209 -10.856  14.591  0.00  0.00    +0.027 A 
ATOM     16  C   UNL     1      -3.217 -10.771  15.934  0.00  0.00    +0.024 A 
ATOM     17  C   UNL     1      -5.515 -10.013  14.470  0.00  0.00    +0.274 A 
ATOM     18  C   UNL     1      -4.289 -14.174  13.208  0.00  0.00    +0.247 C 
ATOM     19  C   UNL     1      -5.471  -9.966  15.953  0.00  0.00    +0.112 A 
ATOM     20  C   UNL     1      -4.382 -10.313  16.641  0.00  0.00    +0.031 A 
ENDROOT
BRANCH  18  21
ATOM     21  C   UNL     1      -4.256 -14.787  14.540  0.00  0.00    +0.037 A 
ATOM     22  C   UNL     1      -3.607 -16.004  14.727  0.00  0.00    +0.013 A 
ATOM     23  C   UNL     1      -4.874 -14.147  15.612  0.00  0.00    +0.013 A 
ATOM     25  C   UNL     1      -3.575 -16.587  15.994  0.00  0.00    +0.001 A 
ATOM     26  C   UNL     1      -4.842 -14.731  16.879  0.00  0.00    +0.001 A 
ATOM     27  C   UNL     1      -4.192 -15.950  17.070  0.00  0.00    +0.000 A 
ENDBRANCH  18  21
BRANCH  19   8
ATOM      8  N   UNL     1      -6.594  -9.534  16.681  0.00  0.00    -0.215 N 
ATOM     34  H   UNL     1      -7.048  -8.719  16.247  0.00  0.00    +0.173 HD
BRANCH   8   1
ATOM      1  S   UNL     1      -7.686 -10.762  17.139  0.00  0.00    +0.047 S 
ATOM      4  O   UNL     1      -9.044 -10.340  16.853  0.00  0.00    -0.155 OA
ATOM      5  O   UNL     1      -7.186 -12.044  16.680  0.00  0.00    -0.155 OA
BRANCH   1  24
ATOM     24  C   UNL     1      -7.476 -10.705  18.902  0.00  0.00    +0.223 C 
BRANCH  24  28
ATOM     28  C   UNL     1      -8.478 -11.636  19.510  0.00  0.00    -0.025 A 
ATOM     29  C   UNL     1      -8.120 -12.951  19.790  0.00  0.00    +0.005 A 
ATOM     30  C   UNL     1      -9.763 -11.179  19.792  0.00  0.00    +0.005 A 
ATOM     31  C   UNL     1      -9.055 -13.818  20.358  0.00  0.00    +0.000 A 
ATOM     32  C   UNL     1     -10.697 -12.046  20.359  0.00  0.00    +0.000 A 
ATOM     33  C   UNL     1     -10.342 -13.365  20.642  0.00  0.00    +0.000 A 
ENDBRANCH  24  28
ENDBRANCH   1  24
ENDBRANCH   8   1
ENDBRANCH  19   8
TORSDOF 5
ENDMDL
MODEL 6
REMARK VINA RESULT:      -6.6     24.425     28.093
REMARK  Name = 11867148
REMARK  5 active torsions:
REMARK  status: ('A' for Active; 'I' for Inactive)
REMARK    1  A    between atoms: S_1  and  N_8
REMARK    2  A    between atoms: S_1  and  C_24
REMARK    3  A    between atoms: N_8  and  C_19
REMARK    4  A    between atoms: C_18  and  C_21
REMARK    5  A    between atoms: C_24  and  C_28
REMARK                            x       y       z     vdW  Elec       q    Type
REMARK                         _______ _______ _______ _____ _____    ______ ____
ROOT
ATOM      2  O   UNL     1      -4.834 -13.923  16.813  0.00  0.00    -0.266 OA
ATOM      3  O   UNL     1      -9.351 -12.948  14.468  0.00  0.00    -0.270 OA
ATOM      6  N   UNL     1      -8.954 -11.218  15.993  0.00  0.00    -0.297 N 
ATOM      7  N   UNL     1      -6.093 -11.974  17.134  0.00  0.00    -0.310 N 
ATOM      9  C   UNL     1      -8.375 -11.961  18.296  0.00  0.00    +0.027 C 
ATOM     10  C   UNL     1      -7.438  -9.861  17.417  0.00  0.00    +0.054 C 
ATOM     11  C   UNL     1      -8.022 -10.524  18.663  0.00  0.00    +0.018 C 
ATOM     12  C   UNL     1      -9.404 -11.986  17.152  0.00  0.00    +0.113 C 
ATOM     13  C   UNL     1      -7.086 -12.708  17.930  0.00  0.00    +0.130 C 
ATOM     14  C   UNL     1      -8.495  -9.851  16.294  0.00  0.00    +0.117 C 
ATOM     15  C   UNL     1      -6.194 -10.589  16.942  0.00  0.00    +0.027 A 
ATOM     16  C   UNL     1      -5.217  -9.915  16.308  0.00  0.00    +0.024 A 
ATOM     17  C   UNL     1      -4.988 -12.711  16.663  0.00  0.00    +0.274 A 
ATOM     18  C   UNL     1      -8.968 -11.809  14.727  0.00  0.00    +0.247 C 
ATOM     19  C   UNL     1      -3.955 -11.917  15.951  0.00  0.00    +0.112 A 
ATOM     20  C   UNL     1      -4.059 -10.597  15.795  0.00  0.00    +0.031 A 
ENDROOT
BRANCH  18  21
ATOM     21  C   UNL     1      -8.468 -11.021  13.595  0.00  0.00    +0.037 A 
ATOM     22  C   UNL     1      -9.365 -10.371  12.753  0.00  0.00    +0.013 A 
ATOM     23  C   UNL     1      -7.096 -10.926  13.371  0.00  0.00    +0.013 A 
ATOM     25  C   UNL     1      -8.889  -9.621  11.677  0.00  0.00    +0.001 A 
ATOM     26  C   UNL     1      -6.621 -10.176  12.294  0.00  0.00    +0.001 A 
ATOM     27  C   UNL     1      -7.517  -9.523  11.448  0.00  0.00    +0.000 A 
ENDBRANCH  18  21
BRANCH  19   8
ATOM      8  N   UNL     1      -2.814 -12.549  15.425  0.00  0.00    -0.215 N 
ATOM     34  H   UNL     1      -2.377 -13.188  16.103  0.00  0.00    +0.173 HD
BRANCH   8   1
ATOM      1  S   UNL     1      -3.005 -13.226  13.871  0.00  0.00    +0.047 S 
ATOM      4  O   UNL     1      -2.474 -14.577  13.858  0.00  0.00    -0.155 OA
ATOM      5  O   UNL     1      -4.339 -12.940  13.382  0.00  0.00    -0.155 OA
BRANCH   1  24
ATOM     24  C   UNL     1      -1.870 -12.207  12.961  0.00  0.00    +0.223 C 
BRANCH  24  28
ATOM     28  C   UNL     1      -2.623 -11.588  11.825  0.00  0.00    -0.025 A 
ATOM     29  C   UNL     1      -2.645 -10.204  11.682  0.00  0.00    +0.005 A 
ATOM     30  C   UNL     1      -3.298 -12.401  10.919  0.00  0.00    +0.005 A 
ATOM     31  C   UNL     1      -3.347  -9.628  10.623  0.00  0.00    +0.000 A 
ATOM     32  C   UNL     1      -4.000 -11.825   9.860  0.00  0.00    +0.000 A 
ATOM     33  C   UNL     1      -4.024 -10.439   9.712  0.00  0.00    +0.000 A 
ENDBRANCH  24  28
ENDBRANCH   1  24
ENDBRANCH   8   1
ENDBRANCH  19   8
TORSDOF 5
ENDMDL
MODEL 7
REMARK VINA RESULT:      -6.5      4.615      8.835
REMARK  Name = 11867148
REMARK  5 active torsions:
REMARK  status: ('A' for Active; 'I' for Inactive)
REMARK    1  A    between atoms: S_1  and  N_8
REMARK    2  A    between atoms: S_1  and  C_24
REMARK    3  A    between atoms: N_8  and  C_19
REMARK    4  A    between atoms: C_18  and  C_21
REMARK    5  A    between atoms: C_24  and  C_28
REMARK                            x       y       z     vdW  Elec       q    Type
REMARK                         _______ _______ _______ _____ _____    ______ ____
ROOT
ATOM      2  O   UNL     1      12.741   7.549   3.372  0.00  0.00    -0.266 OA
ATOM      3  O   UNL     1       8.794   9.921   5.748  0.00  0.00    -0.270 OA
ATOM      6  N   UNL     1       9.149   7.877   6.830  0.00  0.00    -0.297 N 
ATOM      7  N   UNL     1      11.686   6.742   5.302  0.00  0.00    -0.310 N 
ATOM      9  C   UNL     1       9.269   5.900   5.324  0.00  0.00    +0.027 C 
ATOM     10  C   UNL     1      10.573   5.927   7.412  0.00  0.00    +0.054 C 
ATOM     11  C   UNL     1       9.727   5.042   6.498  0.00  0.00    +0.018 C 
ATOM     12  C   UNL     1       8.435   7.094   5.823  0.00  0.00    +0.113 C 
ATOM     13  C   UNL     1      10.501   6.348   4.528  0.00  0.00    +0.130 C 
ATOM     14  C   UNL     1       9.714   7.092   7.941  0.00  0.00    +0.117 C 
ATOM     15  C   UNL     1      11.781   6.476   6.676  0.00  0.00    +0.027 A 
ATOM     16  C   UNL     1      12.919   6.740   7.344  0.00  0.00    +0.024 A 
ATOM     17  C   UNL     1      12.757   7.306   4.578  0.00  0.00    +0.274 A 
ATOM     18  C   UNL     1       9.263   9.260   6.673  0.00  0.00    +0.247 C 
ATOM     19  C   UNL     1      13.975   7.598   5.376  0.00  0.00    +0.112 A 
ATOM     20  C   UNL     1      14.053   7.320   6.677  0.00  0.00    +0.031 A 
ENDROOT
BRANCH  18  21
ATOM     21  C   UNL     1      10.025  10.006   7.681  0.00  0.00    +0.037 A 
ATOM     22  C   UNL     1      11.390  10.213   7.505  0.00  0.00    +0.013 A 
ATOM     23  C   UNL     1       9.377  10.504   8.809  0.00  0.00    +0.013 A 
ATOM     25  C   UNL     1      12.114  10.922   8.462  0.00  0.00    +0.001 A 
ATOM     26  C   UNL     1      10.102  11.214   9.767  0.00  0.00    +0.001 A 
ATOM     27  C   UNL     1      11.470  11.423   9.594  0.00  0.00    +0.000 A 
ENDBRANCH  18  21
BRANCH  19   8
ATOM      8  N   UNL     1      15.101   8.175   4.762  0.00  0.00    -0.215 N 
ATOM     34  H   UNL     1      15.171   7.925   3.766  0.00  0.00    +0.173 HD
BRANCH   8   1
ATOM      1  S   UNL     1      15.330   9.837   5.069  0.00  0.00    +0.047 S 
ATOM      4  O   UNL     1      14.382  10.613   4.291  0.00  0.00    -0.155 OA
ATOM      5  O   UNL     1      15.478  10.046   6.496  0.00  0.00    -0.155 OA
BRANCH   1  24
ATOM     24  C   UNL     1      16.928  10.059   4.326  0.00  0.00    +0.223 C 
BRANCH  24  28
ATOM     28  C   UNL     1      17.957   9.890   5.400  0.00  0.00    -0.025 A 
ATOM     29  C   UNL     1      18.403  11.000   6.112  0.00  0.00    +0.005 A 
ATOM     30  C   UNL     1      18.463   8.624   5.680  0.00  0.00    +0.005 A 
ATOM     31  C   UNL     1      19.362  10.843   7.113  0.00  0.00    +0.000 A 
ATOM     32  C   UNL     1      19.422   8.466   6.682  0.00  0.00    +0.000 A 
ATOM     33  C   UNL     1      19.871   9.576   7.397  0.00  0.00    +0.000 A 
ENDBRANCH  24  28
ENDBRANCH   1  24
ENDBRANCH   8   1
ENDBRANCH  19   8
TORSDOF 5
ENDMDL
MODEL 8
REMARK VINA RESULT:      -6.5     27.385     30.450
REMARK  Name = 11867148
REMARK  5 active torsions:
REMARK  status: ('A' for Active; 'I' for Inactive)
REMARK    1  A    between atoms: S_1  and  N_8
REMARK    2  A    between atoms: S_1  and  C_24
REMARK    3  A    between atoms: N_8  and  C_19
REMARK    4  A    between atoms: C_18  and  C_21
REMARK    5  A    between atoms: C_24  and  C_28
REMARK                            x       y       z     vdW  Elec       q    Type
REMARK                         _______ _______ _______ _____ _____    ______ ____
ROOT
ATOM      2  O   UNL     1     -10.756  -8.859  18.599  0.00  0.00    -0.266 OA
ATOM      3  O   UNL     1      -6.335 -10.897  20.375  0.00  0.00    -0.270 OA
ATOM      6  N   UNL     1      -7.394 -12.525  19.069  0.00  0.00    -0.297 N 
ATOM      7  N   UNL     1      -9.940 -10.969  17.993  0.00  0.00    -0.310 N 
ATOM      9  C   UNL     1      -9.784 -12.930  19.631  0.00  0.00    +0.027 C 
ATOM     10  C   UNL     1      -9.009 -13.211  17.312  0.00  0.00    +0.054 C 
ATOM     11  C   UNL     1      -9.923 -13.798  18.386  0.00  0.00    +0.018 C 
ATOM     12  C   UNL     1      -8.325 -12.923  20.123  0.00  0.00    +0.113 C 
ATOM     13  C   UNL     1     -10.291 -11.518  19.309  0.00  0.00    +0.130 C 
ATOM     14  C   UNL     1      -7.547 -13.253  17.798  0.00  0.00    +0.117 C 
ATOM     15  C   UNL     1      -9.399 -11.781  16.985  0.00  0.00    +0.027 A 
ATOM     16  C   UNL     1      -9.190 -11.288  15.751  0.00  0.00    +0.024 A 
ATOM     17  C   UNL     1     -10.266  -9.617  17.763  0.00  0.00    +0.274 A 
ATOM     18  C   UNL     1      -6.469 -11.508  19.316  0.00  0.00    +0.247 C 
ATOM     19  C   UNL     1      -9.990  -9.124  16.390  0.00  0.00    +0.112 A 
ATOM     20  C   UNL     1      -9.493  -9.917  15.439  0.00  0.00    +0.031 A 
ENDROOT
BRANCH  18  21
ATOM     21  C   UNL     1      -5.581 -11.106  18.219  0.00  0.00    +0.037 A 
ATOM     22  C   UNL     1      -4.274 -11.584  18.176  0.00  0.00    +0.013 A 
ATOM     23  C   UNL     1      -6.051 -10.250  17.227  0.00  0.00    +0.013 A 
ATOM     25  C   UNL     1      -3.430 -11.203  17.133  0.00  0.00    +0.001 A 
ATOM     26  C   UNL     1      -5.206  -9.868  16.184  0.00  0.00    +0.001 A 
ATOM     27  C   UNL     1      -3.896 -10.345  16.137  0.00  0.00    +0.000 A 
ENDBRANCH  18  21
BRANCH  19   8
ATOM      8  N   UNL     1     -10.263  -7.787  16.049  0.00  0.00    -0.215 N 
ATOM     34  H   UNL     1      -9.612  -7.429  15.337  0.00  0.00    +0.173 HD
BRANCH   8   1
ATOM      1  S   UNL     1     -11.899  -7.435  15.720  0.00  0.00    +0.047 S 
ATOM      4  O   UNL     1     -12.706  -8.624  15.926  0.00  0.00    -0.155 OA
ATOM      5  O   UNL     1     -12.252  -6.172  16.339  0.00  0.00    -0.155 OA
BRANCH   1  24
ATOM     24  C   UNL     1     -11.798  -7.165  13.967  0.00  0.00    +0.223 C 
BRANCH  24  28
ATOM     28  C   UNL     1     -12.785  -6.095  13.614  0.00  0.00    -0.025 A 
ATOM     29  C   UNL     1     -12.332  -4.836  13.231  0.00  0.00    +0.005 A 
ATOM     30  C   UNL     1     -14.149  -6.367  13.671  0.00  0.00    +0.005 A 
ATOM     31  C   UNL     1     -13.252  -3.840  12.902  0.00  0.00    +0.000 A 
ATOM     32  C   UNL     1     -15.068  -5.371  13.342  0.00  0.00    +0.000 A 
ATOM     33  C   UNL     1     -14.619  -4.108  12.957  0.00  0.00    +0.000 A 
ENDBRANCH  24  28
ENDBRANCH   1  24
ENDBRANCH   8   1
ENDBRANCH  19   8
TORSDOF 5
ENDMDL
MODEL 9
REMARK VINA RESULT:      -6.5      2.815      8.080
REMARK  Name = 11867148
REMARK  5 active torsions:
REMARK  status: ('A' for Active; 'I' for Inactive)
REMARK    1  A    between atoms: S_1  and  N_8
REMARK    2  A    between atoms: S_1  and  C_24
REMARK    3  A    between atoms: N_8  and  C_19
REMARK    4  A    between atoms: C_18  and  C_21
REMARK    5  A    between atoms: C_24  and  C_28
REMARK                            x       y       z     vdW  Elec       q    Type
REMARK                         _______ _______ _______ _____ _____    ______ ____
ROOT
ATOM      2  O   UNL     1       8.971   8.186   1.678  0.00  0.00    -0.266 OA
ATOM      3  O   UNL     1      11.395   9.868   5.938  0.00  0.00    -0.270 OA
ATOM      6  N   UNL     1      10.788   7.637   6.300  0.00  0.00    -0.297 N 
ATOM      7  N   UNL     1       9.501   6.832   3.515  0.00  0.00    -0.310 N 
ATOM      9  C   UNL     1       8.406   7.105   5.813  0.00  0.00    +0.027 C 
ATOM     10  C   UNL     1      10.136   5.385   5.479  0.00  0.00    +0.054 C 
ATOM     11  C   UNL     1       8.711   5.621   5.978  0.00  0.00    +0.018 C 
ATOM     12  C   UNL     1       9.399   7.952   6.629  0.00  0.00    +0.113 C 
ATOM     13  C   UNL     1       8.441   7.454   4.319  0.00  0.00    +0.130 C 
ATOM     14  C   UNL     1      11.123   6.203   6.334  0.00  0.00    +0.117 C 
ATOM     15  C   UNL     1      10.276   5.778   4.020  0.00  0.00    +0.027 A 
ATOM     16  C   UNL     1      11.164   5.145   3.231  0.00  0.00    +0.024 A 
ATOM     17  C   UNL     1       9.631   7.278   2.184  0.00  0.00    +0.274 A 
ATOM     18  C   UNL     1      11.668   8.669   5.968  0.00  0.00    +0.247 C 
ATOM     19  C   UNL     1      10.643   6.558   1.371  0.00  0.00    +0.112 A 
ATOM     20  C   UNL     1      11.356   5.545   1.864  0.00  0.00    +0.031 A 
ENDROOT
BRANCH  18  21
ATOM     21  C   UNL     1      13.042   8.309   5.601  0.00  0.00    +0.037 A 
ATOM     22  C   UNL     1      14.049   8.346   6.562  0.00  0.00    +0.013 A 
ATOM     23  C   UNL     1      13.332   7.929   4.293  0.00  0.00    +0.013 A 
ATOM     25  C   UNL     1      15.355   8.003   6.214  0.00  0.00    +0.001 A 
ATOM     26  C   UNL     1      14.639   7.586   3.945  0.00  0.00    +0.001 A 
ATOM     27  C   UNL     1      15.650   7.622   4.905  0.00  0.00    +0.000 A 
ENDBRANCH  18  21
BRANCH  19   8
ATOM      8  N   UNL     1      10.869   6.926   0.033  0.00  0.00    -0.215 N 
ATOM     34  H   UNL     1      11.870   6.914  -0.209  0.00  0.00    +0.173 HD
BRANCH   8   1
ATOM      1  S   UNL     1       9.878   6.148  -1.118  0.00  0.00    +0.047 S 
ATOM      4  O   UNL     1       9.167   5.052  -0.488  0.00  0.00    -0.155 OA
ATOM      5  O   UNL     1       9.176   7.147  -1.900  0.00  0.00    -0.155 OA
BRANCH   1  24
ATOM     24  C   UNL     1      11.131   5.436  -2.156  0.00  0.00    +0.223 C 
BRANCH  24  28
ATOM     28  C   UNL     1      10.597   4.145  -2.694  0.00  0.00    -0.025 A 
ATOM     29  C   UNL     1      11.159   2.939  -2.285  0.00  0.00    +0.005 A 
ATOM     30  C   UNL     1       9.540   4.158  -3.601  0.00  0.00    +0.005 A 
ATOM     31  C   UNL     1      10.661   1.736  -2.786  0.00  0.00    +0.000 A 
ATOM     32  C   UNL     1       9.043   2.955  -4.102  0.00  0.00    +0.000 A 
ATOM     33  C   UNL     1       9.603   1.745  -3.694  0.00  0.00    +0.000 A 
ENDBRANCH  24  28
ENDBRANCH   1  24
ENDBRANCH   8   1
ENDBRANCH  19   8
TORSDOF 5
ENDMDL
MODEL 10
REMARK VINA RESULT:      -6.4     24.218     26.840
REMARK  Name = 11867148
REMARK  5 active torsions:
REMARK  status: ('A' for Active; 'I' for Inactive)
REMARK    1  A    between atoms: S_1  and  N_8
REMARK    2  A    between atoms: S_1  and  C_24
REMARK    3  A    between atoms: N_8  and  C_19
REMARK    4  A    between atoms: C_18  and  C_21
REMARK    5  A    between atoms: C_24  and  C_28
REMARK                            x       y       z     vdW  Elec       q    Type
REMARK                         _______ _______ _______ _____ _____    ______ ____
ROOT
ATOM      2  O   UNL     1      -8.296 -12.129  11.365  0.00  0.00    -0.266 OA
ATOM      3  O   UNL     1      -3.376 -13.694  11.805  0.00  0.00    -0.270 OA
ATOM      6  N   UNL     1      -3.364 -11.593  10.775  0.00  0.00    -0.297 N 
ATOM      7  N   UNL     1      -6.440 -10.820  10.793  0.00  0.00    -0.310 N 
ATOM      9  C   UNL     1      -4.896 -11.370   8.827  0.00  0.00    +0.027 C 
ATOM     10  C   UNL     1      -4.423  -9.411  10.241  0.00  0.00    +0.054 C 
ATOM     11  C   UNL     1      -4.630  -9.869   8.798  0.00  0.00    +0.018 C 
ATOM     12  C   UNL     1      -3.703 -12.116   9.453  0.00  0.00    +0.113 C 
ATOM     13  C   UNL     1      -6.202 -11.627   9.589  0.00  0.00    +0.130 C 
ATOM     14  C   UNL     1      -3.200 -10.131  10.841  0.00  0.00    +0.117 C 
ATOM     15  C   UNL     1      -5.650  -9.699  11.087  0.00  0.00    +0.027 A 
ATOM     16  C   UNL     1      -5.954  -8.906  12.131  0.00  0.00    +0.024 A 
ATOM     17  C   UNL     1      -7.558 -11.169  11.579  0.00  0.00    +0.274 A 
ATOM     18  C   UNL     1      -3.241 -12.473  11.853  0.00  0.00    +0.247 C 
ATOM     19  C   UNL     1      -7.826 -10.271  12.730  0.00  0.00    +0.112 A 
ATOM     20  C   UNL     1      -7.075  -9.197  12.982  0.00  0.00    +0.031 A 
ENDROOT
BRANCH  18  21
ATOM     21  C   UNL     1      -2.942 -11.906  13.173  0.00  0.00    +0.037 A 
ATOM     22  C   UNL     1      -3.948 -11.274  13.898  0.00  0.00    +0.013 A 
ATOM     23  C   UNL     1      -1.654 -12.004  13.693  0.00  0.00    +0.013 A 
ATOM     25  C   UNL     1      -3.666 -10.735  15.153  0.00  0.00    +0.001 A 
ATOM     26  C   UNL     1      -1.372 -11.464  14.949  0.00  0.00    +0.001 A 
ATOM     27  C   UNL     1      -2.377 -10.831  15.679  0.00  0.00    +0.000 A 
ENDBRANCH  18  21
BRANCH  19   8
ATOM      8  N   UNL     1      -8.906 -10.528  13.593  0.00  0.00    -0.215 N 
ATOM     34  H   UNL     1      -9.749 -10.824  13.081  0.00  0.00    +0.173 HD
BRANCH   8   1
ATOM      1  S   UNL     1      -8.547 -11.507  14.943  0.00  0.00    +0.047 S 
ATOM      4  O   UNL     1      -9.672 -12.379  15.228  0.00  0.00    -0.155 OA
ATOM      5  O   UNL     1      -7.204 -12.036  14.810  0.00  0.00    -0.155 OA
BRANCH   1  24
ATOM     24  C   UNL     1      -8.511 -10.263  16.210  0.00  0.00    +0.223 C 
BRANCH  24  28
ATOM     28  C   UNL     1      -7.608 -10.750  17.301  0.00  0.00    -0.025 A 
ATOM     29  C   UNL     1      -6.323 -10.227  17.419  0.00  0.00    +0.005 A 
ATOM     30  C   UNL     1      -8.058 -11.723  18.189  0.00  0.00    +0.005 A 
ATOM     31  C   UNL     1      -5.481 -10.681  18.435  0.00  0.00    +0.000 A 
ATOM     32  C   UNL     1      -7.216 -12.176  19.205  0.00  0.00    +0.000 A 
ATOM     33  C   UNL     1      -5.928 -11.654  19.328  0.00  0.00    +0.000 A 
ENDBRANCH  24  28
ENDBRANCH   1  24
ENDBRANCH   8   1
ENDBRANCH  19   8
TORSDOF 5
ENDMDL
