MODEL 1
REMARK VINA RESULT:      -8.1      0.000      0.000
REMARK  Name = 11867501
REMARK  9 active torsions:
REMARK  status: ('A' for Active; 'I' for Inactive)
REMARK    1  A    between atoms: O_6  and  C_17
REMARK    2  A    between atoms: O_6  and  C_21
REMARK    3  A    between atoms: N_8  and  C_16
REMARK    4  A    between atoms: N_12  and  C_28
REMARK    5  A    between atoms: N_13  and  C_27
REMARK    6  A    between atoms: N_13  and  C_32
REMARK    7  A    between atoms: N_13  and  C_33
REMARK    8  A    between atoms: C_20  and  C_22
REMARK    9  A    between atoms: C_31  and  C_36
REMARK                            x       y       z     vdW  Elec       q    Type
REMARK                         _______ _______ _______ _____ _____    ______ ____
ROOT
ATOM      4  O   UNL     1      15.643   6.423  21.436  0.00  0.00    -0.368 OA
ATOM      5  O   UNL     1      16.751   9.169  20.546  0.00  0.00    -0.368 OA
ATOM     14  C   UNL     1      15.742   8.301  19.984  0.00  0.00    +0.177 C 
ATOM     15  C   UNL     1      16.217   6.878  20.201  0.00  0.00    +0.192 C 
ATOM     16  C   UNL     1      14.469   8.406  20.803  0.00  0.00    +0.168 C 
ATOM     17  C   UNL     1      17.714   7.040  20.308  0.00  0.00    +0.235 C 
ATOM     18  C   UNL     1      14.704   7.395  21.919  0.00  0.00    +0.190 C 
ATOM     19  C   UNL     1      17.840   8.365  21.022  0.00  0.00    +0.207 C 
ENDROOT
BRANCH  16   8
ATOM      8  N   UNL     1      13.265   8.185  19.998  0.00  0.00    -0.217 N 
ATOM      9  N   UNL     1      13.274   7.305  18.991  0.00  0.00    -0.043 NA
ATOM     10  N   UNL     1      11.268   8.263  19.171  0.00  0.00    -0.108 NA
ATOM     11  N   UNL     1      12.047   7.357  18.487  0.00  0.00    -0.023 NA
ATOM     20  C   UNL     1      12.046   8.763  20.104  0.00  0.00    +0.182 A 
BRANCH  20  22
ATOM     22  C   UNL     1      11.692   9.758  21.085  0.00  0.00    +0.021 A 
ATOM     23  C   UNL     1      11.056   9.378  22.268  0.00  0.00    +0.013 A 
ATOM     24  C   UNL     1      11.984  11.103  20.854  0.00  0.00    +0.013 A 
ATOM     25  C   UNL     1      10.714  10.341  23.217  0.00  0.00    +0.024 A 
ATOM     26  C   UNL     1      11.640  12.066  21.803  0.00  0.00    +0.024 A 
ATOM     27  C   UNL     1      11.005  11.685  22.985  0.00  0.00    +0.029 A 
BRANCH  27  13
ATOM     13  N   UNL     1      10.659  12.658  23.945  0.00  0.00    -0.336 N 
ATOM     32  C   UNL     1      10.914  12.424  25.353  0.00  0.00    +0.129 C 
ATOM     33  C   UNL     1      10.028  13.898  23.538  0.00  0.00    +0.129 C 
ENDBRANCH  27  13
ENDBRANCH  20  22
ENDBRANCH  16   8
BRANCH  17   6
ATOM      6  O   UNL     1      18.346   5.995  21.011  0.00  0.00    -0.442 OA
BRANCH   6  21
ATOM      7  O   UNL     1      19.914   6.604  22.560  0.00  0.00    -0.226 OA
ATOM     12  N   UNL     1      20.515   5.938  20.398  0.00  0.00    -0.251 N 
ATOM     21  C   UNL     1      19.641   6.217  21.430  0.00  0.00    +0.405 C 
ATOM     37  H   UNL     1      20.094   5.624  19.526  0.00  0.00    +0.158 HD
BRANCH  12  28
ATOM     28  C   UNL     1      21.925   6.032  20.401  0.00  0.00    +0.037 A 
ATOM     29  C   UNL     1      22.684   4.873  20.374  0.00  0.00    +0.035 A 
ATOM     30  C   UNL     1      22.522   7.282  20.432  0.00  0.00    +0.023 A 
ATOM     31  C   UNL     1      24.076   4.966  20.377  0.00  0.00    +0.057 A 
ATOM     34  C   UNL     1      23.914   7.376  20.435  0.00  0.00    +0.002 A 
ATOM     35  C   UNL     1      24.690   6.217  20.408  0.00  0.00    +0.012 A 
BRANCH  31  36
ATOM      1  F   UNL     1      24.577   2.824  21.317  0.00  0.00    -0.166 F 
ATOM      2  F   UNL     1      26.242   3.961  20.518  0.00  0.00    -0.166 F 
ATOM      3  F   UNL     1      24.801   3.052  19.167  0.00  0.00    -0.166 F 
ATOM     36  C   UNL     1      24.907   3.729  20.348  0.00  0.00    +0.417 C 
ENDBRANCH  31  36
ENDBRANCH  12  28
ENDBRANCH   6  21
ENDBRANCH  17   6
TORSDOF 7
ENDMDL
MODEL 2
REMARK VINA RESULT:      -8.0     29.530     32.855
REMARK  Name = 11867501
REMARK  9 active torsions:
REMARK  status: ('A' for Active; 'I' for Inactive)
REMARK    1  A    between atoms: O_6  and  C_17
REMARK    2  A    between atoms: O_6  and  C_21
REMARK    3  A    between atoms: N_8  and  C_16
REMARK    4  A    between atoms: N_12  and  C_28
REMARK    5  A    between atoms: N_13  and  C_27
REMARK    6  A    between atoms: N_13  and  C_32
REMARK    7  A    between atoms: N_13  and  C_33
REMARK    8  A    between atoms: C_20  and  C_22
REMARK    9  A    between atoms: C_31  and  C_36
REMARK                            x       y       z     vdW  Elec       q    Type
REMARK                         _______ _______ _______ _____ _____    ______ ____
ROOT
ATOM      4  O   UNL     1      -9.816 -10.186  17.950  0.00  0.00    -0.368 OA
ATOM      5  O   UNL     1      -8.069  -9.639  15.458  0.00  0.00    -0.368 OA
ATOM     14  C   UNL     1      -7.772  -9.632  16.872  0.00  0.00    +0.177 C 
ATOM     15  C   UNL     1      -8.992  -9.071  17.575  0.00  0.00    +0.192 C 
ATOM     16  C   UNL     1      -7.668 -11.059  17.375  0.00  0.00    +0.168 C 
ATOM     17  C   UNL     1      -9.642  -8.236  16.497  0.00  0.00    +0.235 C 
ATOM     18  C   UNL     1      -9.117 -11.412  17.690  0.00  0.00    +0.190 C 
ATOM     19  C   UNL     1      -9.361  -9.048  15.254  0.00  0.00    +0.207 C 
ENDROOT
BRANCH  16   8
ATOM      8  N   UNL     1      -6.731 -11.193  18.493  0.00  0.00    -0.217 N 
ATOM      9  N   UNL     1      -7.161 -11.087  19.755  0.00  0.00    -0.043 NA
ATOM     10  N   UNL     1      -4.964 -11.466  19.711  0.00  0.00    -0.108 NA
ATOM     11  N   UNL     1      -6.074 -11.255  20.498  0.00  0.00    -0.023 NA
ATOM     20  C   UNL     1      -5.397 -11.423  18.471  0.00  0.00    +0.182 A 
BRANCH  20  22
ATOM     22  C   UNL     1      -4.613 -11.589  17.274  0.00  0.00    +0.021 A 
ATOM     23  C   UNL     1      -3.743 -10.577  16.862  0.00  0.00    +0.013 A 
ATOM     24  C   UNL     1      -4.720 -12.761  16.523  0.00  0.00    +0.013 A 
ATOM     25  C   UNL     1      -2.984 -10.737  15.703  0.00  0.00    +0.024 A 
ATOM     26  C   UNL     1      -3.962 -12.920  15.364  0.00  0.00    +0.024 A 
ATOM     27  C   UNL     1      -3.094 -11.909  14.953  0.00  0.00    +0.029 A 
BRANCH  27  13
ATOM     13  N   UNL     1      -2.325 -12.070  13.782  0.00  0.00    -0.336 N 
ATOM     32  C   UNL     1      -1.639 -13.319  13.519  0.00  0.00    +0.129 C 
ATOM     33  C   UNL     1      -2.199 -10.982  12.832  0.00  0.00    +0.129 C 
ENDBRANCH  27  13
ENDBRANCH  20  22
ENDBRANCH  16   8
BRANCH  17   6
ATOM      6  O   UNL     1     -11.022  -8.031  16.697  0.00  0.00    -0.442 OA
BRANCH   6  21
ATOM      7  O   UNL     1     -11.283  -5.761  16.600  0.00  0.00    -0.226 OA
ATOM     12  N   UNL     1     -12.426  -7.193  15.144  0.00  0.00    -0.251 N 
ATOM     21  C   UNL     1     -11.563  -6.875  16.174  0.00  0.00    +0.405 C 
ATOM     37  H   UNL     1     -12.528  -8.183  14.934  0.00  0.00    +0.158 HD
BRANCH  12  28
ATOM     28  C   UNL     1     -13.187  -6.313  14.342  0.00  0.00    +0.037 A 
ATOM     29  C   UNL     1     -12.537  -5.458  13.466  0.00  0.00    +0.035 A 
ATOM     30  C   UNL     1     -14.568  -6.321  14.447  0.00  0.00    +0.023 A 
ATOM     31  C   UNL     1     -13.289  -4.589  12.673  0.00  0.00    +0.057 A 
ATOM     34  C   UNL     1     -15.320  -5.453  13.655  0.00  0.00    +0.002 A 
ATOM     35  C   UNL     1     -14.679  -4.587  12.769  0.00  0.00    +0.012 A 
BRANCH  31  36
ATOM      1  F   UNL     1     -11.822  -4.303  10.805  0.00  0.00    -0.166 F 
ATOM      2  F   UNL     1     -11.775  -2.768  12.338  0.00  0.00    -0.166 F 
ATOM      3  F   UNL     1     -13.482  -2.912  10.999  0.00  0.00    -0.166 F 
ATOM     36  C   UNL     1     -12.604  -3.664  11.725  0.00  0.00    +0.417 C 
ENDBRANCH  31  36
ENDBRANCH  12  28
ENDBRANCH   6  21
ENDBRANCH  17   6
TORSDOF 7
ENDMDL
MODEL 3
REMARK VINA RESULT:      -7.7     29.668     32.857
REMARK  Name = 11867501
REMARK  9 active torsions:
REMARK  status: ('A' for Active; 'I' for Inactive)
REMARK    1  A    between atoms: O_6  and  C_17
REMARK    2  A    between atoms: O_6  and  C_21
REMARK    3  A    between atoms: N_8  and  C_16
REMARK    4  A    between atoms: N_12  and  C_28
REMARK    5  A    between atoms: N_13  and  C_27
REMARK    6  A    between atoms: N_13  and  C_32
REMARK    7  A    between atoms: N_13  and  C_33
REMARK    8  A    between atoms: C_20  and  C_22
REMARK    9  A    between atoms: C_31  and  C_36
REMARK                            x       y       z     vdW  Elec       q    Type
REMARK                         _______ _______ _______ _____ _____    ______ ____
ROOT
ATOM      4  O   UNL     1     -10.224  -9.917  17.041  0.00  0.00    -0.368 OA
ATOM      5  O   UNL     1      -8.214  -9.873  14.692  0.00  0.00    -0.368 OA
ATOM     14  C   UNL     1      -8.052  -9.657  16.111  0.00  0.00    +0.177 C 
ATOM     15  C   UNL     1      -9.291  -8.924  16.587  0.00  0.00    +0.192 C 
ATOM     16  C   UNL     1      -8.098 -10.989  16.835  0.00  0.00    +0.168 C 
ATOM     17  C   UNL     1      -9.774  -8.237  15.332  0.00  0.00    +0.235 C 
ATOM     18  C   UNL     1      -9.592 -11.205  17.047  0.00  0.00    +0.190 C 
ATOM     19  C   UNL     1      -9.435  -9.252  14.265  0.00  0.00    +0.207 C 
ENDROOT
BRANCH  16   8
ATOM      8  N   UNL     1      -7.283 -10.993  18.053  0.00  0.00    -0.217 N 
ATOM      9  N   UNL     1      -7.846 -10.780  19.247  0.00  0.00    -0.043 NA
ATOM     10  N   UNL     1      -5.652 -11.107  19.468  0.00  0.00    -0.108 NA
ATOM     11  N   UNL     1      -6.842 -10.851  20.111  0.00  0.00    -0.023 NA
ATOM     20  C   UNL     1      -5.951 -11.192  18.192  0.00  0.00    +0.182 A 
BRANCH  20  22
ATOM     22  C   UNL     1      -5.042 -11.450  17.104  0.00  0.00    +0.021 A 
ATOM     23  C   UNL     1      -5.023 -12.704  16.491  0.00  0.00    +0.013 A 
ATOM     24  C   UNL     1      -4.180 -10.446  16.661  0.00  0.00    +0.013 A 
ATOM     25  C   UNL     1      -4.143 -12.953  15.438  0.00  0.00    +0.024 A 
ATOM     26  C   UNL     1      -3.298 -10.696  15.609  0.00  0.00    +0.024 A 
ATOM     27  C   UNL     1      -3.280 -11.950  14.997  0.00  0.00    +0.029 A 
BRANCH  27  13
ATOM     13  N   UNL     1      -2.391 -12.202  13.931  0.00  0.00    -0.336 N 
ATOM     32  C   UNL     1      -1.730 -13.487  13.815  0.00  0.00    +0.129 C 
ATOM     33  C   UNL     1      -2.114 -11.174  12.948  0.00  0.00    +0.129 C 
ENDBRANCH  27  13
ENDBRANCH  20  22
ENDBRANCH  16   8
BRANCH  17   6
ATOM      6  O   UNL     1     -11.148  -7.926  15.353  0.00  0.00    -0.442 OA
BRANCH   6  21
ATOM      7  O   UNL     1     -11.222  -5.665  15.688  0.00  0.00    -0.226 OA
ATOM     12  N   UNL     1     -12.190  -6.661  13.804  0.00  0.00    -0.251 N 
ATOM     21  C   UNL     1     -11.503  -6.640  15.001  0.00  0.00    +0.405 C 
ATOM     37  H   UNL     1     -12.326  -7.576  13.380  0.00  0.00    +0.158 HD
BRANCH  12  28
ATOM     28  C   UNL     1     -12.730  -5.567  13.091  0.00  0.00    +0.037 A 
ATOM     29  C   UNL     1     -12.192  -5.225  11.860  0.00  0.00    +0.035 A 
ATOM     30  C   UNL     1     -13.787  -4.857  13.636  0.00  0.00    +0.023 A 
ATOM     31  C   UNL     1     -12.726  -4.145  11.156  0.00  0.00    +0.057 A 
ATOM     34  C   UNL     1     -14.322  -3.777  12.933  0.00  0.00    +0.002 A 
ATOM     35  C   UNL     1     -13.790  -3.421  11.693  0.00  0.00    +0.012 A 
BRANCH  31  36
ATOM      1  F   UNL     1     -11.844  -4.835   9.043  0.00  0.00    -0.166 F 
ATOM      2  F   UNL     1     -11.007  -3.036   9.918  0.00  0.00    -0.166 F 
ATOM      3  F   UNL     1     -13.018  -3.005   9.090  0.00  0.00    -0.166 F 
ATOM     36  C   UNL     1     -12.159  -3.765   9.831  0.00  0.00    +0.417 C 
ENDBRANCH  31  36
ENDBRANCH  12  28
ENDBRANCH   6  21
ENDBRANCH  17   6
TORSDOF 7
ENDMDL
MODEL 4
REMARK VINA RESULT:      -7.6     29.651     33.347
REMARK  Name = 11867501
REMARK  9 active torsions:
REMARK  status: ('A' for Active; 'I' for Inactive)
REMARK    1  A    between atoms: O_6  and  C_17
REMARK    2  A    between atoms: O_6  and  C_21
REMARK    3  A    between atoms: N_8  and  C_16
REMARK    4  A    between atoms: N_12  and  C_28
REMARK    5  A    between atoms: N_13  and  C_27
REMARK    6  A    between atoms: N_13  and  C_32
REMARK    7  A    between atoms: N_13  and  C_33
REMARK    8  A    between atoms: C_20  and  C_22
REMARK    9  A    between atoms: C_31  and  C_36
REMARK                            x       y       z     vdW  Elec       q    Type
REMARK                         _______ _______ _______ _____ _____    ______ ____
ROOT
ATOM      4  O   UNL     1     -12.152  -8.993  17.160  0.00  0.00    -0.368 OA
ATOM      5  O   UNL     1      -9.779  -8.398  15.271  0.00  0.00    -0.368 OA
ATOM     14  C   UNL     1      -9.851  -8.625  16.695  0.00  0.00    +0.177 C 
ATOM     15  C   UNL     1     -11.135  -7.979  17.178  0.00  0.00    +0.192 C 
ATOM     16  C   UNL     1     -10.047 -10.105  16.964  0.00  0.00    +0.168 C 
ATOM     17  C   UNL     1     -11.387  -6.919  16.132  0.00  0.00    +0.235 C 
ATOM     18  C   UNL     1     -11.560 -10.267  16.870  0.00  0.00    +0.190 C 
ATOM     19  C   UNL     1     -10.898  -7.593  14.872  0.00  0.00    +0.207 C 
ENDROOT
BRANCH  16   8
ATOM      8  N   UNL     1      -9.446 -10.528  18.232  0.00  0.00    -0.217 N 
ATOM      9  N   UNL     1     -10.191 -10.614  19.340  0.00  0.00    -0.043 NA
ATOM     10  N   UNL     1      -8.080 -11.185  19.774  0.00  0.00    -0.108 NA
ATOM     11  N   UNL     1      -9.348 -11.017  20.282  0.00  0.00    -0.023 NA
ATOM     20  C   UNL     1      -8.166 -10.877  18.500  0.00  0.00    +0.182 A 
BRANCH  20  22
ATOM     22  C   UNL     1      -7.101 -10.895  17.530  0.00  0.00    +0.021 A 
ATOM     23  C   UNL     1      -6.760 -12.087  16.887  0.00  0.00    +0.013 A 
ATOM     24  C   UNL     1      -6.407  -9.721  17.231  0.00  0.00    +0.013 A 
ATOM     25  C   UNL     1      -5.729 -12.104  15.949  0.00  0.00    +0.024 A 
ATOM     26  C   UNL     1      -5.375  -9.739  16.294  0.00  0.00    +0.024 A 
ATOM     27  C   UNL     1      -5.035 -10.930  15.652  0.00  0.00    +0.029 A 
BRANCH  27  13
ATOM     13  N   UNL     1      -3.993 -10.949  14.702  0.00  0.00    -0.336 N 
ATOM     32  C   UNL     1      -4.290 -10.929  13.284  0.00  0.00    +0.129 C 
ATOM     33  C   UNL     1      -2.610 -11.004  15.133  0.00  0.00    +0.129 C 
ENDBRANCH  27  13
ENDBRANCH  20  22
ENDBRANCH  16   8
BRANCH  17   6
ATOM      6  O   UNL     1     -12.738  -6.530  16.037  0.00  0.00    -0.442 OA
BRANCH   6  21
ATOM      7  O   UNL     1     -13.882  -7.177  14.166  0.00  0.00    -0.226 OA
ATOM     12  N   UNL     1     -12.906  -5.057  14.338  0.00  0.00    -0.251 N 
ATOM     21  C   UNL     1     -13.241  -6.325  14.769  0.00  0.00    +0.405 C 
ATOM     37  H   UNL     1     -12.365  -4.491  14.988  0.00  0.00    +0.158 HD
BRANCH  12  28
ATOM     28  C   UNL     1     -13.221  -4.445  13.104  0.00  0.00    +0.037 A 
ATOM     29  C   UNL     1     -12.299  -4.484  12.071  0.00  0.00    +0.035 A 
ATOM     30  C   UNL     1     -14.447  -3.817  12.952  0.00  0.00    +0.023 A 
ATOM     31  C   UNL     1     -12.611  -3.880  10.852  0.00  0.00    +0.057 A 
ATOM     34  C   UNL     1     -14.759  -3.213  11.734  0.00  0.00    +0.002 A 
ATOM     35  C   UNL     1     -13.841  -3.244  10.684  0.00  0.00    +0.012 A 
BRANCH  31  36
ATOM      1  F   UNL     1     -10.803  -5.001   9.758  0.00  0.00    -0.166 F 
ATOM      2  F   UNL     1     -10.796  -2.832   9.699  0.00  0.00    -0.166 F 
ATOM      3  F   UNL     1     -12.233  -3.945   8.505  0.00  0.00    -0.166 F 
ATOM     36  C   UNL     1     -11.630  -3.913   9.730  0.00  0.00    +0.417 C 
ENDBRANCH  31  36
ENDBRANCH  12  28
ENDBRANCH   6  21
ENDBRANCH  17   6
TORSDOF 7
ENDMDL
MODEL 5
REMARK VINA RESULT:      -7.5      8.571     12.485
REMARK  Name = 11867501
REMARK  9 active torsions:
REMARK  status: ('A' for Active; 'I' for Inactive)
REMARK    1  A    between atoms: O_6  and  C_17
REMARK    2  A    between atoms: O_6  and  C_21
REMARK    3  A    between atoms: N_8  and  C_16
REMARK    4  A    between atoms: N_12  and  C_28
REMARK    5  A    between atoms: N_13  and  C_27
REMARK    6  A    between atoms: N_13  and  C_32
REMARK    7  A    between atoms: N_13  and  C_33
REMARK    8  A    between atoms: C_20  and  C_22
REMARK    9  A    between atoms: C_31  and  C_36
REMARK                            x       y       z     vdW  Elec       q    Type
REMARK                         _______ _______ _______ _____ _____    ______ ____
ROOT
ATOM      4  O   UNL     1      13.306   8.775  15.279  0.00  0.00    -0.368 OA
ATOM      5  O   UNL     1      15.028  10.807  16.850  0.00  0.00    -0.368 OA
ATOM     14  C   UNL     1      13.902   9.988  17.234  0.00  0.00    +0.177 C 
ATOM     15  C   UNL     1      12.965   9.943  16.043  0.00  0.00    +0.192 C 
ATOM     16  C   UNL     1      14.356   8.552  17.415  0.00  0.00    +0.168 C 
ATOM     17  C   UNL     1      13.309  11.213  15.301  0.00  0.00    +0.235 C 
ATOM     18  C   UNL     1      14.269   7.992  15.999  0.00  0.00    +0.190 C 
ATOM     19  C   UNL     1      14.799  11.321  15.530  0.00  0.00    +0.207 C 
ENDROOT
BRANCH  16   8
ATOM      8  N   UNL     1      13.569   7.838  18.423  0.00  0.00    -0.217 N 
ATOM      9  N   UNL     1      12.272   7.586  18.218  0.00  0.00    -0.043 NA
ATOM     10  N   UNL     1      12.918   6.783  20.195  0.00  0.00    -0.108 NA
ATOM     11  N   UNL     1      11.877   6.939  19.307  0.00  0.00    -0.023 NA
ATOM     20  C   UNL     1      13.957   7.348  19.624  0.00  0.00    +0.182 A 
BRANCH  20  22
ATOM     22  C   UNL     1      15.291   7.448  20.158  0.00  0.00    +0.021 A 
ATOM     23  C   UNL     1      15.642   8.530  20.967  0.00  0.00    +0.013 A 
ATOM     24  C   UNL     1      16.236   6.462  19.868  0.00  0.00    +0.013 A 
ATOM     25  C   UNL     1      16.934   8.626  21.484  0.00  0.00    +0.024 A 
ATOM     26  C   UNL     1      17.528   6.559  20.384  0.00  0.00    +0.024 A 
ATOM     27  C   UNL     1      17.877   7.641  21.193  0.00  0.00    +0.029 A 
BRANCH  27  13
ATOM     13  N   UNL     1      19.183   7.738  21.716  0.00  0.00    -0.336 N 
ATOM     32  C   UNL     1      19.784   6.614  22.406  0.00  0.00    +0.129 C 
ATOM     33  C   UNL     1      19.935   8.970  21.585  0.00  0.00    +0.129 C 
ENDBRANCH  27  13
ENDBRANCH  20  22
ENDBRANCH  16   8
BRANCH  17   6
ATOM      6  O   UNL     1      12.983  11.172  13.931  0.00  0.00    -0.442 OA
BRANCH   6  21
ATOM      7  O   UNL     1      13.042  13.284  13.056  0.00  0.00    -0.226 OA
ATOM     12  N   UNL     1      11.030  12.118  13.317  0.00  0.00    -0.251 N 
ATOM     21  C   UNL     1      12.396  12.300  13.395  0.00  0.00    +0.405 C 
ATOM     37  H   UNL     1      10.677  11.223  13.650  0.00  0.00    +0.158 HD
BRANCH  12  28
ATOM     28  C   UNL     1      10.057  13.020  12.831  0.00  0.00    +0.037 A 
ATOM     29  C   UNL     1       9.380  12.724  11.660  0.00  0.00    +0.035 A 
ATOM     30  C   UNL     1       9.800  14.185  13.536  0.00  0.00    +0.023 A 
ATOM     31  C   UNL     1       8.419  13.615  11.181  0.00  0.00    +0.057 A 
ATOM     34  C   UNL     1       8.840  15.077  13.058  0.00  0.00    +0.002 A 
ATOM     35  C   UNL     1       8.150  14.791  11.879  0.00  0.00    +0.012 A 
BRANCH  31  36
ATOM      1  F   UNL     1       6.356  13.036  10.116  0.00  0.00    -0.166 F 
ATOM      2  F   UNL     1       8.173  12.230   9.247  0.00  0.00    -0.166 F 
ATOM      3  F   UNL     1       7.713  14.344   9.030  0.00  0.00    -0.166 F 
ATOM     36  C   UNL     1       7.681  13.311   9.922  0.00  0.00    +0.417 C 
ENDBRANCH  31  36
ENDBRANCH  12  28
ENDBRANCH   6  21
ENDBRANCH  17   6
TORSDOF 7
ENDMDL
MODEL 6
REMARK VINA RESULT:      -7.4      5.538      8.070
REMARK  Name = 11867501
REMARK  9 active torsions:
REMARK  status: ('A' for Active; 'I' for Inactive)
REMARK    1  A    between atoms: O_6  and  C_17
REMARK    2  A    between atoms: O_6  and  C_21
REMARK    3  A    between atoms: N_8  and  C_16
REMARK    4  A    between atoms: N_12  and  C_28
REMARK    5  A    between atoms: N_13  and  C_27
REMARK    6  A    between atoms: N_13  and  C_32
REMARK    7  A    between atoms: N_13  and  C_33
REMARK    8  A    between atoms: C_20  and  C_22
REMARK    9  A    between atoms: C_31  and  C_36
REMARK                            x       y       z     vdW  Elec       q    Type
REMARK                         _______ _______ _______ _____ _____    ______ ____
ROOT
ATOM      4  O   UNL     1      11.936   9.695  16.599  0.00  0.00    -0.368 OA
ATOM      5  O   UNL     1      14.280   7.685  16.750  0.00  0.00    -0.368 OA
ATOM     14  C   UNL     1      13.633   8.497  17.754  0.00  0.00    +0.177 C 
ATOM     15  C   UNL     1      13.280   9.815  17.092  0.00  0.00    +0.192 C 
ATOM     16  C   UNL     1      12.293   7.884  18.116  0.00  0.00    +0.168 C 
ATOM     17  C   UNL     1      14.282   9.898  15.965  0.00  0.00    +0.235 C 
ATOM     18  C   UNL     1      11.361   8.464  17.058  0.00  0.00    +0.190 C 
ATOM     19  C   UNL     1      14.410   8.453  15.545  0.00  0.00    +0.207 C 
ENDROOT
BRANCH  16   8
ATOM      8  N   UNL     1      11.911   8.152  19.505  0.00  0.00    -0.217 N 
ATOM      9  N   UNL     1      10.644   8.445  19.816  0.00  0.00    -0.043 NA
ATOM     10  N   UNL     1      11.916   8.449  21.647  0.00  0.00    -0.108 NA
ATOM     11  N   UNL     1      10.652   8.626  21.130  0.00  0.00    -0.023 NA
ATOM     20  C   UNL     1      12.679   8.155  20.619  0.00  0.00    +0.182 A 
BRANCH  20  22
ATOM     22  C   UNL     1      14.094   7.880  20.642  0.00  0.00    +0.021 A 
ATOM     23  C   UNL     1      15.005   8.919  20.841  0.00  0.00    +0.013 A 
ATOM     24  C   UNL     1      14.555   6.575  20.467  0.00  0.00    +0.013 A 
ATOM     25  C   UNL     1      16.374   8.653  20.862  0.00  0.00    +0.024 A 
ATOM     26  C   UNL     1      15.924   6.309  20.487  0.00  0.00    +0.024 A 
ATOM     27  C   UNL     1      16.834   7.348  20.685  0.00  0.00    +0.029 A 
BRANCH  27  13
ATOM     13  N   UNL     1      18.219   7.079  20.708  0.00  0.00    -0.336 N 
ATOM     32  C   UNL     1      19.138   8.012  21.329  0.00  0.00    +0.129 C 
ATOM     33  C   UNL     1      18.742   5.874  20.097  0.00  0.00    +0.129 C 
ENDBRANCH  27  13
ENDBRANCH  20  22
ENDBRANCH  16   8
BRANCH  17   6
ATOM      6  O   UNL     1      13.867  10.726  14.902  0.00  0.00    -0.442 OA
BRANCH   6  21
ATOM      7  O   UNL     1      14.749  11.535  12.953  0.00  0.00    -0.226 OA
ATOM     12  N   UNL     1      15.930  11.636  14.972  0.00  0.00    -0.251 N 
ATOM     21  C   UNL     1      14.859  11.329  14.156  0.00  0.00    +0.405 C 
ATOM     37  H   UNL     1      15.832  11.385  15.953  0.00  0.00    +0.158 HD
BRANCH  12  28
ATOM     28  C   UNL     1      17.147  12.257  14.614  0.00  0.00    +0.037 A 
ATOM     29  C   UNL     1      18.310  11.505  14.580  0.00  0.00    +0.035 A 
ATOM     30  C   UNL     1      17.153  13.608  14.304  0.00  0.00    +0.023 A 
ATOM     31  C   UNL     1      19.512  12.120  14.225  0.00  0.00    +0.057 A 
ATOM     34  C   UNL     1      18.354  14.223  13.949  0.00  0.00    +0.002 A 
ATOM     35  C   UNL     1      19.534  13.478  13.911  0.00  0.00    +0.012 A 
BRANCH  31  36
ATOM      1  F   UNL     1      20.607  10.063  13.686  0.00  0.00    -0.166 F 
ATOM      2  F   UNL     1      21.351  11.152  15.408  0.00  0.00    -0.166 F 
ATOM      3  F   UNL     1      21.732  11.902  13.403  0.00  0.00    -0.166 F 
ATOM     36  C   UNL     1      20.772  11.325  14.183  0.00  0.00    +0.417 C 
ENDBRANCH  31  36
ENDBRANCH  12  28
ENDBRANCH   6  21
ENDBRANCH  17   6
TORSDOF 7
ENDMDL
MODEL 7
REMARK VINA RESULT:      -7.4      5.485     11.563
REMARK  Name = 11867501
REMARK  9 active torsions:
REMARK  status: ('A' for Active; 'I' for Inactive)
REMARK    1  A    between atoms: O_6  and  C_17
REMARK    2  A    between atoms: O_6  and  C_21
REMARK    3  A    between atoms: N_8  and  C_16
REMARK    4  A    between atoms: N_12  and  C_28
REMARK    5  A    between atoms: N_13  and  C_27
REMARK    6  A    between atoms: N_13  and  C_32
REMARK    7  A    between atoms: N_13  and  C_33
REMARK    8  A    between atoms: C_20  and  C_22
REMARK    9  A    between atoms: C_31  and  C_36
REMARK                            x       y       z     vdW  Elec       q    Type
REMARK                         _______ _______ _______ _____ _____    ______ ____
ROOT
ATOM      4  O   UNL     1      21.508   6.509  20.175  0.00  0.00    -0.368 OA
ATOM      5  O   UNL     1      20.843   5.814  23.113  0.00  0.00    -0.368 OA
ATOM     14  C   UNL     1      21.397   5.031  22.032  0.00  0.00    +0.177 C 
ATOM     15  C   UNL     1      20.699   5.479  20.763  0.00  0.00    +0.192 C 
ATOM     16  C   UNL     1      22.849   5.415  21.822  0.00  0.00    +0.168 C 
ATOM     17  C   UNL     1      19.389   6.026  21.280  0.00  0.00    +0.235 C 
ATOM     18  C   UNL     1      22.748   6.616  20.889  0.00  0.00    +0.190 C 
ATOM     19  C   UNL     1      19.802   6.653  22.591  0.00  0.00    +0.207 C 
ENDROOT
BRANCH  16   8
ATOM      8  N   UNL     1      23.657   4.298  21.324  0.00  0.00    -0.217 N 
ATOM      9  N   UNL     1      24.030   4.250  20.041  0.00  0.00    -0.043 NA
ATOM     10  N   UNL     1      24.806   2.474  21.145  0.00  0.00    -0.108 NA
ATOM     11  N   UNL     1      24.735   3.130  19.936  0.00  0.00    -0.023 NA
ATOM     20  C   UNL     1      24.131   3.219  21.991  0.00  0.00    +0.182 A 
BRANCH  20  22
ATOM     22  C   UNL     1      23.912   2.959  23.391  0.00  0.00    +0.021 A 
ATOM     23  C   UNL     1      24.777   3.498  24.346  0.00  0.00    +0.013 A 
ATOM     24  C   UNL     1      22.836   2.168  23.796  0.00  0.00    +0.013 A 
ATOM     25  C   UNL     1      24.566   3.246  25.701  0.00  0.00    +0.024 A 
ATOM     26  C   UNL     1      22.626   1.915  25.152  0.00  0.00    +0.024 A 
ATOM     27  C   UNL     1      23.491   2.454  26.104  0.00  0.00    +0.029 A 
BRANCH  27  13
ATOM     13  N   UNL     1      23.278   2.200  27.476  0.00  0.00    -0.336 N 
ATOM     32  C   UNL     1      23.554   3.224  28.464  0.00  0.00    +0.129 C 
ATOM     33  C   UNL     1      22.794   0.906  27.915  0.00  0.00    +0.129 C 
ENDBRANCH  27  13
ENDBRANCH  20  22
ENDBRANCH  16   8
BRANCH  17   6
ATOM      6  O   UNL     1      18.786   6.958  20.412  0.00  0.00    -0.442 OA
BRANCH   6  21
ATOM      7  O   UNL     1      17.584   5.582  19.036  0.00  0.00    -0.226 OA
ATOM     12  N   UNL     1      16.599   7.416  20.106  0.00  0.00    -0.251 N 
ATOM     21  C   UNL     1      17.629   6.559  19.774  0.00  0.00    +0.405 C 
ATOM     37  H   UNL     1      16.834   8.176  20.740  0.00  0.00    +0.158 HD
BRANCH  12  28
ATOM     28  C   UNL     1      15.254   7.370  19.674  0.00  0.00    +0.037 A 
ATOM     29  C   UNL     1      14.245   7.216  20.610  0.00  0.00    +0.035 A 
ATOM     30  C   UNL     1      14.972   7.478  18.322  0.00  0.00    +0.023 A 
ATOM     31  C   UNL     1      12.916   7.171  20.183  0.00  0.00    +0.057 A 
ATOM     34  C   UNL     1      13.644   7.433  17.894  0.00  0.00    +0.002 A 
ATOM     35  C   UNL     1      12.617   7.279  18.826  0.00  0.00    +0.012 A 
BRANCH  31  36
ATOM      1  F   UNL     1      10.633   7.559  20.782  0.00  0.00    -0.166 F 
ATOM      2  F   UNL     1      12.089   7.574  22.390  0.00  0.00    -0.166 F 
ATOM      3  F   UNL     1      11.540   5.696  21.442  0.00  0.00    -0.166 F 
ATOM     36  C   UNL     1      11.818   7.006  21.178  0.00  0.00    +0.417 C 
ENDBRANCH  31  36
ENDBRANCH  12  28
ENDBRANCH   6  21
ENDBRANCH  17   6
TORSDOF 7
ENDMDL
MODEL 8
REMARK VINA RESULT:      -7.3     28.781     31.398
REMARK  Name = 11867501
REMARK  9 active torsions:
REMARK  status: ('A' for Active; 'I' for Inactive)
REMARK    1  A    between atoms: O_6  and  C_17
REMARK    2  A    between atoms: O_6  and  C_21
REMARK    3  A    between atoms: N_8  and  C_16
REMARK    4  A    between atoms: N_12  and  C_28
REMARK    5  A    between atoms: N_13  and  C_27
REMARK    6  A    between atoms: N_13  and  C_32
REMARK    7  A    between atoms: N_13  and  C_33
REMARK    8  A    between atoms: C_20  and  C_22
REMARK    9  A    between atoms: C_31  and  C_36
REMARK                            x       y       z     vdW  Elec       q    Type
REMARK                         _______ _______ _______ _____ _____    ______ ____
ROOT
ATOM      4  O   UNL     1      -6.813 -11.627  16.856  0.00  0.00    -0.368 OA
ATOM      5  O   UNL     1      -6.555 -11.050  19.882  0.00  0.00    -0.368 OA
ATOM     14  C   UNL     1      -7.025 -10.246  18.778  0.00  0.00    +0.177 C 
ATOM     15  C   UNL     1      -6.151 -10.582  17.586  0.00  0.00    +0.192 C 
ATOM     16  C   UNL     1      -8.413 -10.704  18.372  0.00  0.00    +0.168 C 
ATOM     17  C   UNL     1      -4.880 -11.076  18.235  0.00  0.00    +0.235 C 
ATOM     18  C   UNL     1      -8.120 -11.846  17.405  0.00  0.00    +0.190 C 
ATOM     19  C   UNL     1      -5.405 -11.795  19.455  0.00  0.00    +0.207 C 
ENDROOT
BRANCH  16   8
ATOM      8  N   UNL     1      -9.227  -9.613  17.829  0.00  0.00    -0.217 N 
ATOM      9  N   UNL     1      -8.673  -8.673  17.056  0.00  0.00    -0.043 NA
ATOM     10  N   UNL     1     -10.852  -8.280  17.320  0.00  0.00    -0.108 NA
ATOM     11  N   UNL     1      -9.674  -7.858  16.747  0.00  0.00    -0.023 NA
ATOM     20  C   UNL     1     -10.550  -9.372  17.986  0.00  0.00    +0.182 A 
BRANCH  20  22
ATOM     22  C   UNL     1     -11.448 -10.191  18.760  0.00  0.00    +0.021 A 
ATOM     23  C   UNL     1     -12.042 -11.314  18.182  0.00  0.00    +0.013 A 
ATOM     24  C   UNL     1     -11.724  -9.863  20.088  0.00  0.00    +0.013 A 
ATOM     25  C   UNL     1     -12.911 -12.107  18.932  0.00  0.00    +0.024 A 
ATOM     26  C   UNL     1     -12.594 -10.656  20.837  0.00  0.00    +0.024 A 
ATOM     27  C   UNL     1     -13.188 -11.778  20.259  0.00  0.00    +0.029 A 
BRANCH  27  13
ATOM     13  N   UNL     1     -14.067 -12.581  21.016  0.00  0.00    -0.336 N 
ATOM     32  C   UNL     1     -13.983 -12.598  22.462  0.00  0.00    +0.129 C 
ATOM     33  C   UNL     1     -15.055 -13.410  20.355  0.00  0.00    +0.129 C 
ENDBRANCH  27  13
ENDBRANCH  20  22
ENDBRANCH  16   8
BRANCH  17   6
ATOM      6  O   UNL     1      -4.116 -11.922  17.407  0.00  0.00    -0.442 OA
BRANCH   6  21
ATOM      7  O   UNL     1      -2.363 -10.671  16.637  0.00  0.00    -0.226 OA
ATOM     12  N   UNL     1      -3.962 -11.571  15.184  0.00  0.00    -0.251 N 
ATOM     21  C   UNL     1      -3.377 -11.320  16.410  0.00  0.00    +0.405 C 
ATOM     37  H   UNL     1      -4.809 -12.136  15.199  0.00  0.00    +0.158 HD
BRANCH  12  28
ATOM     28  C   UNL     1      -3.532 -11.142  13.909  0.00  0.00    +0.037 A 
ATOM     29  C   UNL     1      -4.389 -10.394  13.118  0.00  0.00    +0.035 A 
ATOM     30  C   UNL     1      -2.259 -11.478  13.474  0.00  0.00    +0.023 A 
ATOM     31  C   UNL     1      -3.962  -9.969  11.859  0.00  0.00    +0.057 A 
ATOM     34  C   UNL     1      -1.833 -11.054  12.216  0.00  0.00    +0.002 A 
ATOM     35  C   UNL     1      -2.685 -10.300  11.408  0.00  0.00    +0.012 A 
BRANCH  31  36
ATOM      1  F   UNL     1      -5.795  -8.441  11.698  0.00  0.00    -0.166 F 
ATOM      2  F   UNL     1      -5.601  -9.914  10.118  0.00  0.00    -0.166 F 
ATOM      3  F   UNL     1      -4.201  -8.254  10.230  0.00  0.00    -0.166 F 
ATOM     36  C   UNL     1      -4.872  -9.164  10.996  0.00  0.00    +0.417 C 
ENDBRANCH  31  36
ENDBRANCH  12  28
ENDBRANCH   6  21
ENDBRANCH  17   6
TORSDOF 7
ENDMDL
MODEL 9
REMARK VINA RESULT:      -7.3     16.858     18.619
REMARK  Name = 11867501
REMARK  9 active torsions:
REMARK  status: ('A' for Active; 'I' for Inactive)
REMARK    1  A    between atoms: O_6  and  C_17
REMARK    2  A    between atoms: O_6  and  C_21
REMARK    3  A    between atoms: N_8  and  C_16
REMARK    4  A    between atoms: N_12  and  C_28
REMARK    5  A    between atoms: N_13  and  C_27
REMARK    6  A    between atoms: N_13  and  C_32
REMARK    7  A    between atoms: N_13  and  C_33
REMARK    8  A    between atoms: C_20  and  C_22
REMARK    9  A    between atoms: C_31  and  C_36
REMARK                            x       y       z     vdW  Elec       q    Type
REMARK                         _______ _______ _______ _____ _____    ______ ____
ROOT
ATOM      4  O   UNL     1      12.764   8.922   5.269  0.00  0.00    -0.368 OA
ATOM      5  O   UNL     1      13.843   7.950   2.540  0.00  0.00    -0.368 OA
ATOM     14  C   UNL     1      13.304   7.242   3.678  0.00  0.00    +0.177 C 
ATOM     15  C   UNL     1      13.783   7.973   4.916  0.00  0.00    +0.192 C 
ATOM     16  C   UNL     1      11.795   7.398   3.704  0.00  0.00    +0.168 C 
ATOM     17  C   UNL     1      15.039   8.658   4.433  0.00  0.00    +0.235 C 
ATOM     18  C   UNL     1      11.607   8.717   4.446  0.00  0.00    +0.190 C 
ATOM     19  C   UNL     1      14.678   9.018   3.011  0.00  0.00    +0.207 C 
ENDROOT
BRANCH  16   8
ATOM      8  N   UNL     1      11.122   6.241   4.299  0.00  0.00    -0.217 N 
ATOM      9  N   UNL     1      10.694   6.281   5.565  0.00  0.00    -0.043 NA
ATOM     10  N   UNL     1      10.224   4.304   4.647  0.00  0.00    -0.108 NA
ATOM     11  N   UNL     1      10.144   5.091   5.774  0.00  0.00    -0.023 NA
ATOM     20  C   UNL     1      10.834   5.040   3.745  0.00  0.00    +0.182 A 
BRANCH  20  22
ATOM     22  C   UNL     1      11.156   4.661   2.393  0.00  0.00    +0.021 A 
ATOM     23  C   UNL     1      10.301   5.011   1.346  0.00  0.00    +0.013 A 
ATOM     24  C   UNL     1      12.324   3.945   2.126  0.00  0.00    +0.013 A 
ATOM     25  C   UNL     1      10.613   4.644   0.037  0.00  0.00    +0.024 A 
ATOM     26  C   UNL     1      12.635   3.577   0.817  0.00  0.00    +0.024 A 
ATOM     27  C   UNL     1      11.780   3.927  -0.228  0.00  0.00    +0.029 A 
BRANCH  27  13
ATOM     13  N   UNL     1      12.095   3.557  -1.552  0.00  0.00    -0.336 N 
ATOM     32  C   UNL     1      13.411   3.822  -2.096  0.00  0.00    +0.129 C 
ATOM     33  C   UNL     1      11.099   2.920  -2.392  0.00  0.00    +0.129 C 
ENDBRANCH  27  13
ENDBRANCH  20  22
ENDBRANCH  16   8
BRANCH  17   6
ATOM      6  O   UNL     1      15.393   9.790   5.194  0.00  0.00    -0.442 OA
BRANCH   6  21
ATOM      7  O   UNL     1      17.136  10.831   6.247  0.00  0.00    -0.226 OA
ATOM     12  N   UNL     1      17.383   8.730   5.244  0.00  0.00    -0.251 N 
ATOM     21  C   UNL     1      16.701   9.869   5.625  0.00  0.00    +0.405 C 
ATOM     37  H   UNL     1      16.845   8.036   4.729  0.00  0.00    +0.158 HD
BRANCH  12  28
ATOM     28  C   UNL     1      18.738   8.406   5.482  0.00  0.00    +0.037 A 
ATOM     29  C   UNL     1      19.499   7.873   4.455  0.00  0.00    +0.035 A 
ATOM     30  C   UNL     1      19.278   8.628   6.738  0.00  0.00    +0.023 A 
ATOM     31  C   UNL     1      20.838   7.554   4.690  0.00  0.00    +0.057 A 
ATOM     34  C   UNL     1      20.616   8.310   6.974  0.00  0.00    +0.002 A 
ATOM     35  C   UNL     1      21.395   7.772   5.949  0.00  0.00    +0.012 A 
BRANCH  31  36
ATOM      1  F   UNL     1      22.785   7.717   3.310  0.00  0.00    -0.166 F 
ATOM      2  F   UNL     1      21.008   6.862   2.407  0.00  0.00    -0.166 F 
ATOM      3  F   UNL     1      22.128   5.726   3.884  0.00  0.00    -0.166 F 
ATOM     36  C   UNL     1      21.671   6.979   3.595  0.00  0.00    +0.417 C 
ENDBRANCH  31  36
ENDBRANCH  12  28
ENDBRANCH   6  21
ENDBRANCH  17   6
TORSDOF 7
ENDMDL
MODEL 10
REMARK VINA RESULT:      -7.1      5.642      7.020
REMARK  Name = 11867501
REMARK  9 active torsions:
REMARK  status: ('A' for Active; 'I' for Inactive)
REMARK    1  A    between atoms: O_6  and  C_17
REMARK    2  A    between atoms: O_6  and  C_21
REMARK    3  A    between atoms: N_8  and  C_16
REMARK    4  A    between atoms: N_12  and  C_28
REMARK    5  A    between atoms: N_13  and  C_27
REMARK    6  A    between atoms: N_13  and  C_32
REMARK    7  A    between atoms: N_13  and  C_33
REMARK    8  A    between atoms: C_20  and  C_22
REMARK    9  A    between atoms: C_31  and  C_36
REMARK                            x       y       z     vdW  Elec       q    Type
REMARK                         _______ _______ _______ _____ _____    ______ ____
ROOT
ATOM      4  O   UNL     1      13.851  10.592  17.976  0.00  0.00    -0.368 OA
ATOM      5  O   UNL     1      12.253   8.331  16.601  0.00  0.00    -0.368 OA
ATOM     14  C   UNL     1      13.389   8.312  17.493  0.00  0.00    +0.177 C 
ATOM     15  C   UNL     1      14.253   9.504  17.129  0.00  0.00    +0.192 C 
ATOM     16  C   UNL     1      12.927   8.596  18.909  0.00  0.00    +0.168 C 
ATOM     17  C   UNL     1      13.883   9.754  15.686  0.00  0.00    +0.235 C 
ATOM     18  C   UNL     1      12.922  10.120  18.962  0.00  0.00    +0.190 C 
ATOM     19  C   UNL     1      12.411   9.414  15.672  0.00  0.00    +0.207 C 
ENDROOT
BRANCH  16   8
ATOM      8  N   UNL     1      13.763   7.935  19.915  0.00  0.00    -0.217 N 
ATOM      9  N   UNL     1      14.555   6.913  19.573  0.00  0.00    -0.043 NA
ATOM     10  N   UNL     1      14.747   7.353  21.750  0.00  0.00    -0.108 NA
ATOM     11  N   UNL     1      15.156   6.560  20.702  0.00  0.00    -0.023 NA
ATOM     20  C   UNL     1      13.883   8.199  21.237  0.00  0.00    +0.182 A 
BRANCH  20  22
ATOM     22  C   UNL     1      13.169   9.238  21.934  0.00  0.00    +0.021 A 
ATOM     23  C   UNL     1      13.833  10.404  22.320  0.00  0.00    +0.013 A 
ATOM     24  C   UNL     1      11.813   9.081  22.225  0.00  0.00    +0.013 A 
ATOM     25  C   UNL     1      13.141  11.410  22.996  0.00  0.00    +0.024 A 
ATOM     26  C   UNL     1      11.122  10.086  22.902  0.00  0.00    +0.024 A 
ATOM     27  C   UNL     1      11.786  11.251  23.287  0.00  0.00    +0.029 A 
BRANCH  27  13
ATOM     13  N   UNL     1      11.088  12.269  23.969  0.00  0.00    -0.336 N 
ATOM     32  C   UNL     1      10.873  12.181  25.400  0.00  0.00    +0.129 C 
ATOM     33  C   UNL     1      10.563  13.410  23.246  0.00  0.00    +0.129 C 
ENDBRANCH  27  13
ENDBRANCH  20  22
ENDBRANCH  16   8
BRANCH  17   6
ATOM      6  O   UNL     1      14.127  11.076  15.263  0.00  0.00    -0.442 OA
BRANCH   6  21
ATOM      7  O   UNL     1      15.249  10.806  13.290  0.00  0.00    -0.226 OA
ATOM     12  N   UNL     1      16.150  12.052  15.054  0.00  0.00    -0.251 N 
ATOM     21  C   UNL     1      15.201  11.274  14.420  0.00  0.00    +0.405 C 
ATOM     37  H   UNL     1      15.926  12.349  16.002  0.00  0.00    +0.158 HD
BRANCH  12  28
ATOM     28  C   UNL     1      17.395  12.488  14.551  0.00  0.00    +0.037 A 
ATOM     29  C   UNL     1      18.508  11.676  14.692  0.00  0.00    +0.035 A 
ATOM     30  C   UNL     1      17.479  13.722  13.925  0.00  0.00    +0.023 A 
ATOM     31  C   UNL     1      19.739  12.108  14.194  0.00  0.00    +0.057 A 
ATOM     34  C   UNL     1      18.709  14.154  13.427  0.00  0.00    +0.002 A 
ATOM     35  C   UNL     1      19.838  13.347  13.562  0.00  0.00    +0.012 A 
BRANCH  31  36
ATOM      1  F   UNL     1      21.317  11.035  15.636  0.00  0.00    -0.166 F 
ATOM      2  F   UNL     1      22.057  11.752  13.727  0.00  0.00    -0.166 F 
ATOM      3  F   UNL     1      20.770  10.001  13.802  0.00  0.00    -0.166 F 
ATOM     36  C   UNL     1      20.946  11.245  14.338  0.00  0.00    +0.417 C 
ENDBRANCH  31  36
ENDBRANCH  12  28
ENDBRANCH   6  21
ENDBRANCH  17   6
TORSDOF 7
ENDMDL
