MODEL 1
REMARK VINA RESULT:      -8.1      0.000      0.000
REMARK  Name = 51137120
REMARK  4 active torsions:
REMARK  status: ('A' for Active; 'I' for Inactive)
REMARK    1  A    between atoms: N_4  and  C_12
REMARK    2  A    between atoms: C_7  and  C_11
REMARK    3  A    between atoms: C_12  and  C_13
REMARK    4  A    between atoms: C_22  and  C_25
REMARK                            x       y       z     vdW  Elec       q    Type
REMARK                         _______ _______ _______ _____ _____    ______ ____
ROOT
ATOM      4  N   UNL     1      13.837   7.153  20.285  0.00  0.00    -0.297 NA
ATOM      7  C   UNL     1      12.617   8.316  21.915  0.00  0.00    +0.070 C 
ATOM      8  C   UNL     1      11.676   7.377  21.141  0.00  0.00    +0.028 C 
ATOM      9  C   UNL     1      13.879   8.403  21.048  0.00  0.00    +0.096 C 
ATOM     10  C   UNL     1      12.440   7.010  19.876  0.00  0.00    +0.085 C 
ENDROOT
BRANCH   7  11
ATOM      5  N   UNL     1      11.637   9.986  23.513  0.00  0.00    -0.342 N 
ATOM      6  N   UNL     1      11.840  10.667  21.406  0.00  0.00    -0.232 NA
ATOM     11  C   UNL     1      12.034   9.672  22.243  0.00  0.00    +0.113 A 
ATOM     14  C   UNL     1      11.156  11.270  23.495  0.00  0.00    +0.066 A 
ATOM     15  C   UNL     1      11.293  11.674  22.169  0.00  0.00    +0.089 A 
ATOM     18  C   UNL     1      10.628  12.089  24.494  0.00  0.00    +0.028 A 
ATOM     19  C   UNL     1      10.885  12.966  21.801  0.00  0.00    +0.030 A 
ATOM     23  C   UNL     1      10.227  13.373  24.109  0.00  0.00    +0.002 A 
ATOM     24  C   UNL     1      10.352  13.805  22.787  0.00  0.00    +0.002 A 
ATOM     26  H   UNL     1      11.688   9.384  24.323  0.00  0.00    +0.167 HD
ENDBRANCH   7  11
BRANCH   4  12
ATOM     12  C   UNL     1      14.748   7.163  19.150  0.00  0.00    +0.119 C 
BRANCH  12  13
ATOM     13  C   UNL     1      16.147   6.781  19.551  0.00  0.00    -0.033 A 
ATOM     16  C   UNL     1      16.737   7.369  20.670  0.00  0.00    +0.005 A 
ATOM     17  C   UNL     1      16.854   5.837  18.805  0.00  0.00    +0.005 A 
ATOM     20  C   UNL     1      18.034   7.015  21.042  0.00  0.00    +0.012 A 
ATOM     21  C   UNL     1      18.150   5.483  19.178  0.00  0.00    +0.012 A 
ATOM     22  C   UNL     1      18.740   6.072  20.296  0.00  0.00    +0.055 A 
BRANCH  22  25
ATOM      1  F   UNL     1      20.320   5.673  22.048  0.00  0.00    -0.166 F 
ATOM      2  F   UNL     1      21.068   6.546  20.202  0.00  0.00    -0.166 F 
ATOM      3  F   UNL     1      20.498   4.449  20.267  0.00  0.00    -0.166 F 
ATOM     25  C   UNL     1      20.126   5.691  20.696  0.00  0.00    +0.417 C 
ENDBRANCH  22  25
ENDBRANCH  12  13
ENDBRANCH   4  12
TORSDOF 4
ENDMDL
MODEL 2
REMARK VINA RESULT:      -7.5     27.411     29.759
REMARK  Name = 51137120
REMARK  4 active torsions:
REMARK  status: ('A' for Active; 'I' for Inactive)
REMARK    1  A    between atoms: N_4  and  C_12
REMARK    2  A    between atoms: C_7  and  C_11
REMARK    3  A    between atoms: C_12  and  C_13
REMARK    4  A    between atoms: C_22  and  C_25
REMARK                            x       y       z     vdW  Elec       q    Type
REMARK                         _______ _______ _______ _____ _____    ______ ____
ROOT
ATOM      4  N   UNL     1     -14.934   5.988  22.058  0.00  0.00    -0.297 NA
ATOM      7  C   UNL     1     -15.673   4.010  23.077  0.00  0.00    +0.070 C 
ATOM      8  C   UNL     1     -16.869   4.740  22.444  0.00  0.00    +0.028 C 
ATOM      9  C   UNL     1     -14.558   5.062  23.128  0.00  0.00    +0.096 C 
ATOM     10  C   UNL     1     -16.379   6.161  22.201  0.00  0.00    +0.085 C 
ENDROOT
BRANCH   7  11
ATOM      5  N   UNL     1     -15.789   4.085  25.583  0.00  0.00    -0.342 N 
ATOM      6  N   UNL     1     -16.359   2.151  24.646  0.00  0.00    -0.232 NA
ATOM     11  C   UNL     1     -15.951   3.380  24.423  0.00  0.00    +0.113 A 
ATOM     14  C   UNL     1     -16.114   3.255  26.626  0.00  0.00    +0.066 A 
ATOM     15  C   UNL     1     -16.466   2.054  26.015  0.00  0.00    +0.089 A 
ATOM     18  C   UNL     1     -16.130   3.445  28.008  0.00  0.00    +0.028 A 
ATOM     19  C   UNL     1     -16.860   0.968  26.815  0.00  0.00    +0.030 A 
ATOM     23  C   UNL     1     -16.525   2.354  28.789  0.00  0.00    +0.002 A 
ATOM     24  C   UNL     1     -16.884   1.136  28.205  0.00  0.00    +0.002 A 
ATOM     26  H   UNL     1     -15.484   5.045  25.664  0.00  0.00    +0.167 HD
ENDBRANCH   7  11
BRANCH   4  12
ATOM     12  C   UNL     1     -14.214   7.250  22.136  0.00  0.00    +0.119 C 
BRANCH  12  13
ATOM     13  C   UNL     1     -13.362   7.486  20.918  0.00  0.00    -0.033 A 
ATOM     16  C   UNL     1     -13.889   8.166  19.819  0.00  0.00    +0.005 A 
ATOM     17  C   UNL     1     -12.045   7.026  20.886  0.00  0.00    +0.005 A 
ATOM     20  C   UNL     1     -13.101   8.385  18.690  0.00  0.00    +0.012 A 
ATOM     21  C   UNL     1     -11.257   7.245  19.757  0.00  0.00    +0.012 A 
ATOM     22  C   UNL     1     -11.784   7.925  18.660  0.00  0.00    +0.055 A 
BRANCH  22  25
ATOM      1  F   UNL     1     -11.655   8.526  16.347  0.00  0.00    -0.166 F 
ATOM      2  F   UNL     1     -10.233   7.054  17.082  0.00  0.00    -0.166 F 
ATOM      3  F   UNL     1     -10.012   9.149  17.619  0.00  0.00    -0.166 F 
ATOM     25  C   UNL     1     -10.940   8.161  17.453  0.00  0.00    +0.417 C 
ENDBRANCH  22  25
ENDBRANCH  12  13
ENDBRANCH   4  12
TORSDOF 4
ENDMDL
MODEL 3
REMARK VINA RESULT:      -7.5     17.712     19.597
REMARK  Name = 51137120
REMARK  4 active torsions:
REMARK  status: ('A' for Active; 'I' for Inactive)
REMARK    1  A    between atoms: N_4  and  C_12
REMARK    2  A    between atoms: C_7  and  C_11
REMARK    3  A    between atoms: C_12  and  C_13
REMARK    4  A    between atoms: C_22  and  C_25
REMARK                            x       y       z     vdW  Elec       q    Type
REMARK                         _______ _______ _______ _____ _____    ______ ____
ROOT
ATOM      4  N   UNL     1      11.948   4.172   1.830  0.00  0.00    -0.297 NA
ATOM      7  C   UNL     1      10.415   5.181   3.289  0.00  0.00    +0.070 C 
ATOM      8  C   UNL     1      11.345   6.254   2.699  0.00  0.00    +0.028 C 
ATOM      9  C   UNL     1      11.119   3.850   2.994  0.00  0.00    +0.096 C 
ATOM     10  C   UNL     1      12.528   5.480   2.132  0.00  0.00    +0.085 C 
ENDROOT
BRANCH   7  11
ATOM      5  N   UNL     1      10.242   4.338   5.647  0.00  0.00    -0.342 N 
ATOM      6  N   UNL     1       9.633   6.453   5.329  0.00  0.00    -0.232 NA
ATOM     11  C   UNL     1      10.086   5.361   4.754  0.00  0.00    +0.113 A 
ATOM     14  C   UNL     1       9.865   4.801   6.883  0.00  0.00    +0.066 A 
ATOM     15  C   UNL     1       9.490   6.123   6.658  0.00  0.00    +0.089 A 
ATOM     18  C   UNL     1       9.823   4.196   8.139  0.00  0.00    +0.028 A 
ATOM     19  C   UNL     1       9.042   6.901   7.738  0.00  0.00    +0.030 A 
ATOM     23  C   UNL     1       9.376   4.985   9.203  0.00  0.00    +0.002 A 
ATOM     24  C   UNL     1       8.991   6.314   9.008  0.00  0.00    +0.002 A 
ATOM     26  H   UNL     1      10.575   3.406   5.440  0.00  0.00    +0.167 HD
ENDBRANCH   7  11
BRANCH   4  12
ATOM     12  C   UNL     1      12.963   3.161   1.575  0.00  0.00    +0.119 C 
BRANCH  12  13
ATOM     13  C   UNL     1      13.936   3.599   0.513  0.00  0.00    -0.033 A 
ATOM     16  C   UNL     1      15.274   3.819   0.841  0.00  0.00    +0.005 A 
ATOM     17  C   UNL     1      13.500   3.785  -0.799  0.00  0.00    +0.005 A 
ATOM     20  C   UNL     1      16.176   4.225  -0.142  0.00  0.00    +0.012 A 
ATOM     21  C   UNL     1      14.402   4.191  -1.782  0.00  0.00    +0.012 A 
ATOM     22  C   UNL     1      15.740   4.410  -1.454  0.00  0.00    +0.055 A 
BRANCH  22  25
ATOM      1  F   UNL     1      16.199   4.772  -3.774  0.00  0.00    -0.166 F 
ATOM      2  F   UNL     1      17.838   4.082  -2.523  0.00  0.00    -0.166 F 
ATOM      3  F   UNL     1      17.130   6.132  -2.364  0.00  0.00    -0.166 F 
ATOM     25  C   UNL     1      16.704   4.842  -2.507  0.00  0.00    +0.417 C 
ENDBRANCH  22  25
ENDBRANCH  12  13
ENDBRANCH   4  12
TORSDOF 4
ENDMDL
MODEL 4
REMARK VINA RESULT:      -7.4     18.655     22.349
REMARK  Name = 51137120
REMARK  4 active torsions:
REMARK  status: ('A' for Active; 'I' for Inactive)
REMARK    1  A    between atoms: N_4  and  C_12
REMARK    2  A    between atoms: C_7  and  C_11
REMARK    3  A    between atoms: C_12  and  C_13
REMARK    4  A    between atoms: C_22  and  C_25
REMARK                            x       y       z     vdW  Elec       q    Type
REMARK                         _______ _______ _______ _____ _____    ______ ____
ROOT
ATOM      4  N   UNL     1      -1.431  10.643  36.820  0.00  0.00    -0.297 NA
ATOM      7  C   UNL     1       0.088  12.220  35.980  0.00  0.00    +0.070 C 
ATOM      8  C   UNL     1      -1.047  12.945  36.724  0.00  0.00    +0.028 C 
ATOM      9  C   UNL     1      -0.443  10.799  35.750  0.00  0.00    +0.096 C 
ATOM     10  C   UNL     1      -2.159  11.912  36.847  0.00  0.00    +0.085 C 
ENDROOT
BRANCH   7  11
ATOM      5  N   UNL     1       0.680  12.188  33.541  0.00  0.00    -0.342 N 
ATOM      6  N   UNL     1       0.852  14.161  34.553  0.00  0.00    -0.232 NA
ATOM     11  C   UNL     1       0.544  12.892  34.705  0.00  0.00    +0.113 A 
ATOM     14  C   UNL     1       1.104  13.061  32.571  0.00  0.00    +0.066 A 
ATOM     15  C   UNL     1       1.204  14.286  33.227  0.00  0.00    +0.089 A 
ATOM     18  C   UNL     1       1.399  12.891  31.219  0.00  0.00    +0.028 A 
ATOM     19  C   UNL     1       1.622  15.417  32.506  0.00  0.00    +0.030 A 
ATOM     23  C   UNL     1       1.813  14.027  30.517  0.00  0.00    +0.002 A 
ATOM     24  C   UNL     1       1.924  15.269  31.148  0.00  0.00    +0.002 A 
ATOM     26  H   UNL     1       0.501  11.202  33.412  0.00  0.00    +0.167 HD
ENDBRANCH   7  11
BRANCH   4  12
ATOM     12  C   UNL     1      -2.310   9.504  36.603  0.00  0.00    +0.119 C 
BRANCH  12  13
ATOM     13  C   UNL     1      -2.036   8.391  37.578  0.00  0.00    -0.033 A 
ATOM     16  C   UNL     1      -2.957   8.104  38.587  0.00  0.00    +0.005 A 
ATOM     17  C   UNL     1      -0.861   7.645  37.474  0.00  0.00    +0.005 A 
ATOM     20  C   UNL     1      -2.703   7.073  39.490  0.00  0.00    +0.012 A 
ATOM     21  C   UNL     1      -0.608   6.614  38.378  0.00  0.00    +0.012 A 
ATOM     22  C   UNL     1      -1.529   6.327  39.386  0.00  0.00    +0.055 A 
BRANCH  22  25
ATOM      1  F   UNL     1      -0.830   4.069  39.756  0.00  0.00    -0.166 F 
ATOM      2  F   UNL     1      -2.364   4.873  41.071  0.00  0.00    -0.166 F 
ATOM      3  F   UNL     1      -0.299   5.524  41.274  0.00  0.00    -0.166 F 
ATOM     25  C   UNL     1      -1.259   5.222  40.351  0.00  0.00    +0.417 C 
ENDBRANCH  22  25
ENDBRANCH  12  13
ENDBRANCH   4  12
TORSDOF 4
ENDMDL
MODEL 5
REMARK VINA RESULT:      -7.3     18.071     20.887
REMARK  Name = 51137120
REMARK  4 active torsions:
REMARK  status: ('A' for Active; 'I' for Inactive)
REMARK    1  A    between atoms: N_4  and  C_12
REMARK    2  A    between atoms: C_7  and  C_11
REMARK    3  A    between atoms: C_12  and  C_13
REMARK    4  A    between atoms: C_22  and  C_25
REMARK                            x       y       z     vdW  Elec       q    Type
REMARK                         _______ _______ _______ _____ _____    ______ ____
ROOT
ATOM      4  N   UNL     1      11.101   5.103   3.252  0.00  0.00    -0.297 NA
ATOM      7  C   UNL     1      11.942   3.879   1.438  0.00  0.00    +0.070 C 
ATOM      8  C   UNL     1      12.993   4.904   1.899  0.00  0.00    +0.028 C 
ATOM      9  C   UNL     1      10.634   4.344   2.091  0.00  0.00    +0.096 C 
ATOM     10  C   UNL     1      12.223   5.899   2.755  0.00  0.00    +0.085 C 
ENDROOT
BRANCH   7  11
ATOM      5  N   UNL     1      10.676   4.036  -0.723  0.00  0.00    -0.342 N 
ATOM      6  N   UNL     1      12.758   3.271  -0.875  0.00  0.00    -0.232 NA
ATOM     11  C   UNL     1      11.827   3.716  -0.061  0.00  0.00    +0.113 A 
ATOM     14  C   UNL     1      10.876   3.782  -2.056  0.00  0.00    +0.066 A 
ATOM     15  C   UNL     1      12.183   3.306  -2.126  0.00  0.00    +0.089 A 
ATOM     18  C   UNL     1      10.052   3.923  -3.173  0.00  0.00    +0.028 A 
ATOM     19  C   UNL     1      12.715   2.945  -3.375  0.00  0.00    +0.030 A 
ATOM     23  C   UNL     1      10.598   3.560  -4.408  0.00  0.00    +0.002 A 
ATOM     24  C   UNL     1      11.905   3.078  -4.510  0.00  0.00    +0.002 A 
ATOM     26  H   UNL     1       9.826   4.395  -0.310  0.00  0.00    +0.167 HD
ENDBRANCH   7  11
BRANCH   4  12
ATOM     12  C   UNL     1      10.053   5.927   3.837  0.00  0.00    +0.119 C 
BRANCH  12  13
ATOM     13  C   UNL     1       9.892   5.668   5.310  0.00  0.00    -0.033 A 
ATOM     16  C   UNL     1       9.861   4.358   5.789  0.00  0.00    +0.005 A 
ATOM     17  C   UNL     1       9.775   6.737   6.199  0.00  0.00    +0.005 A 
ATOM     20  C   UNL     1       9.713   4.117   7.154  0.00  0.00    +0.012 A 
ATOM     21  C   UNL     1       9.626   6.496   7.564  0.00  0.00    +0.012 A 
ATOM     22  C   UNL     1       9.596   5.186   8.042  0.00  0.00    +0.055 A 
BRANCH  22  25
ATOM      1  F   UNL     1       9.259   3.610   9.811  0.00  0.00    -0.166 F 
ATOM      2  F   UNL     1       8.365   5.580  10.038  0.00  0.00    -0.166 F 
ATOM      3  F   UNL     1      10.515   5.324  10.247  0.00  0.00    -0.166 F 
ATOM     25  C   UNL     1       9.439   4.929   9.503  0.00  0.00    +0.417 C 
ENDBRANCH  22  25
ENDBRANCH  12  13
ENDBRANCH   4  12
TORSDOF 4
ENDMDL
MODEL 6
REMARK VINA RESULT:      -7.3      2.627      4.613
REMARK  Name = 51137120
REMARK  4 active torsions:
REMARK  status: ('A' for Active; 'I' for Inactive)
REMARK    1  A    between atoms: N_4  and  C_12
REMARK    2  A    between atoms: C_7  and  C_11
REMARK    3  A    between atoms: C_12  and  C_13
REMARK    4  A    between atoms: C_22  and  C_25
REMARK                            x       y       z     vdW  Elec       q    Type
REMARK                         _______ _______ _______ _____ _____    ______ ____
ROOT
ATOM      4  N   UNL     1      18.107   6.166  20.652  0.00  0.00    -0.297 NA
ATOM      7  C   UNL     1      15.773   6.191  20.867  0.00  0.00    +0.070 C 
ATOM      8  C   UNL     1      16.152   6.175  19.376  0.00  0.00    +0.028 C 
ATOM      9  C   UNL     1      17.066   6.585  21.592  0.00  0.00    +0.096 C 
ATOM     10  C   UNL     1      17.618   6.585  19.338  0.00  0.00    +0.085 C 
ENDROOT
BRANCH   7  11
ATOM      5  N   UNL     1      13.338   6.587  21.331  0.00  0.00    -0.342 N 
ATOM      6  N   UNL     1      14.648   8.380  21.441  0.00  0.00    -0.232 NA
ATOM     11  C   UNL     1      14.605   7.086  21.216  0.00  0.00    +0.113 A 
ATOM     14  C   UNL     1      12.506   7.629  21.652  0.00  0.00    +0.066 A 
ATOM     15  C   UNL     1      13.347   8.737  21.715  0.00  0.00    +0.089 A 
ATOM     18  C   UNL     1      11.132   7.696  21.886  0.00  0.00    +0.028 A 
ATOM     19  C   UNL     1      12.802   9.994  22.028  0.00  0.00    +0.030 A 
ATOM     23  C   UNL     1      10.607   8.954  22.197  0.00  0.00    +0.002 A 
ATOM     24  C   UNL     1      11.425  10.084  22.267  0.00  0.00    +0.002 A 
ATOM     26  H   UNL     1      13.059   5.624  21.204  0.00  0.00    +0.167 HD
ENDBRANCH   7  11
BRANCH   4  12
ATOM     12  C   UNL     1      19.406   6.742  20.968  0.00  0.00    +0.119 C 
BRANCH  12  13
ATOM     13  C   UNL     1      20.408   5.688  21.355  0.00  0.00    -0.033 A 
ATOM     16  C   UNL     1      20.574   4.557  20.555  0.00  0.00    +0.005 A 
ATOM     17  C   UNL     1      21.170   5.840  22.513  0.00  0.00    +0.005 A 
ATOM     20  C   UNL     1      21.502   3.580  20.912  0.00  0.00    +0.012 A 
ATOM     21  C   UNL     1      22.098   4.863  22.871  0.00  0.00    +0.012 A 
ATOM     22  C   UNL     1      22.264   3.733  22.070  0.00  0.00    +0.055 A 
BRANCH  22  25
ATOM      1  F   UNL     1      24.478   3.197  22.805  0.00  0.00    -0.166 F 
ATOM      2  F   UNL     1      23.510   1.808  21.440  0.00  0.00    -0.166 F 
ATOM      3  F   UNL     1      22.871   1.925  23.516  0.00  0.00    -0.166 F 
ATOM     25  C   UNL     1      23.259   2.689  22.452  0.00  0.00    +0.417 C 
ENDBRANCH  22  25
ENDBRANCH  12  13
ENDBRANCH   4  12
TORSDOF 4
ENDMDL
MODEL 7
REMARK VINA RESULT:      -7.1     18.660     21.451
REMARK  Name = 51137120
REMARK  4 active torsions:
REMARK  status: ('A' for Active; 'I' for Inactive)
REMARK    1  A    between atoms: N_4  and  C_12
REMARK    2  A    between atoms: C_7  and  C_11
REMARK    3  A    between atoms: C_12  and  C_13
REMARK    4  A    between atoms: C_22  and  C_25
REMARK                            x       y       z     vdW  Elec       q    Type
REMARK                         _______ _______ _______ _____ _____    ______ ____
ROOT
ATOM      4  N   UNL     1      11.977   5.096   2.541  0.00  0.00    -0.297 NA
ATOM      7  C   UNL     1      12.124   3.638   0.711  0.00  0.00    +0.070 C 
ATOM      8  C   UNL     1      13.523   4.182   1.050  0.00  0.00    +0.028 C 
ATOM      9  C   UNL     1      11.155   4.572   1.448  0.00  0.00    +0.096 C 
ATOM     10  C   UNL     1      13.270   5.399   1.928  0.00  0.00    +0.085 C 
ENDROOT
BRANCH   7  11
ATOM      5  N   UNL     1      12.812   3.252  -1.672  0.00  0.00    -0.342 N 
ATOM      6  N   UNL     1      10.654   3.673  -1.345  0.00  0.00    -0.232 NA
ATOM     11  C   UNL     1      11.826   3.527  -0.767  0.00  0.00    +0.113 A 
ATOM     14  C   UNL     1      12.240   3.216  -2.918  0.00  0.00    +0.066 A 
ATOM     15  C   UNL     1      10.892   3.482  -2.687  0.00  0.00    +0.089 A 
ATOM     18  C   UNL     1      12.768   2.982  -4.188  0.00  0.00    +0.028 A 
ATOM     19  C   UNL     1      10.005   3.521  -3.776  0.00  0.00    +0.030 A 
ATOM     23  C   UNL     1      11.871   3.023  -5.260  0.00  0.00    +0.002 A 
ATOM     24  C   UNL     1      10.514   3.288  -5.060  0.00  0.00    +0.002 A 
ATOM     26  H   UNL     1      13.790   3.100  -1.465  0.00  0.00    +0.167 HD
ENDBRANCH   7  11
BRANCH   4  12
ATOM     12  C   UNL     1      11.378   6.260   3.177  0.00  0.00    +0.119 C 
BRANCH  12  13
ATOM     13  C   UNL     1      10.958   5.972   4.593  0.00  0.00    -0.033 A 
ATOM     16  C   UNL     1      11.590   6.620   5.654  0.00  0.00    +0.005 A 
ATOM     17  C   UNL     1       9.935   5.057   4.845  0.00  0.00    +0.005 A 
ATOM     20  C   UNL     1      11.201   6.353   6.966  0.00  0.00    +0.012 A 
ATOM     21  C   UNL     1       9.546   4.790   6.157  0.00  0.00    +0.012 A 
ATOM     22  C   UNL     1      10.179   5.439   7.218  0.00  0.00    +0.055 A 
BRANCH  22  25
ATOM      1  F   UNL     1       8.662   5.865   9.019  0.00  0.00    -0.166 F 
ATOM      2  F   UNL     1      10.735   5.451   9.529  0.00  0.00    -0.166 F 
ATOM      3  F   UNL     1       9.437   3.847   8.843  0.00  0.00    -0.166 F 
ATOM     25  C   UNL     1       9.760   5.155   8.621  0.00  0.00    +0.417 C 
ENDBRANCH  22  25
ENDBRANCH  12  13
ENDBRANCH   4  12
TORSDOF 4
ENDMDL
MODEL 8
REMARK VINA RESULT:      -7.1     27.431     28.808
REMARK  Name = 51137120
REMARK  4 active torsions:
REMARK  status: ('A' for Active; 'I' for Inactive)
REMARK    1  A    between atoms: N_4  and  C_12
REMARK    2  A    between atoms: C_7  and  C_11
REMARK    3  A    between atoms: C_12  and  C_13
REMARK    4  A    between atoms: C_22  and  C_25
REMARK                            x       y       z     vdW  Elec       q    Type
REMARK                         _______ _______ _______ _____ _____    ______ ____
ROOT
ATOM      4  N   UNL     1      -2.368 -11.366  12.587  0.00  0.00    -0.297 NA
ATOM      7  C   UNL     1      -2.652 -10.644  14.799  0.00  0.00    +0.070 C 
ATOM      8  C   UNL     1      -1.560 -11.726  14.748  0.00  0.00    +0.028 C 
ATOM      9  C   UNL     1      -3.382 -10.764  13.455  0.00  0.00    +0.096 C 
ATOM     10  C   UNL     1      -1.748 -12.411  13.402  0.00  0.00    +0.085 C 
ENDROOT
BRANCH   7  11
ATOM      5  N   UNL     1      -3.244 -11.449  17.102  0.00  0.00    -0.342 N 
ATOM      6  N   UNL     1      -4.772 -10.186  16.097  0.00  0.00    -0.232 NA
ATOM     11  C   UNL     1      -3.585 -10.738  15.986  0.00  0.00    +0.113 A 
ATOM     14  C   UNL     1      -4.280 -11.349  17.995  0.00  0.00    +0.066 A 
ATOM     15  C   UNL     1      -5.222 -10.556  17.344  0.00  0.00    +0.089 A 
ATOM     18  C   UNL     1      -4.470 -11.868  19.276  0.00  0.00    +0.028 A 
ATOM     19  C   UNL     1      -6.430 -10.253  17.996  0.00  0.00    +0.030 A 
ATOM     23  C   UNL     1      -5.677 -11.556  19.909  0.00  0.00    +0.002 A 
ATOM     24  C   UNL     1      -6.641 -10.764  19.282  0.00  0.00    +0.002 A 
ATOM     26  H   UNL     1      -2.383 -11.958  17.249  0.00  0.00    +0.167 HD
ENDBRANCH   7  11
BRANCH   4  12
ATOM     12  C   UNL     1      -2.933 -11.889  11.352  0.00  0.00    +0.119 C 
BRANCH  12  13
ATOM     13  C   UNL     1      -3.933 -10.941  10.748  0.00  0.00    -0.033 A 
ATOM     16  C   UNL     1      -3.521  -9.686  10.298  0.00  0.00    +0.005 A 
ATOM     17  C   UNL     1      -5.272 -11.315  10.636  0.00  0.00    +0.005 A 
ATOM     20  C   UNL     1      -4.447  -8.806   9.738  0.00  0.00    +0.012 A 
ATOM     21  C   UNL     1      -6.198 -10.436  10.076  0.00  0.00    +0.012 A 
ATOM     22  C   UNL     1      -5.785  -9.182   9.627  0.00  0.00    +0.055 A 
BRANCH  22  25
ATOM      1  F   UNL     1      -7.128  -8.565   7.745  0.00  0.00    -0.166 F 
ATOM      2  F   UNL     1      -6.313  -6.960   8.965  0.00  0.00    -0.166 F 
ATOM      3  F   UNL     1      -7.955  -8.175   9.712  0.00  0.00    -0.166 F 
ATOM     25  C   UNL     1      -6.776  -8.242   9.025  0.00  0.00    +0.417 C 
ENDBRANCH  22  25
ENDBRANCH  12  13
ENDBRANCH   4  12
TORSDOF 4
ENDMDL
MODEL 9
REMARK VINA RESULT:      -7.0     14.696     16.013
REMARK  Name = 51137120
REMARK  4 active torsions:
REMARK  status: ('A' for Active; 'I' for Inactive)
REMARK    1  A    between atoms: N_4  and  C_12
REMARK    2  A    between atoms: C_7  and  C_11
REMARK    3  A    between atoms: C_12  and  C_13
REMARK    4  A    between atoms: C_22  and  C_25
REMARK                            x       y       z     vdW  Elec       q    Type
REMARK                         _______ _______ _______ _____ _____    ______ ____
ROOT
ATOM      4  N   UNL     1      16.094   8.577   5.281  0.00  0.00    -0.297 NA
ATOM      7  C   UNL     1      13.972   7.584   5.190  0.00  0.00    +0.070 C 
ATOM      8  C   UNL     1      13.998   8.826   4.282  0.00  0.00    +0.028 C 
ATOM      9  C   UNL     1      15.210   7.730   6.084  0.00  0.00    +0.096 C 
ATOM     10  C   UNL     1      15.222   9.614   4.729  0.00  0.00    +0.085 C 
ENDROOT
BRANCH   7  11
ATOM      5  N   UNL     1      12.459   6.255   6.688  0.00  0.00    -0.342 N 
ATOM      6  N   UNL     1      11.703   8.255   6.077  0.00  0.00    -0.232 NA
ATOM     11  C   UNL     1      12.695   7.398   5.977  0.00  0.00    +0.113 A 
ATOM     14  C   UNL     1      11.232   6.381   7.288  0.00  0.00    +0.066 A 
ATOM     15  C   UNL     1      10.780   7.638   6.892  0.00  0.00    +0.089 A 
ATOM     18  C   UNL     1      10.501   5.532   8.119  0.00  0.00    +0.028 A 
ATOM     19  C   UNL     1       9.527   8.088   7.341  0.00  0.00    +0.030 A 
ATOM     23  C   UNL     1       9.257   5.996   8.556  0.00  0.00    +0.002 A 
ATOM     24  C   UNL     1       8.776   7.251   8.175  0.00  0.00    +0.002 A 
ATOM     26  H   UNL     1      13.075   5.457   6.762  0.00  0.00    +0.167 HD
ENDBRANCH   7  11
BRANCH   4  12
ATOM     12  C   UNL     1      17.191   9.132   6.060  0.00  0.00    +0.119 C 
BRANCH  12  13
ATOM     13  C   UNL     1      18.526   8.622   5.591  0.00  0.00    -0.033 A 
ATOM     16  C   UNL     1      19.567   8.448   6.504  0.00  0.00    +0.005 A 
ATOM     17  C   UNL     1      18.725   8.321   4.243  0.00  0.00    +0.005 A 
ATOM     20  C   UNL     1      20.805   7.975   6.070  0.00  0.00    +0.012 A 
ATOM     21  C   UNL     1      19.963   7.848   3.809  0.00  0.00    +0.012 A 
ATOM     22  C   UNL     1      21.003   7.675   4.722  0.00  0.00    +0.055 A 
BRANCH  22  25
ATOM      1  F   UNL     1      23.369   7.551   5.052  0.00  0.00    -0.166 F 
ATOM      2  F   UNL     1      22.643   7.598   3.003  0.00  0.00    -0.166 F 
ATOM      3  F   UNL     1      22.402   5.803   4.207  0.00  0.00    -0.166 F 
ATOM     25  C   UNL     1      22.326   7.166   4.258  0.00  0.00    +0.417 C 
ENDBRANCH  22  25
ENDBRANCH  12  13
ENDBRANCH   4  12
TORSDOF 4
ENDMDL
MODEL 10
REMARK VINA RESULT:      -7.0     28.976     31.082
REMARK  Name = 51137120
REMARK  4 active torsions:
REMARK  status: ('A' for Active; 'I' for Inactive)
REMARK    1  A    between atoms: N_4  and  C_12
REMARK    2  A    between atoms: C_7  and  C_11
REMARK    3  A    between atoms: C_12  and  C_13
REMARK    4  A    between atoms: C_22  and  C_25
REMARK                            x       y       z     vdW  Elec       q    Type
REMARK                         _______ _______ _______ _____ _____    ______ ____
ROOT
ATOM      4  N   UNL     1       1.295   3.919  -6.306  0.00  0.00    -0.297 NA
ATOM      7  C   UNL     1       2.557   4.978  -4.637  0.00  0.00    +0.070 C 
ATOM      8  C   UNL     1       1.591   5.993  -5.273  0.00  0.00    +0.028 C 
ATOM      9  C   UNL     1       2.581   3.798  -5.617  0.00  0.00    +0.096 C 
ATOM     10  C   UNL     1       1.149   5.349  -6.580  0.00  0.00    +0.085 C 
ENDROOT
BRANCH   7  11
ATOM      5  N   UNL     1       5.035   5.090  -5.020  0.00  0.00    -0.342 N 
ATOM      6  N   UNL     1       4.243   6.412  -3.418  0.00  0.00    -0.232 NA
ATOM     11  C   UNL     1       3.935   5.518  -4.330  0.00  0.00    +0.113 A 
ATOM     14  C   UNL     1       6.127   5.753  -4.520  0.00  0.00    +0.066 A 
ATOM     15  C   UNL     1       5.606   6.572  -3.521  0.00  0.00    +0.089 A 
ATOM     18  C   UNL     1       7.482   5.708  -4.846  0.00  0.00    +0.028 A 
ATOM     19  C   UNL     1       6.476   7.402  -2.794  0.00  0.00    +0.030 A 
ATOM     23  C   UNL     1       8.334   6.540  -4.112  0.00  0.00    +0.002 A 
ATOM     24  C   UNL     1       7.841   7.373  -3.103  0.00  0.00    +0.002 A 
ATOM     26  H   UNL     1       5.047   4.408  -5.766  0.00  0.00    +0.167 HD
ENDBRANCH   7  11
BRANCH   4  12
ATOM     12  C   UNL     1       1.234   3.114  -7.517  0.00  0.00    +0.119 C 
BRANCH  12  13
ATOM     13  C   UNL     1       0.305   1.940  -7.363  0.00  0.00    -0.033 A 
ATOM     16  C   UNL     1      -0.756   1.769  -8.253  0.00  0.00    +0.005 A 
ATOM     17  C   UNL     1       0.504   1.022  -6.332  0.00  0.00    +0.005 A 
ATOM     20  C   UNL     1      -1.617   0.682  -8.111  0.00  0.00    +0.012 A 
ATOM     21  C   UNL     1      -0.357  -0.065  -6.190  0.00  0.00    +0.012 A 
ATOM     22  C   UNL     1      -1.417  -0.236  -7.080  0.00  0.00    +0.055 A 
BRANCH  22  25
ATOM      1  F   UNL     1      -2.355  -1.924  -5.667  0.00  0.00    -0.166 F 
ATOM      2  F   UNL     1      -2.006  -2.439  -7.751  0.00  0.00    -0.166 F 
ATOM      3  F   UNL     1      -3.641  -1.110  -7.213  0.00  0.00    -0.166 F 
ATOM     25  C   UNL     1      -2.337  -1.401  -6.929  0.00  0.00    +0.417 C 
ENDBRANCH  22  25
ENDBRANCH  12  13
ENDBRANCH   4  12
TORSDOF 4
ENDMDL
