MODEL 1
REMARK VINA RESULT:      -7.5      0.000      0.000
REMARK  Name = 11912989
REMARK  6 active torsions:
REMARK  status: ('A' for Active; 'I' for Inactive)
REMARK    1  A    between atoms: N_4  and  C_10
REMARK    2  A    between atoms: N_4  and  C_14
REMARK    3  A    between atoms: N_5  and  C_11
REMARK    4  A    between atoms: C_14  and  C_16
REMARK    5  A    between atoms: C_19  and  C_25
REMARK    6  A    between atoms: C_23  and  C_26
REMARK                            x       y       z     vdW  Elec       q    Type
REMARK                         _______ _______ _______ _____ _____    ______ ____
ROOT
ATOM      1  O   UNL     1      12.793  13.515  20.865  0.00  0.00    -0.370 OA
ATOM      2  O   UNL     1      11.765  13.706  23.810  0.00  0.00    -0.370 OA
ATOM      8  C   UNL     1      12.922  13.104  23.205  0.00  0.00    +0.168 C 
ATOM      9  C   UNL     1      12.487  12.534  21.870  0.00  0.00    +0.171 C 
ATOM     10  C   UNL     1      13.933  14.165  22.842  0.00  0.00    +0.111 C 
ATOM     11  C   UNL     1      10.991  12.371  22.006  0.00  0.00    +0.130 C 
ATOM     12  C   UNL     1      13.456  14.629  21.480  0.00  0.00    +0.181 C 
ATOM     13  C   UNL     1      10.623  13.483  22.971  0.00  0.00    +0.185 C 
ENDROOT
BRANCH  11   5
ATOM      5  N   UNL     1      10.684  11.082  22.585  0.00  0.00    -0.306 N 
ATOM      6  N   UNL     1      11.777   9.923  20.863  0.00  0.00    -0.211 NA
ATOM      7  N   UNL     1      10.717   8.738  22.673  0.00  0.00    -0.223 NA
ATOM     15  C   UNL     1      11.071   9.879  22.023  0.00  0.00    +0.216 A 
ATOM     19  C   UNL     1      12.139   8.732  20.344  0.00  0.00    +0.111 A 
ATOM     22  C   UNL     1      11.111   7.582  22.098  0.00  0.00    +0.116 A 
ATOM     24  C   UNL     1      11.831   7.518  20.922  0.00  0.00    +0.051 A 
ATOM     36  H   UNL     1      10.203  11.039  23.477  0.00  0.00    +0.149 HD
BRANCH  19  25
ATOM      3  O   UNL     1      12.725   7.761  18.272  0.00  0.00    -0.461 OA
ATOM     25  C   UNL     1      12.885   8.811  19.117  0.00  0.00    +0.153 A 
ATOM     27  C   UNL     1      13.752   9.735  18.585  0.00  0.00    +0.051 A 
ATOM     30  C   UNL     1      14.152   9.220  17.330  0.00  0.00    +0.042 A 
ATOM     31  C   UNL     1      13.500   8.018  17.185  0.00  0.00    +0.196 A 
ENDBRANCH  19  25
ENDBRANCH  11   5
BRANCH  10   4
ATOM      4  N   UNL     1      15.277  13.551  22.716  0.00  0.00    -0.305 NA
ATOM     35  H   UNL     1      15.978  14.241  22.986  0.00  0.00    +0.123 HD
BRANCH   4  14
ATOM     14  C   UNL     1      15.391  12.380  23.573  0.00  0.00    +0.116 C 
BRANCH  14  16
ATOM     16  C   UNL     1      15.822  11.161  22.802  0.00  0.00    -0.034 A 
ATOM     17  C   UNL     1      14.973  10.066  22.725  0.00  0.00    +0.005 A 
ATOM     18  C   UNL     1      17.062  11.150  22.178  0.00  0.00    +0.005 A 
ATOM     20  C   UNL     1      15.372   8.936  22.011  0.00  0.00    +0.009 A 
ATOM     21  C   UNL     1      17.461  10.020  21.465  0.00  0.00    +0.009 A 
ATOM     23  C   UNL     1      16.616   8.913  21.381  0.00  0.00    -0.018 A 
BRANCH  23  26
ATOM     26  C   UNL     1      17.030   7.741  20.639  0.00  0.00    -0.018 A 
ATOM     28  C   UNL     1      18.296   7.195  20.849  0.00  0.00    +0.008 A 
ATOM     29  C   UNL     1      16.164   7.159  19.715  0.00  0.00    +0.008 A 
ATOM     32  C   UNL     1      18.695   6.065  20.135  0.00  0.00    +0.001 A 
ATOM     33  C   UNL     1      16.563   6.029  19.000  0.00  0.00    +0.001 A 
ATOM     34  C   UNL     1      17.829   5.482  19.211  0.00  0.00    +0.000 A 
ENDBRANCH  23  26
ENDBRANCH  14  16
ENDBRANCH   4  14
ENDBRANCH  10   4
TORSDOF 6
ENDMDL
MODEL 2
REMARK VINA RESULT:      -7.5      3.327      5.453
REMARK  Name = 11912989
REMARK  6 active torsions:
REMARK  status: ('A' for Active; 'I' for Inactive)
REMARK    1  A    between atoms: N_4  and  C_10
REMARK    2  A    between atoms: N_4  and  C_14
REMARK    3  A    between atoms: N_5  and  C_11
REMARK    4  A    between atoms: C_14  and  C_16
REMARK    5  A    between atoms: C_19  and  C_25
REMARK    6  A    between atoms: C_23  and  C_26
REMARK                            x       y       z     vdW  Elec       q    Type
REMARK                         _______ _______ _______ _____ _____    ______ ____
ROOT
ATOM      1  O   UNL     1      13.933   9.298  21.172  0.00  0.00    -0.370 OA
ATOM      2  O   UNL     1      12.419   6.578  21.445  0.00  0.00    -0.370 OA
ATOM      8  C   UNL     1      13.461   7.045  20.571  0.00  0.00    +0.168 C 
ATOM      9  C   UNL     1      13.167   8.498  20.256  0.00  0.00    +0.171 C 
ATOM     10  C   UNL     1      14.779   7.086  21.306  0.00  0.00    +0.111 C 
ATOM     11  C   UNL     1      11.690   8.647  20.538  0.00  0.00    +0.130 C 
ATOM     12  C   UNL     1      14.740   8.438  21.989  0.00  0.00    +0.181 C 
ATOM     13  C   UNL     1      11.457   7.625  21.634  0.00  0.00    +0.185 C 
ENDROOT
BRANCH  11   5
ATOM      5  N   UNL     1      10.924   8.302  19.361  0.00  0.00    -0.306 N 
ATOM      6  N   UNL     1      12.383   9.462  17.935  0.00  0.00    -0.211 NA
ATOM      7  N   UNL     1      10.457   8.307  17.062  0.00  0.00    -0.223 NA
ATOM     15  C   UNL     1      11.265   8.703  18.081  0.00  0.00    +0.216 A 
ATOM     19  C   UNL     1      12.686   9.834  16.675  0.00  0.00    +0.111 A 
ATOM     22  C   UNL     1      10.820   8.715  15.826  0.00  0.00    +0.116 A 
ATOM     24  C   UNL     1      11.935   9.487  15.571  0.00  0.00    +0.051 A 
ATOM     36  H   UNL     1      10.118   7.693  19.451  0.00  0.00    +0.149 HD
BRANCH  19  25
ATOM      3  O   UNL     1      14.406  11.066  17.725  0.00  0.00    -0.461 OA
ATOM     25  C   UNL     1      13.874  10.636  16.553  0.00  0.00    +0.153 A 
ATOM     27  C   UNL     1      14.617  11.085  15.487  0.00  0.00    +0.051 A 
ATOM     30  C   UNL     1      15.678  11.839  16.041  0.00  0.00    +0.042 A 
ATOM     31  C   UNL     1      15.506  11.799  17.404  0.00  0.00    +0.196 A 
ENDBRANCH  19  25
ENDBRANCH  11   5
BRANCH  10   4
ATOM      4  N   UNL     1      15.895   7.054  20.329  0.00  0.00    -0.305 NA
ATOM     35  H   UNL     1      15.571   7.459  19.450  0.00  0.00    +0.123 HD
BRANCH   4  14
ATOM     14  C   UNL     1      17.035   7.811  20.823  0.00  0.00    +0.116 C 
BRANCH  14  16
ATOM     16  C   UNL     1      18.298   6.991  20.816  0.00  0.00    -0.034 A 
ATOM     17  C   UNL     1      18.350   5.824  20.067  0.00  0.00    +0.005 A 
ATOM     18  C   UNL     1      19.391   7.413  21.559  0.00  0.00    +0.005 A 
ATOM     20  C   UNL     1      19.520   5.064  20.060  0.00  0.00    +0.009 A 
ATOM     21  C   UNL     1      20.560   6.654  21.553  0.00  0.00    +0.009 A 
ATOM     23  C   UNL     1      20.625   5.479  20.804  0.00  0.00    -0.018 A 
BRANCH  23  26
ATOM     26  C   UNL     1      21.839   4.691  20.797  0.00  0.00    -0.018 A 
ATOM     28  C   UNL     1      23.046   5.273  20.411  0.00  0.00    +0.008 A 
ATOM     29  C   UNL     1      21.801   3.349  21.176  0.00  0.00    +0.008 A 
ATOM     32  C   UNL     1      24.216   4.513  20.405  0.00  0.00    +0.001 A 
ATOM     33  C   UNL     1      22.971   2.589  21.170  0.00  0.00    +0.001 A 
ATOM     34  C   UNL     1      24.179   3.172  20.784  0.00  0.00    +0.000 A 
ENDBRANCH  23  26
ENDBRANCH  14  16
ENDBRANCH   4  14
ENDBRANCH  10   4
TORSDOF 6
ENDMDL
MODEL 3
REMARK VINA RESULT:      -7.4      2.362      5.980
REMARK  Name = 11912989
REMARK  6 active torsions:
REMARK  status: ('A' for Active; 'I' for Inactive)
REMARK    1  A    between atoms: N_4  and  C_10
REMARK    2  A    between atoms: N_4  and  C_14
REMARK    3  A    between atoms: N_5  and  C_11
REMARK    4  A    between atoms: C_14  and  C_16
REMARK    5  A    between atoms: C_19  and  C_25
REMARK    6  A    between atoms: C_23  and  C_26
REMARK                            x       y       z     vdW  Elec       q    Type
REMARK                         _______ _______ _______ _____ _____    ______ ____
ROOT
ATOM      1  O   UNL     1      13.253   8.070  22.256  0.00  0.00    -0.370 OA
ATOM      2  O   UNL     1      10.589   8.247  20.633  0.00  0.00    -0.370 OA
ATOM      8  C   UNL     1      11.906   8.786  20.430  0.00  0.00    +0.168 C 
ATOM      9  C   UNL     1      12.450   9.168  21.792  0.00  0.00    +0.171 C 
ATOM     10  C   UNL     1      12.843   7.706  19.947  0.00  0.00    +0.111 C 
ATOM     11  C   UNL     1      11.219   9.319  22.655  0.00  0.00    +0.130 C 
ATOM     12  C   UNL     1      13.302   7.059  21.238  0.00  0.00    +0.181 C 
ATOM     13  C   UNL     1      10.250   8.337  22.024  0.00  0.00    +0.185 C 
ENDROOT
BRANCH  11   5
ATOM      5  N   UNL     1      10.705  10.667  22.552  0.00  0.00    -0.306 N 
ATOM      6  N   UNL     1      12.196  11.478  24.172  0.00  0.00    -0.211 NA
ATOM      7  N   UNL     1      10.612  12.945  23.102  0.00  0.00    -0.223 NA
ATOM     15  C   UNL     1      11.186  11.728  23.298  0.00  0.00    +0.216 A 
ATOM     19  C   UNL     1      12.640  12.536  24.882  0.00  0.00    +0.111 A 
ATOM     22  C   UNL     1      11.105  13.959  23.845  0.00  0.00    +0.116 A 
ATOM     24  C   UNL     1      12.128  13.811  24.760  0.00  0.00    +0.051 A 
ATOM     36  H   UNL     1       9.987  10.875  21.866  0.00  0.00    +0.149 HD
BRANCH  19  25
ATOM      3  O   UNL     1      13.688  12.943  26.959  0.00  0.00    -0.461 OA
ATOM     25  C   UNL     1      13.709  12.240  25.798  0.00  0.00    +0.153 A 
ATOM     27  C   UNL     1      14.783  11.383  25.767  0.00  0.00    +0.051 A 
ATOM     30  C   UNL     1      15.468  11.570  26.990  0.00  0.00    +0.042 A 
ATOM     31  C   UNL     1      14.764  12.528  27.680  0.00  0.00    +0.196 A 
ENDBRANCH  19  25
ENDBRANCH  11   5
BRANCH  10   4
ATOM      4  N   UNL     1      14.004   8.325  19.260  0.00  0.00    -0.305 NA
ATOM     35  H   UNL     1      14.618   8.736  19.964  0.00  0.00    +0.123 HD
BRANCH   4  14
ATOM     14  C   UNL     1      14.739   7.331  18.494  0.00  0.00    +0.116 C 
BRANCH  14  16
ATOM     16  C   UNL     1      16.040   6.962  19.156  0.00  0.00    -0.034 A 
ATOM     17  C   UNL     1      16.751   5.862  18.697  0.00  0.00    +0.005 A 
ATOM     18  C   UNL     1      16.510   7.727  20.214  0.00  0.00    +0.005 A 
ATOM     20  C   UNL     1      17.957   5.519  19.310  0.00  0.00    +0.009 A 
ATOM     21  C   UNL     1      17.714   7.384  20.827  0.00  0.00    +0.009 A 
ATOM     23  C   UNL     1      18.438   6.280  20.375  0.00  0.00    -0.018 A 
BRANCH  23  26
ATOM     26  C   UNL     1      19.689   5.926  21.011  0.00  0.00    -0.018 A 
ATOM     28  C   UNL     1      20.508   4.952  20.442  0.00  0.00    +0.008 A 
ATOM     29  C   UNL     1      20.074   6.558  22.193  0.00  0.00    +0.008 A 
ATOM     32  C   UNL     1      21.714   4.610  21.055  0.00  0.00    +0.001 A 
ATOM     33  C   UNL     1      21.280   6.217  22.806  0.00  0.00    +0.001 A 
ATOM     34  C   UNL     1      22.100   5.242  22.236  0.00  0.00    +0.000 A 
ENDBRANCH  23  26
ENDBRANCH  14  16
ENDBRANCH   4  14
ENDBRANCH  10   4
TORSDOF 6
ENDMDL
MODEL 4
REMARK VINA RESULT:      -7.3     27.462     30.077
REMARK  Name = 11912989
REMARK  6 active torsions:
REMARK  status: ('A' for Active; 'I' for Inactive)
REMARK    1  A    between atoms: N_4  and  C_10
REMARK    2  A    between atoms: N_4  and  C_14
REMARK    3  A    between atoms: N_5  and  C_11
REMARK    4  A    between atoms: C_14  and  C_16
REMARK    5  A    between atoms: C_19  and  C_25
REMARK    6  A    between atoms: C_23  and  C_26
REMARK                            x       y       z     vdW  Elec       q    Type
REMARK                         _______ _______ _______ _____ _____    ______ ____
ROOT
ATOM      1  O   UNL     1      -2.576 -12.690  12.665  0.00  0.00    -0.370 OA
ATOM      2  O   UNL     1      -1.513  -9.778  13.062  0.00  0.00    -0.370 OA
ATOM      8  C   UNL     1      -2.498 -10.571  13.745  0.00  0.00    +0.168 C 
ATOM      9  C   UNL     1      -3.213 -11.402  12.698  0.00  0.00    +0.171 C 
ATOM     10  C   UNL     1      -1.824 -11.592  14.629  0.00  0.00    +0.111 C 
ATOM     11  C   UNL     1      -2.966 -10.660  11.405  0.00  0.00    +0.130 C 
ATOM     12  C   UNL     1      -1.557 -12.739  13.674  0.00  0.00    +0.181 C 
ATOM     13  C   UNL     1      -1.619 -10.007  11.650  0.00  0.00    +0.185 C 
ENDROOT
BRANCH  11   5
ATOM      5  N   UNL     1      -3.984  -9.653  11.210  0.00  0.00    -0.306 N 
ATOM      6  N   UNL     1      -4.456 -10.391   9.034  0.00  0.00    -0.211 NA
ATOM      7  N   UNL     1      -5.646  -8.528   9.994  0.00  0.00    -0.223 NA
ATOM     15  C   UNL     1      -4.717  -9.520  10.044  0.00  0.00    +0.216 A 
ATOM     19  C   UNL     1      -5.190 -10.234   7.913  0.00  0.00    +0.111 A 
ATOM     22  C   UNL     1      -6.344  -8.428   8.843  0.00  0.00    +0.116 A 
ATOM     24  C   UNL     1      -6.156  -9.261   7.758  0.00  0.00    +0.051 A 
ATOM     36  H   UNL     1      -4.223  -9.031  11.975  0.00  0.00    +0.149 HD
BRANCH  19  25
ATOM      3  O   UNL     1      -4.083 -12.201   7.216  0.00  0.00    -0.461 OA
ATOM     25  C   UNL     1      -4.891 -11.169   6.862  0.00  0.00    +0.153 A 
ATOM     27  C   UNL     1      -5.246 -11.262   5.537  0.00  0.00    +0.051 A 
ATOM     30  C   UNL     1      -4.615 -12.428   5.044  0.00  0.00    +0.042 A 
ATOM     31  C   UNL     1      -3.919 -12.963   6.102  0.00  0.00    +0.196 A 
ENDBRANCH  19  25
ENDBRANCH  11   5
BRANCH  10   4
ATOM      4  N   UNL     1      -2.766 -12.035  15.687  0.00  0.00    -0.305 NA
ATOM     35  H   UNL     1      -2.408 -12.896  16.102  0.00  0.00    +0.123 HD
BRANCH   4  14
ATOM     14  C   UNL     1      -2.900 -11.016  16.717  0.00  0.00    +0.116 C 
BRANCH  14  16
ATOM     16  C   UNL     1      -4.343 -10.701  17.009  0.00  0.00    -0.034 A 
ATOM     17  C   UNL     1      -5.099 -10.026  16.061  0.00  0.00    +0.005 A 
ATOM     18  C   UNL     1      -4.897 -11.090  18.220  0.00  0.00    +0.005 A 
ATOM     20  C   UNL     1      -6.436  -9.733  16.330  0.00  0.00    +0.009 A 
ATOM     21  C   UNL     1      -6.233 -10.797  18.490  0.00  0.00    +0.009 A 
ATOM     23  C   UNL     1      -7.003 -10.119  17.545  0.00  0.00    -0.018 A 
BRANCH  23  26
ATOM     26  C   UNL     1      -8.390  -9.816  17.825  0.00  0.00    -0.018 A 
ATOM     28  C   UNL     1      -9.009  -8.737  17.194  0.00  0.00    +0.008 A 
ATOM     29  C   UNL     1      -9.108 -10.603  18.725  0.00  0.00    +0.008 A 
ATOM     32  C   UNL     1     -10.347  -8.445  17.464  0.00  0.00    +0.001 A 
ATOM     33  C   UNL     1     -10.445 -10.311  18.995  0.00  0.00    +0.001 A 
ATOM     34  C   UNL     1     -11.064  -9.232  18.364  0.00  0.00    +0.000 A 
ENDBRANCH  23  26
ENDBRANCH  14  16
ENDBRANCH   4  14
ENDBRANCH  10   4
TORSDOF 6
ENDMDL
MODEL 5
REMARK VINA RESULT:      -7.1      3.464      6.385
REMARK  Name = 11912989
REMARK  6 active torsions:
REMARK  status: ('A' for Active; 'I' for Inactive)
REMARK    1  A    between atoms: N_4  and  C_10
REMARK    2  A    between atoms: N_4  and  C_14
REMARK    3  A    between atoms: N_5  and  C_11
REMARK    4  A    between atoms: C_14  and  C_16
REMARK    5  A    between atoms: C_19  and  C_25
REMARK    6  A    between atoms: C_23  and  C_26
REMARK                            x       y       z     vdW  Elec       q    Type
REMARK                         _______ _______ _______ _____ _____    ______ ____
ROOT
ATOM      1  O   UNL     1      12.672   9.349  19.494  0.00  0.00    -0.370 OA
ATOM      2  O   UNL     1      11.751   7.278  17.342  0.00  0.00    -0.370 OA
ATOM      8  C   UNL     1      12.964   7.447  18.095  0.00  0.00    +0.168 C 
ATOM      9  C   UNL     1      13.209   8.936  18.226  0.00  0.00    +0.171 C 
ATOM     10  C   UNL     1      12.766   6.979  19.516  0.00  0.00    +0.111 C 
ATOM     11  C   UNL     1      12.413   9.545  17.095  0.00  0.00    +0.130 C 
ATOM     12  C   UNL     1      12.172   8.199  20.191  0.00  0.00    +0.181 C 
ATOM     13  C   UNL     1      11.266   8.565  16.934  0.00  0.00    +0.185 C 
ENDROOT
BRANCH  11   5
ATOM      5  N   UNL     1      13.213   9.583  15.891  0.00  0.00    -0.306 N 
ATOM      6  N   UNL     1      14.623  11.250  16.747  0.00  0.00    -0.211 NA
ATOM      7  N   UNL     1      14.966  10.354  14.537  0.00  0.00    -0.223 NA
ATOM     15  C   UNL     1      14.300  10.421  15.720  0.00  0.00    +0.216 A 
ATOM     19  C   UNL     1      15.689  12.053  16.547  0.00  0.00    +0.111 A 
ATOM     22  C   UNL     1      16.022  11.185  14.404  0.00  0.00    +0.116 A 
ATOM     24  C   UNL     1      16.433  12.064  15.385  0.00  0.00    +0.051 A 
ATOM     36  H   UNL     1      13.012   8.932  15.139  0.00  0.00    +0.149 HD
BRANCH  19  25
ATOM      3  O   UNL     1      14.938  13.438  18.307  0.00  0.00    -0.461 OA
ATOM     25  C   UNL     1      16.007  12.918  17.651  0.00  0.00    +0.153 A 
ATOM     27  C   UNL     1      17.182  13.357  18.212  0.00  0.00    +0.051 A 
ATOM     30  C   UNL     1      16.812  14.201  19.285  0.00  0.00    +0.042 A 
ATOM     31  C   UNL     1      15.437  14.218  19.302  0.00  0.00    +0.196 A 
ENDBRANCH  19  25
ENDBRANCH  11   5
BRANCH  10   4
ATOM      4  N   UNL     1      14.081   6.663  20.125  0.00  0.00    -0.305 NA
ATOM     35  H   UNL     1      14.005   5.777  20.625  0.00  0.00    +0.123 HD
BRANCH   4  14
ATOM     14  C   UNL     1      15.111   6.559  19.103  0.00  0.00    +0.116 C 
BRANCH  14  16
ATOM     16  C   UNL     1      16.489   6.470  19.703  0.00  0.00    -0.034 A 
ATOM     17  C   UNL     1      16.776   7.176  20.862  0.00  0.00    +0.005 A 
ATOM     18  C   UNL     1      17.453   5.683  19.087  0.00  0.00    +0.005 A 
ATOM     20  C   UNL     1      18.053   7.094  21.419  0.00  0.00    +0.009 A 
ATOM     21  C   UNL     1      18.729   5.601  19.643  0.00  0.00    +0.009 A 
ATOM     23  C   UNL     1      19.029   6.307  20.809  0.00  0.00    -0.018 A 
BRANCH  23  26
ATOM     26  C   UNL     1      20.354   6.221  21.385  0.00  0.00    -0.018 A 
ATOM     28  C   UNL     1      20.526   6.368  22.761  0.00  0.00    +0.008 A 
ATOM     29  C   UNL     1      21.458   5.990  20.565  0.00  0.00    +0.008 A 
ATOM     32  C   UNL     1      21.803   6.285  23.317  0.00  0.00    +0.001 A 
ATOM     33  C   UNL     1      22.735   5.907  21.121  0.00  0.00    +0.001 A 
ATOM     34  C   UNL     1      22.907   6.055  22.497  0.00  0.00    +0.000 A 
ENDBRANCH  23  26
ENDBRANCH  14  16
ENDBRANCH   4  14
ENDBRANCH  10   4
TORSDOF 6
ENDMDL
MODEL 6
REMARK VINA RESULT:      -7.0     26.808     30.698
REMARK  Name = 11912989
REMARK  6 active torsions:
REMARK  status: ('A' for Active; 'I' for Inactive)
REMARK    1  A    between atoms: N_4  and  C_10
REMARK    2  A    between atoms: N_4  and  C_14
REMARK    3  A    between atoms: N_5  and  C_11
REMARK    4  A    between atoms: C_14  and  C_16
REMARK    5  A    between atoms: C_19  and  C_25
REMARK    6  A    between atoms: C_23  and  C_26
REMARK                            x       y       z     vdW  Elec       q    Type
REMARK                         _______ _______ _______ _____ _____    ______ ____
ROOT
ATOM      1  O   UNL     1      -7.340 -11.756  16.250  0.00  0.00    -0.370 OA
ATOM      2  O   UNL     1      -5.964 -12.633  18.915  0.00  0.00    -0.370 OA
ATOM      8  C   UNL     1      -6.466 -11.377  18.430  0.00  0.00    +0.168 C 
ATOM      9  C   UNL     1      -6.163 -11.313  16.947  0.00  0.00    +0.171 C 
ATOM     10  C   UNL     1      -7.974 -11.355  18.501  0.00  0.00    +0.111 C 
ATOM     11  C   UNL     1      -5.036 -12.301  16.755  0.00  0.00    +0.130 C 
ATOM     12  C   UNL     1      -8.379 -12.023  17.202  0.00  0.00    +0.181 C 
ATOM     13  C   UNL     1      -5.303 -13.323  17.844  0.00  0.00    +0.185 C 
ENDROOT
BRANCH  11   5
ATOM      5  N   UNL     1      -3.764 -11.650  16.979  0.00  0.00    -0.306 N 
ATOM      6  N   UNL     1      -3.481 -11.174  14.699  0.00  0.00    -0.211 NA
ATOM      7  N   UNL     1      -1.822 -10.513  16.317  0.00  0.00    -0.223 NA
ATOM     15  C   UNL     1      -3.000 -11.096  15.968  0.00  0.00    +0.216 A 
ATOM     19  C   UNL     1      -2.710 -10.622  13.739  0.00  0.00    +0.111 A 
ATOM     22  C   UNL     1      -1.102  -9.981  15.306  0.00  0.00    +0.116 A 
ATOM     24  C   UNL     1      -1.500 -10.007  13.985  0.00  0.00    +0.051 A 
ATOM     36  H   UNL     1      -3.421 -11.540  17.927  0.00  0.00    +0.149 HD
BRANCH  19  25
ATOM      3  O   UNL     1      -4.263  -9.867  12.127  0.00  0.00    -0.461 OA
ATOM     25  C   UNL     1      -3.245 -10.720  12.407  0.00  0.00    +0.153 A 
ATOM     27  C   UNL     1      -2.956 -11.506  11.318  0.00  0.00    +0.051 A 
ATOM     30  C   UNL     1      -3.853 -11.110  10.300  0.00  0.00    +0.042 A 
ATOM     31  C   UNL     1      -4.628 -10.110  10.840  0.00  0.00    +0.196 A 
ENDBRANCH  19  25
ENDBRANCH  11   5
BRANCH  10   4
ATOM      4  N   UNL     1      -8.452  -9.951  18.509  0.00  0.00    -0.305 NA
ATOM     35  H   UNL     1      -8.259  -9.536  17.597  0.00  0.00    +0.123 HD
BRANCH   4  14
ATOM     14  C   UNL     1      -9.881  -9.894  18.777  0.00  0.00    +0.116 C 
BRANCH  14  16
ATOM     16  C   UNL     1     -10.598  -8.990  17.809  0.00  0.00    -0.034 A 
ATOM     17  C   UNL     1      -9.895  -7.975  17.175  0.00  0.00    +0.005 A 
ATOM     18  C   UNL     1     -11.949  -9.186  17.565  0.00  0.00    +0.005 A 
ATOM     20  C   UNL     1     -10.559  -7.137  16.279  0.00  0.00    +0.009 A 
ATOM     21  C   UNL     1     -12.613  -8.348  16.669  0.00  0.00    +0.009 A 
ATOM     23  C   UNL     1     -11.918  -7.324  16.025  0.00  0.00    -0.018 A 
BRANCH  23  26
ATOM     26  C   UNL     1     -12.606  -6.455  15.095  0.00  0.00    -0.018 A 
ATOM     28  C   UNL     1     -11.890  -5.505  14.368  0.00  0.00    +0.008 A 
ATOM     29  C   UNL     1     -13.986  -6.569  14.925  0.00  0.00    +0.008 A 
ATOM     32  C   UNL     1     -12.554  -4.668  13.471  0.00  0.00    +0.001 A 
ATOM     33  C   UNL     1     -14.650  -5.732  14.028  0.00  0.00    +0.001 A 
ATOM     34  C   UNL     1     -13.933  -4.781  13.301  0.00  0.00    +0.000 A 
ENDBRANCH  23  26
ENDBRANCH  14  16
ENDBRANCH   4  14
ENDBRANCH  10   4
TORSDOF 6
ENDMDL
MODEL 7
REMARK VINA RESULT:      -6.8     27.657     31.647
REMARK  Name = 11912989
REMARK  6 active torsions:
REMARK  status: ('A' for Active; 'I' for Inactive)
REMARK    1  A    between atoms: N_4  and  C_10
REMARK    2  A    between atoms: N_4  and  C_14
REMARK    3  A    between atoms: N_5  and  C_11
REMARK    4  A    between atoms: C_14  and  C_16
REMARK    5  A    between atoms: C_19  and  C_25
REMARK    6  A    between atoms: C_23  and  C_26
REMARK                            x       y       z     vdW  Elec       q    Type
REMARK                         _______ _______ _______ _____ _____    ______ ____
ROOT
ATOM      1  O   UNL     1      -7.495 -11.510  16.103  0.00  0.00    -0.370 OA
ATOM      2  O   UNL     1      -6.290 -12.972  18.589  0.00  0.00    -0.370 OA
ATOM      8  C   UNL     1      -6.679 -11.611  18.336  0.00  0.00    +0.168 C 
ATOM      9  C   UNL     1      -6.316 -11.299  16.898  0.00  0.00    +0.171 C 
ATOM     10  C   UNL     1      -8.182 -11.481  18.374  0.00  0.00    +0.111 C 
ATOM     11  C   UNL     1      -5.260 -12.322  16.551  0.00  0.00    +0.130 C 
ATOM     12  C   UNL     1      -8.587 -11.863  16.964  0.00  0.00    +0.181 C 
ATOM     13  C   UNL     1      -5.643 -13.502  17.424  0.00  0.00    +0.185 C 
ENDROOT
BRANCH  11   5
ATOM      5  N   UNL     1      -3.952 -11.829  16.922  0.00  0.00    -0.306 N 
ATOM      6  N   UNL     1      -3.498 -11.073  14.748  0.00  0.00    -0.211 NA
ATOM      7  N   UNL     1      -1.885 -10.796  16.516  0.00  0.00    -0.223 NA
ATOM     15  C   UNL     1      -3.086 -11.214  16.035  0.00  0.00    +0.216 A 
ATOM     19  C   UNL     1      -2.629 -10.469  13.911  0.00  0.00    +0.111 A 
ATOM     22  C   UNL     1      -1.065 -10.200  15.625  0.00  0.00    +0.116 A 
ATOM     24  C   UNL     1      -1.387 -10.008  14.296  0.00  0.00    +0.051 A 
ATOM     36  H   UNL     1      -3.656 -11.882  17.890  0.00  0.00    +0.149 HD
BRANCH  19  25
ATOM      3  O   UNL     1      -2.190  -9.819  11.683  0.00  0.00    -0.461 OA
ATOM     25  C   UNL     1      -3.093 -10.334  12.556  0.00  0.00    +0.153 A 
ATOM     27  C   UNL     1      -4.279 -10.614  11.921  0.00  0.00    +0.051 A 
ATOM     30  C   UNL     1      -4.094 -10.248  10.567  0.00  0.00    +0.042 A 
ATOM     31  C   UNL     1      -2.808  -9.770  10.473  0.00  0.00    +0.196 A 
ENDBRANCH  19  25
ENDBRANCH  11   5
BRANCH  10   4
ATOM      4  N   UNL     1      -8.554 -10.069  18.633  0.00  0.00    -0.305 NA
ATOM     35  H   UNL     1      -7.753  -9.475  18.414  0.00  0.00    +0.123 HD
BRANCH   4  14
ATOM     14  C   UNL     1      -9.690  -9.676  17.813  0.00  0.00    +0.116 C 
BRANCH  14  16
ATOM     16  C   UNL     1     -10.981  -9.718  18.586  0.00  0.00    -0.034 A 
ATOM     17  C   UNL     1     -12.182  -9.522  17.919  0.00  0.00    +0.005 A 
ATOM     18  C   UNL     1     -10.952  -9.953  19.953  0.00  0.00    +0.005 A 
ATOM     20  C   UNL     1     -13.379  -9.562  18.635  0.00  0.00    +0.009 A 
ATOM     21  C   UNL     1     -12.148  -9.992  20.669  0.00  0.00    +0.009 A 
ATOM     23  C   UNL     1     -13.362  -9.797  20.009  0.00  0.00    -0.018 A 
BRANCH  23  26
ATOM     26  C   UNL     1     -14.603  -9.838  20.752  0.00  0.00    -0.018 A 
ATOM     28  C   UNL     1     -14.987 -11.010  21.403  0.00  0.00    +0.008 A 
ATOM     29  C   UNL     1     -15.416  -8.707  20.816  0.00  0.00    +0.008 A 
ATOM     32  C   UNL     1     -16.184 -11.050  22.119  0.00  0.00    +0.001 A 
ATOM     33  C   UNL     1     -16.613  -8.746  21.532  0.00  0.00    +0.001 A 
ATOM     34  C   UNL     1     -16.996  -9.919  22.184  0.00  0.00    +0.000 A 
ENDBRANCH  23  26
ENDBRANCH  14  16
ENDBRANCH   4  14
ENDBRANCH  10   4
TORSDOF 6
ENDMDL
MODEL 8
REMARK VINA RESULT:      -6.7     27.124     30.554
REMARK  Name = 11912989
REMARK  6 active torsions:
REMARK  status: ('A' for Active; 'I' for Inactive)
REMARK    1  A    between atoms: N_4  and  C_10
REMARK    2  A    between atoms: N_4  and  C_14
REMARK    3  A    between atoms: N_5  and  C_11
REMARK    4  A    between atoms: C_14  and  C_16
REMARK    5  A    between atoms: C_19  and  C_25
REMARK    6  A    between atoms: C_23  and  C_26
REMARK                            x       y       z     vdW  Elec       q    Type
REMARK                         _______ _______ _______ _____ _____    ______ ____
ROOT
ATOM      1  O   UNL     1     -15.305   6.585  32.166  0.00  0.00    -0.370 OA
ATOM      2  O   UNL     1     -14.965   4.680  34.620  0.00  0.00    -0.370 OA
ATOM      8  C   UNL     1     -14.060   5.533  33.899  0.00  0.00    +0.168 C 
ATOM      9  C   UNL     1     -14.446   5.464  32.435  0.00  0.00    +0.171 C 
ATOM     10  C   UNL     1     -14.290   6.976  34.275  0.00  0.00    +0.111 C 
ATOM     11  C   UNL     1     -15.218   4.171  32.315  0.00  0.00    +0.130 C 
ATOM     12  C   UNL     1     -15.420   7.387  33.351  0.00  0.00    +0.181 C 
ATOM     13  C   UNL     1     -15.842   4.029  33.691  0.00  0.00    +0.185 C 
ENDROOT
BRANCH  11   5
ATOM      5  N   UNL     1     -14.310   3.074  32.062  0.00  0.00    -0.306 N 
ATOM      6  N   UNL     1     -15.662   2.203  30.354  0.00  0.00    -0.211 NA
ATOM      7  N   UNL     1     -13.592   1.130  30.962  0.00  0.00    -0.223 NA
ATOM     15  C   UNL     1     -14.528   2.107  31.097  0.00  0.00    +0.216 A 
ATOM     19  C   UNL     1     -15.842   1.244  29.422  0.00  0.00    +0.111 A 
ATOM     22  C   UNL     1     -13.836   0.204  30.011  0.00  0.00    +0.116 A 
ATOM     24  C   UNL     1     -14.955   0.210  29.204  0.00  0.00    +0.051 A 
ATOM     36  H   UNL     1     -13.436   3.022  32.574  0.00  0.00    +0.149 HD
BRANCH  19  25
ATOM      3  O   UNL     1     -17.590   0.204  28.222  0.00  0.00    -0.461 OA
ATOM     25  C   UNL     1     -17.050   1.372  28.652  0.00  0.00    +0.153 A 
ATOM     27  C   UNL     1     -17.808   2.441  28.237  0.00  0.00    +0.051 A 
ATOM     30  C   UNL     1     -18.886   1.893  27.503  0.00  0.00    +0.042 A 
ATOM     31  C   UNL     1     -18.709   0.530  27.522  0.00  0.00    +0.196 A 
ENDBRANCH  19  25
ENDBRANCH  11   5
BRANCH  10   4
ATOM      4  N   UNL     1     -13.078   7.772  33.963  0.00  0.00    -0.305 NA
ATOM     35  H   UNL     1     -12.598   7.339  33.174  0.00  0.00    +0.123 HD
BRANCH   4  14
ATOM     14  C   UNL     1     -13.433   9.142  33.626  0.00  0.00    +0.116 C 
BRANCH  14  16
ATOM     16  C   UNL     1     -13.056   9.487  32.209  0.00  0.00    -0.034 A 
ATOM     17  C   UNL     1     -11.757   9.260  31.775  0.00  0.00    +0.005 A 
ATOM     18  C   UNL     1     -14.011  10.026  31.359  0.00  0.00    +0.005 A 
ATOM     20  C   UNL     1     -11.407   9.579  30.463  0.00  0.00    +0.009 A 
ATOM     21  C   UNL     1     -13.660  10.345  30.048  0.00  0.00    +0.009 A 
ATOM     23  C   UNL     1     -12.358  10.122  29.599  0.00  0.00    -0.018 A 
BRANCH  23  26
ATOM     26  C   UNL     1     -11.995  10.452  28.238  0.00  0.00    -0.018 A 
ATOM     28  C   UNL     1     -10.782  10.008  27.712  0.00  0.00    +0.008 A 
ATOM     29  C   UNL     1     -12.858  11.216  27.452  0.00  0.00    +0.008 A 
ATOM     32  C   UNL     1     -10.433  10.327  26.400  0.00  0.00    +0.001 A 
ATOM     33  C   UNL     1     -12.508  11.534  26.139  0.00  0.00    +0.001 A 
ATOM     34  C   UNL     1     -11.295  11.089  25.614  0.00  0.00    +0.000 A 
ENDBRANCH  23  26
ENDBRANCH  14  16
ENDBRANCH   4  14
ENDBRANCH  10   4
TORSDOF 6
ENDMDL
MODEL 9
REMARK VINA RESULT:      -6.6      3.963      6.771
REMARK  Name = 11912989
REMARK  6 active torsions:
REMARK  status: ('A' for Active; 'I' for Inactive)
REMARK    1  A    between atoms: N_4  and  C_10
REMARK    2  A    between atoms: N_4  and  C_14
REMARK    3  A    between atoms: N_5  and  C_11
REMARK    4  A    between atoms: C_14  and  C_16
REMARK    5  A    between atoms: C_19  and  C_25
REMARK    6  A    between atoms: C_23  and  C_26
REMARK                            x       y       z     vdW  Elec       q    Type
REMARK                         _______ _______ _______ _____ _____    ______ ____
ROOT
ATOM      1  O   UNL     1      11.442  11.564  25.398  0.00  0.00    -0.370 OA
ATOM      2  O   UNL     1      12.811  13.991  23.983  0.00  0.00    -0.370 OA
ATOM      8  C   UNL     1      12.745  12.586  23.690  0.00  0.00    +0.168 C 
ATOM      9  C   UNL     1      12.797  11.846  25.011  0.00  0.00    +0.171 C 
ATOM     10  C   UNL     1      11.391  12.234  23.122  0.00  0.00    +0.111 C 
ATOM     11  C   UNL     1      13.421  12.837  25.966  0.00  0.00    +0.130 C 
ATOM     12  C   UNL     1      10.553  12.017  24.366  0.00  0.00    +0.181 C 
ATOM     13  C   UNL     1      12.975  14.171  25.397  0.00  0.00    +0.185 C 
ENDROOT
BRANCH  11   5
ATOM      5  N   UNL     1      14.862  12.729  25.921  0.00  0.00    -0.306 N 
ATOM      6  N   UNL     1      14.955  11.625  27.989  0.00  0.00    -0.211 NA
ATOM      7  N   UNL     1      16.965  12.098  26.747  0.00  0.00    -0.223 NA
ATOM     15  C   UNL     1      15.616  12.133  26.916  0.00  0.00    +0.216 A 
ATOM     19  C   UNL     1      15.722  11.050  28.939  0.00  0.00    +0.111 A 
ATOM     22  C   UNL     1      17.671  11.508  27.735  0.00  0.00    +0.116 A 
ATOM     24  C   UNL     1      17.097  10.962  28.866  0.00  0.00    +0.051 A 
ATOM     36  H   UNL     1      15.361  13.058  25.102  0.00  0.00    +0.149 HD
BRANCH  19  25
ATOM      3  O   UNL     1      14.593   9.232  29.938  0.00  0.00    -0.461 OA
ATOM     25  C   UNL     1      14.994  10.523  30.062  0.00  0.00    +0.153 A 
ATOM     27  C   UNL     1      14.597  11.042  31.271  0.00  0.00    +0.051 A 
ATOM     30  C   UNL     1      13.907  10.001  31.935  0.00  0.00    +0.042 A 
ATOM     31  C   UNL     1      13.931   8.922  31.084  0.00  0.00    +0.196 A 
ENDBRANCH  19  25
ENDBRANCH  11   5
BRANCH  10   4
ATOM      4  N   UNL     1      11.486  10.966  22.358  0.00  0.00    -0.305 NA
ATOM     35  H   UNL     1      10.542  10.612  22.196  0.00  0.00    +0.123 HD
BRANCH   4  14
ATOM     14  C   UNL     1      12.152  11.180  21.083  0.00  0.00    +0.116 C 
BRANCH  14  16
ATOM     16  C   UNL     1      13.281  10.207  20.870  0.00  0.00    -0.034 A 
ATOM     17  C   UNL     1      13.667   9.882  19.577  0.00  0.00    +0.005 A 
ATOM     18  C   UNL     1      13.919   9.649  21.969  0.00  0.00    +0.005 A 
ATOM     20  C   UNL     1      14.713   8.981  19.379  0.00  0.00    +0.009 A 
ATOM     21  C   UNL     1      14.964   8.747  21.771  0.00  0.00    +0.009 A 
ATOM     23  C   UNL     1      15.362   8.413  20.476  0.00  0.00    -0.018 A 
BRANCH  23  26
ATOM     26  C   UNL     1      16.447   7.478  20.271  0.00  0.00    -0.018 A 
ATOM     28  C   UNL     1      16.382   6.552  19.231  0.00  0.00    +0.008 A 
ATOM     29  C   UNL     1      17.558   7.504  21.114  0.00  0.00    +0.008 A 
ATOM     32  C   UNL     1      17.429   5.651  19.034  0.00  0.00    +0.001 A 
ATOM     33  C   UNL     1      18.605   6.603  20.916  0.00  0.00    +0.001 A 
ATOM     34  C   UNL     1      18.540   5.676  19.876  0.00  0.00    +0.000 A 
ENDBRANCH  23  26
ENDBRANCH  14  16
ENDBRANCH   4  14
ENDBRANCH  10   4
TORSDOF 6
ENDMDL
MODEL 10
REMARK VINA RESULT:      -6.6     27.143     30.988
REMARK  Name = 11912989
REMARK  6 active torsions:
REMARK  status: ('A' for Active; 'I' for Inactive)
REMARK    1  A    between atoms: N_4  and  C_10
REMARK    2  A    between atoms: N_4  and  C_14
REMARK    3  A    between atoms: N_5  and  C_11
REMARK    4  A    between atoms: C_14  and  C_16
REMARK    5  A    between atoms: C_19  and  C_25
REMARK    6  A    between atoms: C_23  and  C_26
REMARK                            x       y       z     vdW  Elec       q    Type
REMARK                         _______ _______ _______ _____ _____    ______ ____
ROOT
ATOM      1  O   UNL     1      -7.975 -11.479  16.406  0.00  0.00    -0.370 OA
ATOM      2  O   UNL     1      -6.664 -11.272  19.236  0.00  0.00    -0.370 OA
ATOM      8  C   UNL     1      -7.195 -10.300  18.320  0.00  0.00    +0.168 C 
ATOM      9  C   UNL     1      -6.842 -10.759  16.920  0.00  0.00    +0.171 C 
ATOM     10  C   UNL     1      -8.704 -10.326  18.347  0.00  0.00    +0.111 C 
ATOM     11  C   UNL     1      -5.673 -11.696  17.120  0.00  0.00    +0.130 C 
ATOM     12  C   UNL     1      -9.038 -11.434  17.370  0.00  0.00    +0.181 C 
ATOM     13  C   UNL     1      -5.941 -12.269  18.499  0.00  0.00    +0.185 C 
ENDROOT
BRANCH  11   5
ATOM      5  N   UNL     1      -4.435 -10.949  17.120  0.00  0.00    -0.306 N 
ATOM      6  N   UNL     1      -3.533 -12.230  15.374  0.00  0.00    -0.211 NA
ATOM      7  N   UNL     1      -2.275 -10.431  16.366  0.00  0.00    -0.223 NA
ATOM     15  C   UNL     1      -3.383 -11.212  16.260  0.00  0.00    +0.216 A 
ATOM     19  C   UNL     1      -2.489 -12.458  14.551  0.00  0.00    +0.111 A 
ATOM     22  C   UNL     1      -1.268 -10.714  15.512  0.00  0.00    +0.116 A 
ATOM     24  C   UNL     1      -1.320 -11.725  14.575  0.00  0.00    +0.051 A 
ATOM     36  H   UNL     1      -4.332 -10.154  17.741  0.00  0.00    +0.149 HD
BRANCH  19  25
ATOM      3  O   UNL     1      -2.040 -14.696  13.945  0.00  0.00    -0.461 OA
ATOM     25  C   UNL     1      -2.677 -13.542  13.624  0.00  0.00    +0.153 A 
ATOM     27  C   UNL     1      -3.375 -13.682  12.449  0.00  0.00    +0.051 A 
ATOM     30  C   UNL     1      -3.154 -15.011  12.018  0.00  0.00    +0.042 A 
ATOM     31  C   UNL     1      -2.335 -15.587  12.961  0.00  0.00    +0.196 A 
ENDBRANCH  19  25
ENDBRANCH  11   5
BRANCH  10   4
ATOM      4  N   UNL     1      -9.234  -9.037  17.838  0.00  0.00    -0.305 NA
ATOM     35  H   UNL     1      -8.915  -8.910  16.877  0.00  0.00    +0.123 HD
BRANCH   4  14
ATOM     14  C   UNL     1     -10.688  -9.027  17.874  0.00  0.00    +0.116 C 
BRANCH  14  16
ATOM     16  C   UNL     1     -11.267  -8.060  16.876  0.00  0.00    -0.034 A 
ATOM     17  C   UNL     1     -12.573  -8.232  16.437  0.00  0.00    +0.005 A 
ATOM     18  C   UNL     1     -10.488  -7.011  16.409  0.00  0.00    +0.005 A 
ATOM     20  C   UNL     1     -13.110  -7.336  15.512  0.00  0.00    +0.009 A 
ATOM     21  C   UNL     1     -11.024  -6.116  15.484  0.00  0.00    +0.009 A 
ATOM     23  C   UNL     1     -12.335  -6.278  15.035  0.00  0.00    -0.018 A 
BRANCH  23  26
ATOM     26  C   UNL     1     -12.892  -5.349  14.076  0.00  0.00    -0.018 A 
ATOM     28  C   UNL     1     -14.274  -5.196  13.975  0.00  0.00    +0.008 A 
ATOM     29  C   UNL     1     -12.046  -4.607  13.252  0.00  0.00    +0.008 A 
ATOM     32  C   UNL     1     -14.810  -4.299  13.050  0.00  0.00    +0.001 A 
ATOM     33  C   UNL     1     -12.582  -3.711  12.327  0.00  0.00    +0.001 A 
ATOM     34  C   UNL     1     -13.965  -3.557  12.227  0.00  0.00    +0.000 A 
ENDBRANCH  23  26
ENDBRANCH  14  16
ENDBRANCH   4  14
ENDBRANCH  10   4
TORSDOF 6
ENDMDL
