REMARK  Name = 25338211
REMARK  4 active torsions:
REMARK  status: ('A' for Active; 'I' for Inactive)
REMARK    1  A    between atoms: O_4  and  C_10
REMARK    2  A    between atoms: N_6  and  C_9
REMARK    3  A    between atoms: N_7  and  C_11
REMARK    4  A    between atoms: N_8  and  C_21
REMARK                            x       y       z     vdW  Elec       q    Type
REMARK                         _______ _______ _______ _____ _____    ______ ____
ROOT
ATOM      2  O   UNL     1      -2.831   0.915   1.584  0.00  0.00    -0.342 OA
ATOM      3  O   UNL     1      -4.298   1.985   0.141  0.00  0.00    -0.347 OA
ATOM      9  C   UNL     1      -3.078   0.053  -0.654  0.00  0.00    +0.143 C 
ATOM     10  C   UNL     1      -1.927   0.958  -1.151  0.00  0.00    +0.159 C 
ATOM     11  C   UNL     1      -1.233   1.746  -0.019  0.00  0.00    +0.136 C 
ATOM     12  C   UNL     1      -3.795   0.701   0.545  0.00  0.00    +0.270 C 
ATOM     13  C   UNL     1      -2.185   2.112   1.139  0.00  0.00    +0.170 C 
ATOM     14  C   UNL     1      -3.388   2.934   0.717  0.00  0.00    +0.196 C 
ENDROOT
BRANCH  11   7
ATOM      5  O   UNL     1       1.455   1.814  -1.004  0.00  0.00    -0.252 OA
ATOM      7  N   UNL     1      -0.105   0.996   0.492  0.00  0.00    -0.291 N 
ATOM      8  N   UNL     1       2.058   0.255   0.645  0.00  0.00    -0.269 N 
ATOM     20  C   UNL     1       1.178   1.090  -0.051  0.00  0.00    +0.304 C 
ATOM     27  H   UNL     1      -0.273   0.316   1.227  0.00  0.00    +0.151 HD
ATOM     29  H   UNL     1       1.665  -0.282   1.415  0.00  0.00    +0.156 HD
BRANCH   8  21
ATOM      1  F   UNL     1       7.471  -0.505  -0.275  0.00  0.00    -0.205 F 
ATOM     21  C   UNL     1       3.439   0.061   0.410  0.00  0.00    +0.035 A 
ATOM     22  C   UNL     1       4.165  -0.821   1.211  0.00  0.00    +0.026 A 
ATOM     23  C   UNL     1       4.075   0.751  -0.622  0.00  0.00    +0.026 A 
ATOM     24  C   UNL     1       5.528  -1.012   0.980  0.00  0.00    +0.040 A 
ATOM     25  C   UNL     1       5.437   0.560  -0.853  0.00  0.00    +0.040 A 
ATOM     26  C   UNL     1       6.163  -0.321  -0.052  0.00  0.00    +0.124 A 
ENDBRANCH   8  21
ENDBRANCH  11   7
BRANCH   9   6
ATOM      6  N   UNL     1      -2.559  -1.259  -0.271  0.00  0.00    -0.293 NA
ATOM     15  C   UNL     1      -2.332  -2.090  -1.461  0.00  0.00    +0.085 C 
ATOM     16  C   UNL     1      -3.474  -1.919   0.671  0.00  0.00    +0.085 C 
ATOM     17  C   UNL     1      -1.742  -3.449  -1.081  0.00  0.00    +0.015 C 
ATOM     18  C   UNL     1      -2.921  -3.272   1.121  0.00  0.00    +0.015 C 
ATOM     19  C   UNL     1      -2.624  -4.174  -0.072  0.00  0.00    +0.002 C 
ENDBRANCH   9   6
BRANCH  10   4
ATOM      4  O   UNL     1      -2.478   1.889  -2.091  0.00  0.00    -0.388 OA
ATOM     28  H   UNL     1      -1.742   2.416  -2.448  0.00  0.00    +0.210 HD
ENDBRANCH  10   4
TORSDOF 4
