REMARK  Name = 51137958
REMARK  7 active torsions:
REMARK  status: ('A' for Active; 'I' for Inactive)
REMARK    1  A    between atoms: N_5  and  C_22
REMARK    2  A    between atoms: C_6  and  C_8
REMARK    3  A    between atoms: C_7  and  C_17
REMARK    4  A    between atoms: C_8  and  C_13
REMARK    5  A    between atoms: C_13  and  C_18
REMARK    6  A    between atoms: C_13  and  C_19
REMARK    7  A    between atoms: C_22  and  C_23
REMARK                            x       y       z     vdW  Elec       q    Type
REMARK                         _______ _______ _______ _____ _____    ______ ____
ROOT
ATOM      3  N   UNL     1       0.576  -0.057  -0.389  0.00  0.00    -0.299 NA
ATOM      4  N   UNL     1       5.356   1.575  -0.403  0.00  0.00    -0.360 N 
ATOM      6  C   UNL     1       1.359  -1.113   0.267  0.00  0.00    +0.085 C 
ATOM      7  C   UNL     1       0.701   1.260   0.220  0.00  0.00    +0.145 C 
ATOM      9  C   UNL     1       2.881  -0.941   0.227  0.00  0.00    -0.021 A 
ATOM     10  C   UNL     1       3.562   0.274  -0.075  0.00  0.00    +0.008 A 
ATOM     11  C   UNL     1       1.734   2.119  -0.508  0.00  0.00    +0.065 C 
ATOM     12  C   UNL     1       3.131   1.608  -0.396  0.00  0.00    -0.020 A 
ATOM     14  C   UNL     1       4.961   0.301  -0.065  0.00  0.00    +0.047 A 
ATOM     15  C   UNL     1       3.698  -2.042   0.589  0.00  0.00    +0.006 A 
ATOM     16  C   UNL     1       4.265   2.369  -0.598  0.00  0.00    +0.087 A 
ATOM     20  C   UNL     1       5.749  -0.807   0.249  0.00  0.00    +0.026 A 
ATOM     21  C   UNL     1       5.090  -1.981   0.591  0.00  0.00    +0.002 A 
ATOM     29  H   UNL     1       0.777  -0.022  -1.387  0.00  0.00    +0.123 HD
ATOM     30  H   UNL     1       6.316   1.880  -0.477  0.00  0.00    +0.165 HD
ENDROOT
BRANCH   7  17
ATOM      2  O   UNL     1      -0.947   2.570  -0.904  0.00  0.00    -0.274 OA
ATOM      5  N   UNL     1      -1.470   1.627   1.159  0.00  0.00    -0.310 N 
ATOM     17  C   UNL     1      -0.651   1.889   0.074  0.00  0.00    +0.231 C 
ATOM     31  H   UNL     1      -1.132   1.028   1.907  0.00  0.00    +0.149 HD
BRANCH   5  22
ATOM     22  C   UNL     1      -2.817   2.138   1.274  0.00  0.00    +0.139 C 
BRANCH  22  23
ATOM      1  F   UNL     1      -6.603  -1.376  -0.968  0.00  0.00    -0.205 F 
ATOM     23  C   UNL     1      -3.827   1.201   0.676  0.00  0.00    -0.030 A 
ATOM     24  C   UNL     1      -4.177   1.319  -0.669  0.00  0.00    +0.008 A 
ATOM     25  C   UNL     1      -4.415   0.212   1.466  0.00  0.00    +0.008 A 
ATOM     26  C   UNL     1      -5.115   0.448  -1.224  0.00  0.00    +0.038 A 
ATOM     27  C   UNL     1      -5.353  -0.658   0.910  0.00  0.00    +0.038 A 
ATOM     28  C   UNL     1      -5.702  -0.540  -0.435  0.00  0.00    +0.123 A 
ENDBRANCH  22  23
ENDBRANCH   5  22
ENDBRANCH   7  17
BRANCH   6   8
ATOM      8  C   UNL     1       0.895  -2.417  -0.405  0.00  0.00    +0.026 C 
BRANCH   8  13
ATOM     13  C   UNL     1      -0.474  -2.892   0.091  0.00  0.00    -0.015 C 
ATOM     18  C   UNL     1      -0.826  -4.217  -0.588  0.00  0.00    +0.007 C 
ATOM     19  C   UNL     1      -1.582  -1.869  -0.166  0.00  0.00    +0.007 C 
ENDBRANCH   8  13
ENDBRANCH   6   8
TORSDOF 5
