REMARK  Name = 75536684
REMARK  10 active torsions:
REMARK  status: ('A' for Active; 'I' for Inactive)
REMARK    1  A    between atoms: S_1  and  N_8
REMARK    2  A    between atoms: S_1  and  C_16
REMARK    3  A    between atoms: O_3  and  C_10
REMARK    4  A    between atoms: O_6  and  C_23
REMARK    5  A    between atoms: O_6  and  C_27
REMARK    6  A    between atoms: N_7  and  C_9
REMARK    7  A    between atoms: N_7  and  C_14
REMARK    8  A    between atoms: N_8  and  C_13
REMARK    9  A    between atoms: C_11  and  C_13
REMARK   10  A    between atoms: C_14  and  C_15
REMARK                            x       y       z     vdW  Elec       q    Type
REMARK                         _______ _______ _______ _____ _____    ______ ____
ROOT
ATOM      2  O   UNL     1       0.930   1.462  -1.337  0.00  0.00    -0.371 OA
ATOM      9  C   UNL     1      -1.069   1.305  -0.064  0.00  0.00    +0.111 C 
ATOM     10  C   UNL     1       0.086   0.764   0.759  0.00  0.00    +0.164 C 
ATOM     11  C   UNL     1       1.273   1.409   0.058  0.00  0.00    +0.164 C 
ATOM     12  C   UNL     1      -0.487   1.255  -1.467  0.00  0.00    +0.181 C 
ENDROOT
BRANCH  10   3
ATOM      3  O   UNL     1       0.009   1.141   2.121  0.00  0.00    -0.388 OA
ATOM     29  H   UNL     1      -0.036   2.111   2.168  0.00  0.00    +0.210 HD
ENDBRANCH  10   3
BRANCH   9   7
ATOM      7  N   UNL     1      -2.293   0.532   0.070  0.00  0.00    -0.305 NA
ATOM     28  H   UNL     1      -2.455   0.332   1.057  0.00  0.00    +0.123 HD
BRANCH   7  14
ATOM     14  C   UNL     1      -3.438   1.266  -0.456  0.00  0.00    +0.116 C 
BRANCH  14  15
ATOM     15  C   UNL     1      -4.713   0.474  -0.341  0.00  0.00    -0.033 A 
ATOM     17  C   UNL     1      -5.639   0.784   0.655  0.00  0.00    +0.008 A 
ATOM     18  C   UNL     1      -4.968  -0.570  -1.230  0.00  0.00    +0.008 A 
ATOM     21  C   UNL     1      -6.820   0.050   0.762  0.00  0.00    +0.046 A 
ATOM     22  C   UNL     1      -6.149  -1.304  -1.124  0.00  0.00    +0.046 A 
ATOM     23  C   UNL     1      -7.075  -0.994  -0.128  0.00  0.00    +0.120 A 
BRANCH  23   6
ATOM      6  O   UNL     1      -8.228  -1.711  -0.023  0.00  0.00    -0.495 OA
ATOM     27  C   UNL     1      -9.130  -1.340   1.018  0.00  0.00    +0.277 C 
ENDBRANCH  23   6
ENDBRANCH  14  15
ENDBRANCH   7  14
ENDBRANCH   9   7
BRANCH  11  13
ATOM     13  C   UNL     1       2.569   0.638   0.239  0.00  0.00    +0.140 C 
BRANCH  13   8
ATOM      8  N   UNL     1       3.661   1.332  -0.470  0.00  0.00    -0.187 NA
ATOM     30  H   UNL     1       3.521   1.471  -1.479  0.00  0.00    +0.148 HD
BRANCH   8   1
ATOM      1  S   UNL     1       5.254   1.240   0.120  0.00  0.00    +0.058 S 
ATOM      4  O   UNL     1       5.277   1.657   1.509  0.00  0.00    -0.153 OA
ATOM      5  O   UNL     1       6.150   1.855  -0.842  0.00  0.00    -0.153 OA
BRANCH   1  16
ATOM     16  C   UNL     1       5.559  -0.501   0.069  0.00  0.00    +0.105 A 
ATOM     19  C   UNL     1       6.103  -1.080  -1.078  0.00  0.00    +0.028 A 
ATOM     20  C   UNL     1       5.256  -1.294   1.175  0.00  0.00    +0.028 A 
ATOM     24  C   UNL     1       6.343  -2.454  -1.118  0.00  0.00    +0.002 A 
ATOM     25  C   UNL     1       5.497  -2.668   1.135  0.00  0.00    +0.002 A 
ATOM     26  C   UNL     1       6.041  -3.247  -0.012  0.00  0.00    +0.000 A 
ENDBRANCH   1  16
ENDBRANCH   8   1
ENDBRANCH  13   8
ENDBRANCH  11  13
TORSDOF 9
