MODEL 1
REMARK VINA RESULT:      -6.9      0.000      0.000
REMARK  Name = 28961678
REMARK  10 active torsions:
REMARK  status: ('A' for Active; 'I' for Inactive)
REMARK    1  A    between atoms: O_2  and  C_12
REMARK    2  A    between atoms: O_3  and  C_19
REMARK    3  A    between atoms: O_5  and  C_25
REMARK    4  A    between atoms: O_5  and  C_28
REMARK    5  A    between atoms: N_6  and  C_10
REMARK    6  A    between atoms: N_7  and  C_20
REMARK    7  A    between atoms: N_8  and  C_16
REMARK    8  A    between atoms: N_9  and  C_22
REMARK    9  A    between atoms: C_11  and  C_16
REMARK   10  A    between atoms: C_13  and  C_19
REMARK                            x       y       z     vdW  Elec       q    Type
REMARK                         _______ _______ _______ _____ _____    ______ ____
ROOT
ATOM      1  O   UNL     1      10.946   7.919  20.101  0.00  0.00    -0.365 OA
ATOM     10  C   UNL     1      11.199   9.775  21.571  0.00  0.00    +0.118 C 
ATOM     11  C   UNL     1      11.280   9.326  20.106  0.00  0.00    +0.155 C 
ATOM     12  C   UNL     1      11.464   8.490  22.340  0.00  0.00    +0.165 C 
ATOM     13  C   UNL     1      10.740   7.480  21.458  0.00  0.00    +0.174 C 
ENDROOT
BRANCH  10   6
ATOM      6  N   UNL     1      12.038  10.912  21.946  0.00  0.00    -0.292 NA
ATOM      7  N   UNL     1      12.477  13.502  23.152  0.00  0.00    -0.303 NA
ATOM     14  C   UNL     1      11.570  12.142  21.298  0.00  0.00    +0.100 C 
ATOM     15  C   UNL     1      12.070  11.078  23.404  0.00  0.00    +0.100 C 
ATOM     17  C   UNL     1      12.448  13.335  21.694  0.00  0.00    +0.099 C 
ATOM     18  C   UNL     1      12.947  12.271  23.799  0.00  0.00    +0.099 C 
ATOM     20  C   UNL     1      13.316  14.639  23.528  0.00  0.00    +0.105 C 
ENDBRANCH  10   6
BRANCH  12   2
ATOM      2  O   UNL     1      12.854   8.193  22.395  0.00  0.00    -0.388 OA
ATOM     29  H   UNL     1      13.130   7.915  21.505  0.00  0.00    +0.210 HD
ENDBRANCH  12   2
BRANCH  11  16
ATOM     16  C   UNL     1      12.636   9.470  19.422  0.00  0.00    +0.139 C 
BRANCH  16   8
ATOM      4  O   UNL     1      15.477   9.312  19.747  0.00  0.00    -0.253 OA
ATOM      8  N   UNL     1      13.415   8.278  19.567  0.00  0.00    -0.297 N 
ATOM      9  N   UNL     1      15.297   6.973  19.840  0.00  0.00    -0.269 N 
ATOM     21  C   UNL     1      14.812   8.278  19.723  0.00  0.00    +0.304 C 
ATOM     30  H   UNL     1      12.930   7.386  19.569  0.00  0.00    +0.150 HD
ATOM     32  H   UNL     1      14.609   6.225  19.799  0.00  0.00    +0.156 HD
BRANCH   9  22
ATOM     22  C   UNL     1      16.639   6.557  20.011  0.00  0.00    +0.038 A 
ATOM     23  C   UNL     1      17.350   6.947  21.145  0.00  0.00    +0.069 A 
ATOM     24  C   UNL     1      17.248   5.757  19.044  0.00  0.00    +0.023 A 
ATOM     25  C   UNL     1      18.672   6.536  21.313  0.00  0.00    +0.122 A 
ATOM     26  C   UNL     1      18.571   5.346  19.213  0.00  0.00    +0.005 A 
ATOM     27  C   UNL     1      19.283   5.736  20.348  0.00  0.00    +0.046 A 
BRANCH  25   5
ATOM      5  O   UNL     1      19.368   6.915  22.420  0.00  0.00    -0.495 OA
ATOM     28  C   UNL     1      19.604   8.312  22.593  0.00  0.00    +0.277 C 
ENDBRANCH  25   5
ENDBRANCH   9  22
ENDBRANCH  16   8
ENDBRANCH  11  16
BRANCH  13  19
ATOM     19  C   UNL     1      11.204   6.042  21.595  0.00  0.00    +0.190 C 
BRANCH  19   3
ATOM      3  O   UNL     1      12.480   5.913  20.989  0.00  0.00    -0.392 OA
ATOM     31  H   UNL     1      12.720   4.971  21.026  0.00  0.00    +0.210 HD
ENDBRANCH  19   3
ENDBRANCH  13  19
TORSDOF 8
ENDMDL
MODEL 2
REMARK VINA RESULT:      -5.8     28.432     30.760
REMARK  Name = 28961678
REMARK  10 active torsions:
REMARK  status: ('A' for Active; 'I' for Inactive)
REMARK    1  A    between atoms: O_2  and  C_12
REMARK    2  A    between atoms: O_3  and  C_19
REMARK    3  A    between atoms: O_5  and  C_25
REMARK    4  A    between atoms: O_5  and  C_28
REMARK    5  A    between atoms: N_6  and  C_10
REMARK    6  A    between atoms: N_7  and  C_20
REMARK    7  A    between atoms: N_8  and  C_16
REMARK    8  A    between atoms: N_9  and  C_22
REMARK    9  A    between atoms: C_11  and  C_16
REMARK   10  A    between atoms: C_13  and  C_19
REMARK                            x       y       z     vdW  Elec       q    Type
REMARK                         _______ _______ _______ _____ _____    ______ ____
ROOT
ATOM      1  O   UNL     1      -7.112 -11.283  19.943  0.00  0.00    -0.365 OA
ATOM     10  C   UNL     1      -6.189 -12.644  18.221  0.00  0.00    +0.118 C 
ATOM     11  C   UNL     1      -6.052 -11.307  18.960  0.00  0.00    +0.155 C 
ATOM     12  C   UNL     1      -7.665 -12.977  18.383  0.00  0.00    +0.165 C 
ATOM     13  C   UNL     1      -7.912 -12.473  19.800  0.00  0.00    +0.174 C 
ENDROOT
BRANCH  10   6
ATOM      6  N   UNL     1      -5.689 -12.678  16.848  0.00  0.00    -0.292 NA
ATOM      7  N   UNL     1      -3.847 -13.554  14.799  0.00  0.00    -0.303 NA
ATOM     14  C   UNL     1      -4.322 -12.151  16.778  0.00  0.00    +0.100 C 
ATOM     15  C   UNL     1      -5.742 -14.042  16.308  0.00  0.00    +0.100 C 
ATOM     17  C   UNL     1      -3.795 -12.190  15.338  0.00  0.00    +0.099 C 
ATOM     18  C   UNL     1      -5.216 -14.080  14.869  0.00  0.00    +0.099 C 
ATOM     20  C   UNL     1      -3.346 -13.589  13.426  0.00  0.00    +0.105 C 
ENDBRANCH  10   6
BRANCH  12   2
ATOM      2  O   UNL     1      -8.466 -12.257  17.455  0.00  0.00    -0.388 OA
ATOM     29  H   UNL     1      -9.395 -12.371  17.717  0.00  0.00    +0.210 HD
ENDBRANCH  12   2
BRANCH  11  16
ATOM     16  C   UNL     1      -6.190 -10.043  18.117  0.00  0.00    +0.139 C 
BRANCH  16   8
ATOM      4  O   UNL     1      -8.204  -9.449  16.168  0.00  0.00    -0.253 OA
ATOM      8  N   UNL     1      -7.447  -9.401  18.354  0.00  0.00    -0.297 N 
ATOM      9  N   UNL     1      -9.518  -8.507  17.870  0.00  0.00    -0.269 N 
ATOM     21  C   UNL     1      -8.390  -9.142  17.344  0.00  0.00    +0.304 C 
ATOM     30  H   UNL     1      -7.675  -9.130  19.306  0.00  0.00    +0.150 HD
ATOM     32  H   UNL     1      -9.512  -8.322  18.870  0.00  0.00    +0.156 HD
BRANCH   9  22
ATOM     22  C   UNL     1     -10.678  -8.084  17.179  0.00  0.00    +0.038 A 
ATOM     23  C   UNL     1     -10.627  -6.963  16.352  0.00  0.00    +0.069 A 
ATOM     24  C   UNL     1     -11.872  -8.790  17.327  0.00  0.00    +0.023 A 
ATOM     25  C   UNL     1     -11.771  -6.548  15.670  0.00  0.00    +0.122 A 
ATOM     26  C   UNL     1     -13.016  -8.374  16.645  0.00  0.00    +0.005 A 
ATOM     27  C   UNL     1     -12.965  -7.253  15.816  0.00  0.00    +0.046 A 
BRANCH  25   5
ATOM      5  O   UNL     1     -11.722  -5.453  14.861  0.00  0.00    -0.495 OA
ATOM     28  C   UNL     1     -12.746  -5.328  13.876  0.00  0.00    +0.277 C 
ENDBRANCH  25   5
ENDBRANCH   9  22
ENDBRANCH  16   8
ENDBRANCH  11  16
BRANCH  13  19
ATOM     19  C   UNL     1      -9.356 -12.148  20.135  0.00  0.00    +0.190 C 
BRANCH  19   3
ATOM      3  O   UNL     1      -9.523 -10.739  20.125  0.00  0.00    -0.392 OA
ATOM     31  H   UNL     1      -9.145 -10.411  19.291  0.00  0.00    +0.210 HD
ENDBRANCH  19   3
ENDBRANCH  13  19
TORSDOF 8
ENDMDL
MODEL 3
REMARK VINA RESULT:      -5.8     26.981     29.317
REMARK  Name = 28961678
REMARK  10 active torsions:
REMARK  status: ('A' for Active; 'I' for Inactive)
REMARK    1  A    between atoms: O_2  and  C_12
REMARK    2  A    between atoms: O_3  and  C_19
REMARK    3  A    between atoms: O_5  and  C_25
REMARK    4  A    between atoms: O_5  and  C_28
REMARK    5  A    between atoms: N_6  and  C_10
REMARK    6  A    between atoms: N_7  and  C_20
REMARK    7  A    between atoms: N_8  and  C_16
REMARK    8  A    between atoms: N_9  and  C_22
REMARK    9  A    between atoms: C_11  and  C_16
REMARK   10  A    between atoms: C_13  and  C_19
REMARK                            x       y       z     vdW  Elec       q    Type
REMARK                         _______ _______ _______ _____ _____    ______ ____
ROOT
ATOM      1  O   UNL     1      -1.482 -12.665  13.342  0.00  0.00    -0.365 OA
ATOM     10  C   UNL     1      -2.954 -11.868  11.649  0.00  0.00    +0.118 C 
ATOM     11  C   UNL     1      -1.890 -11.450  12.672  0.00  0.00    +0.155 C 
ATOM     12  C   UNL     1      -3.529 -13.142  12.251  0.00  0.00    +0.165 C 
ATOM     13  C   UNL     1      -2.270 -13.764  12.845  0.00  0.00    +0.174 C 
ENDROOT
BRANCH  10   6
ATOM      6  N   UNL     1      -3.938 -10.850  11.288  0.00  0.00    -0.292 NA
ATOM      7  N   UNL     1      -5.515  -9.353   9.381  0.00  0.00    -0.303 NA
ATOM     14  C   UNL     1      -3.331  -9.814  10.444  0.00  0.00    +0.100 C 
ATOM     15  C   UNL     1      -5.090 -11.455  10.609  0.00  0.00    +0.100 C 
ATOM     17  C   UNL     1      -4.364  -8.747  10.062  0.00  0.00    +0.099 C 
ATOM     18  C   UNL     1      -6.122 -10.389  10.227  0.00  0.00    +0.099 C 
ATOM     20  C   UNL     1      -6.499  -8.335   9.019  0.00  0.00    +0.105 C 
ENDBRANCH  10   6
BRANCH  12   2
ATOM      2  O   UNL     1      -4.471 -12.854  13.276  0.00  0.00    -0.388 OA
ATOM     29  H   UNL     1      -5.228 -12.407  12.863  0.00  0.00    +0.210 HD
ENDBRANCH  12   2
BRANCH  11  16
ATOM     16  C   UNL     1      -2.329 -10.466  13.751  0.00  0.00    +0.139 C 
BRANCH  16   8
ATOM      4  O   UNL     1      -4.770 -10.264  15.236  0.00  0.00    -0.253 OA
ATOM      8  N   UNL     1      -2.648 -11.146  14.970  0.00  0.00    -0.297 N 
ATOM      9  N   UNL     1      -3.898 -11.781  16.801  0.00  0.00    -0.269 N 
ATOM     21  C   UNL     1      -3.872 -10.997  15.644  0.00  0.00    +0.304 C 
ATOM     30  H   UNL     1      -1.957 -11.779  15.360  0.00  0.00    +0.150 HD
ATOM     32  H   UNL     1      -3.067 -12.332  16.997  0.00  0.00    +0.156 HD
BRANCH   9  22
ATOM     22  C   UNL     1      -4.946 -11.904  17.743  0.00  0.00    +0.038 A 
ATOM     23  C   UNL     1      -6.044 -12.716  17.462  0.00  0.00    +0.069 A 
ATOM     24  C   UNL     1      -4.881 -11.214  18.953  0.00  0.00    +0.023 A 
ATOM     25  C   UNL     1      -7.077 -12.838  18.391  0.00  0.00    +0.122 A 
ATOM     26  C   UNL     1      -5.914 -11.335  19.882  0.00  0.00    +0.005 A 
ATOM     27  C   UNL     1      -7.012 -12.149  19.601  0.00  0.00    +0.046 A 
BRANCH  25   5
ATOM      5  O   UNL     1      -8.150 -13.631  18.117  0.00  0.00    -0.495 OA
ATOM     28  C   UNL     1      -9.027 -13.934  19.200  0.00  0.00    +0.277 C 
ENDBRANCH  25   5
ENDBRANCH   9  22
ENDBRANCH  16   8
ENDBRANCH  11  16
BRANCH  13  19
ATOM     19  C   UNL     1      -2.501 -14.761  13.965  0.00  0.00    +0.190 C 
BRANCH  19   3
ATOM      3  O   UNL     1      -2.846 -14.053  15.145  0.00  0.00    -0.392 OA
ATOM     31  H   UNL     1      -3.595 -14.522  15.552  0.00  0.00    +0.210 HD
ENDBRANCH  19   3
ENDBRANCH  13  19
TORSDOF 8
ENDMDL
MODEL 4
REMARK VINA RESULT:      -5.7     26.384     29.130
REMARK  Name = 28961678
REMARK  10 active torsions:
REMARK  status: ('A' for Active; 'I' for Inactive)
REMARK    1  A    between atoms: O_2  and  C_12
REMARK    2  A    between atoms: O_3  and  C_19
REMARK    3  A    between atoms: O_5  and  C_25
REMARK    4  A    between atoms: O_5  and  C_28
REMARK    5  A    between atoms: N_6  and  C_10
REMARK    6  A    between atoms: N_7  and  C_20
REMARK    7  A    between atoms: N_8  and  C_16
REMARK    8  A    between atoms: N_9  and  C_22
REMARK    9  A    between atoms: C_11  and  C_16
REMARK   10  A    between atoms: C_13  and  C_19
REMARK                            x       y       z     vdW  Elec       q    Type
REMARK                         _______ _______ _______ _____ _____    ______ ____
ROOT
ATOM      1  O   UNL     1      -9.074 -11.877  17.380  0.00  0.00    -0.365 OA
ATOM     10  C   UNL     1     -10.183  -9.807  16.990  0.00  0.00    +0.118 C 
ATOM     11  C   UNL     1      -9.860 -11.180  16.387  0.00  0.00    +0.155 C 
ATOM     12  C   UNL     1      -9.039  -9.584  17.968  0.00  0.00    +0.165 C 
ATOM     13  C   UNL     1      -8.844 -11.000  18.499  0.00  0.00    +0.174 C 
ENDROOT
BRANCH  10   6
ATOM      6  N   UNL     1     -10.410  -8.721  16.038  0.00  0.00    -0.292 NA
ATOM      7  N   UNL     1     -11.934  -6.506  14.975  0.00  0.00    -0.303 NA
ATOM     14  C   UNL     1     -11.648  -8.942  15.281  0.00  0.00    +0.100 C 
ATOM     15  C   UNL     1     -10.454  -7.425  16.727  0.00  0.00    +0.100 C 
ATOM     17  C   UNL     1     -11.889  -7.801  14.286  0.00  0.00    +0.099 C 
ATOM     18  C   UNL     1     -10.695  -6.286  15.731  0.00  0.00    +0.099 C 
ATOM     20  C   UNL     1     -12.163  -5.420  14.024  0.00  0.00    +0.105 C 
ENDBRANCH  10   6
BRANCH  12   2
ATOM      2  O   UNL     1      -7.864  -9.138  17.304  0.00  0.00    -0.388 OA
ATOM     29  H   UNL     1      -7.145  -9.119  17.958  0.00  0.00    +0.210 HD
ENDBRANCH  12   2
BRANCH  11  16
ATOM     16  C   UNL     1      -9.057 -11.186  15.090  0.00  0.00    +0.139 C 
BRANCH  16   8
ATOM      4  O   UNL     1      -6.649  -9.730  14.554  0.00  0.00    -0.253 OA
ATOM      8  N   UNL     1      -7.717 -11.636  15.316  0.00  0.00    -0.297 N 
ATOM      9  N   UNL     1      -5.413 -11.559  15.351  0.00  0.00    -0.269 N 
ATOM     21  C   UNL     1      -6.579 -10.862  15.028  0.00  0.00    +0.304 C 
ATOM     30  H   UNL     1      -7.583 -12.559  15.718  0.00  0.00    +0.150 HD
ATOM     32  H   UNL     1      -5.530 -12.493  15.735  0.00  0.00    +0.156 HD
BRANCH   9  22
ATOM     22  C   UNL     1      -4.073 -11.124  15.209  0.00  0.00    +0.038 A 
ATOM     23  C   UNL     1      -3.554 -10.871  13.940  0.00  0.00    +0.069 A 
ATOM     24  C   UNL     1      -3.275 -10.948  16.339  0.00  0.00    +0.023 A 
ATOM     25  C   UNL     1      -2.234 -10.441  13.801  0.00  0.00    +0.122 A 
ATOM     26  C   UNL     1      -1.955 -10.518  16.200  0.00  0.00    +0.005 A 
ATOM     27  C   UNL     1      -1.435 -10.264  14.930  0.00  0.00    +0.046 A 
BRANCH  25   5
ATOM      5  O   UNL     1      -1.725 -10.193  12.563  0.00  0.00    -0.495 OA
ATOM     28  C   UNL     1      -2.581 -10.438  11.448  0.00  0.00    +0.277 C 
ENDBRANCH  25   5
ENDBRANCH   9  22
ENDBRANCH  16   8
ENDBRANCH  11  16
BRANCH  13  19
ATOM     19  C   UNL     1      -7.479 -11.292  19.093  0.00  0.00    +0.190 C 
BRANCH  19   3
ATOM      3  O   UNL     1      -7.102 -10.211  19.931  0.00  0.00    -0.392 OA
ATOM     31  H   UNL     1      -7.208 -10.511  20.850  0.00  0.00    +0.210 HD
ENDBRANCH  19   3
ENDBRANCH  13  19
TORSDOF 8
ENDMDL
MODEL 5
REMARK VINA RESULT:      -5.7     16.653     18.606
REMARK  Name = 28961678
REMARK  10 active torsions:
REMARK  status: ('A' for Active; 'I' for Inactive)
REMARK    1  A    between atoms: O_2  and  C_12
REMARK    2  A    between atoms: O_3  and  C_19
REMARK    3  A    between atoms: O_5  and  C_25
REMARK    4  A    between atoms: O_5  and  C_28
REMARK    5  A    between atoms: N_6  and  C_10
REMARK    6  A    between atoms: N_7  and  C_20
REMARK    7  A    between atoms: N_8  and  C_16
REMARK    8  A    between atoms: N_9  and  C_22
REMARK    9  A    between atoms: C_11  and  C_16
REMARK   10  A    between atoms: C_13  and  C_19
REMARK                            x       y       z     vdW  Elec       q    Type
REMARK                         _______ _______ _______ _____ _____    ______ ____
ROOT
ATOM      1  O   UNL     1       9.115   5.702   6.967  0.00  0.00    -0.365 OA
ATOM     10  C   UNL     1      10.963   7.160   6.618  0.00  0.00    +0.118 C 
ATOM     11  C   UNL     1       9.960   6.232   5.921  0.00  0.00    +0.155 C 
ATOM     12  C   UNL     1      11.035   6.594   8.028  0.00  0.00    +0.165 C 
ATOM     13  C   UNL     1       9.581   6.188   8.241  0.00  0.00    +0.174 C 
ENDROOT
BRANCH  10   6
ATOM      6  N   UNL     1      12.252   7.336   5.950  0.00  0.00    -0.292 NA
ATOM      7  N   UNL     1      14.562   8.896   5.181  0.00  0.00    -0.303 NA
ATOM     14  C   UNL     1      12.163   8.366   4.908  0.00  0.00    +0.100 C 
ATOM     15  C   UNL     1      13.300   7.676   6.920  0.00  0.00    +0.100 C 
ATOM     17  C   UNL     1      13.515   8.554   4.210  0.00  0.00    +0.099 C 
ATOM     18  C   UNL     1      14.651   7.864   6.222  0.00  0.00    +0.099 C 
ATOM     20  C   UNL     1      15.851   9.073   4.514  0.00  0.00    +0.105 C 
ENDBRANCH  10   6
BRANCH  12   2
ATOM      2  O   UNL     1      11.882   5.453   8.088  0.00  0.00    -0.388 OA
ATOM     29  H   UNL     1      12.102   5.202   7.176  0.00  0.00    +0.210 HD
ENDBRANCH  12   2
BRANCH  11  16
ATOM     16  C   UNL     1      10.542   5.043   5.164  0.00  0.00    +0.139 C 
BRANCH  16   8
ATOM      4  O   UNL     1      11.260   3.252   3.047  0.00  0.00    -0.253 OA
ATOM      8  N   UNL     1      10.861   5.398   3.814  0.00  0.00    -0.297 N 
ATOM      9  N   UNL     1      11.464   5.096   1.609  0.00  0.00    -0.269 N 
ATOM     21  C   UNL     1      11.205   4.460   2.825  0.00  0.00    +0.304 C 
ATOM     30  H   UNL     1      10.824   6.379   3.555  0.00  0.00    +0.150 HD
ATOM     32  H   UNL     1      11.375   6.109   1.595  0.00  0.00    +0.156 HD
BRANCH   9  22
ATOM     22  C   UNL     1      11.839   4.502   0.381  0.00  0.00    +0.038 A 
ATOM     23  C   UNL     1      10.876   4.254  -0.597  0.00  0.00    +0.069 A 
ATOM     24  C   UNL     1      13.173   4.165   0.148  0.00  0.00    +0.023 A 
ATOM     25  C   UNL     1      11.246   3.669  -1.807  0.00  0.00    +0.122 A 
ATOM     26  C   UNL     1      13.543   3.580  -1.063  0.00  0.00    +0.005 A 
ATOM     27  C   UNL     1      12.579   3.332  -2.041  0.00  0.00    +0.046 A 
BRANCH  25   5
ATOM      5  O   UNL     1      10.306   3.427  -2.762  0.00  0.00    -0.495 OA
ATOM     28  C   UNL     1      10.154   2.076  -3.196  0.00  0.00    +0.277 C 
ENDBRANCH  25   5
ENDBRANCH   9  22
ENDBRANCH  16   8
ENDBRANCH  11  16
BRANCH  13  19
ATOM     19  C   UNL     1       9.349   5.125   9.298  0.00  0.00    +0.190 C 
BRANCH  19   3
ATOM      3  O   UNL     1       9.797   3.875   8.799  0.00  0.00    -0.392 OA
ATOM     31  H   UNL     1       9.639   3.877   7.839  0.00  0.00    +0.210 HD
ENDBRANCH  19   3
ENDBRANCH  13  19
TORSDOF 8
ENDMDL
MODEL 6
REMARK VINA RESULT:      -5.7     27.699     30.352
REMARK  Name = 28961678
REMARK  10 active torsions:
REMARK  status: ('A' for Active; 'I' for Inactive)
REMARK    1  A    between atoms: O_2  and  C_12
REMARK    2  A    between atoms: O_3  and  C_19
REMARK    3  A    between atoms: O_5  and  C_25
REMARK    4  A    between atoms: O_5  and  C_28
REMARK    5  A    between atoms: N_6  and  C_10
REMARK    6  A    between atoms: N_7  and  C_20
REMARK    7  A    between atoms: N_8  and  C_16
REMARK    8  A    between atoms: N_9  and  C_22
REMARK    9  A    between atoms: C_11  and  C_16
REMARK   10  A    between atoms: C_13  and  C_19
REMARK                            x       y       z     vdW  Elec       q    Type
REMARK                         _______ _______ _______ _____ _____    ______ ____
ROOT
ATOM      1  O   UNL     1      -5.237 -10.597  18.583  0.00  0.00    -0.365 OA
ATOM     10  C   UNL     1      -4.541 -12.219  16.987  0.00  0.00    +0.118 C 
ATOM     11  C   UNL     1      -4.574 -10.719  17.304  0.00  0.00    +0.155 C 
ATOM     12  C   UNL     1      -5.733 -12.761  17.761  0.00  0.00    +0.165 C 
ATOM     13  C   UNL     1      -5.664 -11.902  19.018  0.00  0.00    +0.174 C 
ENDROOT
BRANCH  10   6
ATOM      6  N   UNL     1      -4.502 -12.579  15.570  0.00  0.00    -0.292 NA
ATOM      7  N   UNL     1      -3.341 -13.914  13.283  0.00  0.00    -0.303 NA
ATOM     14  C   UNL     1      -3.274 -12.080  14.939  0.00  0.00    +0.100 C 
ATOM     15  C   UNL     1      -4.614 -14.032  15.398  0.00  0.00    +0.100 C 
ATOM     17  C   UNL     1      -3.230 -12.460  13.455  0.00  0.00    +0.099 C 
ATOM     18  C   UNL     1      -4.571 -14.411  13.914  0.00  0.00    +0.099 C 
ATOM     20  C   UNL     1      -3.301 -14.274  11.867  0.00  0.00    +0.105 C 
ENDBRANCH  10   6
BRANCH  12   2
ATOM      2  O   UNL     1      -6.953 -12.530  17.069  0.00  0.00    -0.388 OA
ATOM     29  H   UNL     1      -7.680 -12.782  17.662  0.00  0.00    +0.210 HD
ENDBRANCH  12   2
BRANCH  11  16
ATOM     16  C   UNL     1      -5.323  -9.828  16.320  0.00  0.00    +0.139 C 
BRANCH  16   8
ATOM      4  O   UNL     1      -8.058 -10.023  15.491  0.00  0.00    -0.253 OA
ATOM      8  N   UNL     1      -6.452  -9.207  16.944  0.00  0.00    -0.297 N 
ATOM      9  N   UNL     1      -8.660  -8.633  17.284  0.00  0.00    -0.269 N 
ATOM     21  C   UNL     1      -7.772  -9.350  16.478  0.00  0.00    +0.304 C 
ATOM     30  H   UNL     1      -6.293  -8.645  17.774  0.00  0.00    +0.150 HD
ATOM     32  H   UNL     1      -8.257  -8.124  18.067  0.00  0.00    +0.156 HD
BRANCH   9  22
ATOM     22  C   UNL     1     -10.064  -8.525  17.146  0.00  0.00    +0.038 A 
ATOM     23  C   UNL     1     -10.620  -7.405  16.528  0.00  0.00    +0.069 A 
ATOM     24  C   UNL     1     -10.892  -9.539  17.627  0.00  0.00    +0.023 A 
ATOM     25  C   UNL     1     -12.004  -7.300  16.391  0.00  0.00    +0.122 A 
ATOM     26  C   UNL     1     -12.276  -9.434  17.490  0.00  0.00    +0.005 A 
ATOM     27  C   UNL     1     -12.832  -8.314  16.871  0.00  0.00    +0.046 A 
BRANCH  25   5
ATOM      5  O   UNL     1     -12.548  -6.207  15.787  0.00  0.00    -0.495 OA
ATOM     28  C   UNL     1     -11.901  -5.726  14.610  0.00  0.00    +0.277 C 
ENDBRANCH  25   5
ENDBRANCH   9  22
ENDBRANCH  16   8
ENDBRANCH  11  16
BRANCH  13  19
ATOM     19  C   UNL     1      -6.963 -11.772  19.791  0.00  0.00    +0.190 C 
BRANCH  19   3
ATOM      3  O   UNL     1      -7.452 -10.448  19.648  0.00  0.00    -0.392 OA
ATOM     31  H   UNL     1      -7.149  -9.945  20.424  0.00  0.00    +0.210 HD
ENDBRANCH  19   3
ENDBRANCH  13  19
TORSDOF 8
ENDMDL
MODEL 7
REMARK VINA RESULT:      -5.7      1.874      2.246
REMARK  Name = 28961678
REMARK  10 active torsions:
REMARK  status: ('A' for Active; 'I' for Inactive)
REMARK    1  A    between atoms: O_2  and  C_12
REMARK    2  A    between atoms: O_3  and  C_19
REMARK    3  A    between atoms: O_5  and  C_25
REMARK    4  A    between atoms: O_5  and  C_28
REMARK    5  A    between atoms: N_6  and  C_10
REMARK    6  A    between atoms: N_7  and  C_20
REMARK    7  A    between atoms: N_8  and  C_16
REMARK    8  A    between atoms: N_9  and  C_22
REMARK    9  A    between atoms: C_11  and  C_16
REMARK   10  A    between atoms: C_13  and  C_19
REMARK                            x       y       z     vdW  Elec       q    Type
REMARK                         _______ _______ _______ _____ _____    ______ ____
ROOT
ATOM      1  O   UNL     1      12.902   8.975  19.413  0.00  0.00    -0.365 OA
ATOM     10  C   UNL     1      11.686   9.923  21.227  0.00  0.00    +0.118 C 
ATOM     11  C   UNL     1      12.608  10.242  20.043  0.00  0.00    +0.155 C 
ATOM     12  C   UNL     1      12.049   8.485  21.567  0.00  0.00    +0.165 C 
ATOM     13  C   UNL     1      12.283   7.918  20.172  0.00  0.00    +0.174 C 
ENDROOT
BRANCH  10   6
ATOM      6  N   UNL     1      11.729  10.858  22.349  0.00  0.00    -0.292 NA
ATOM      7  N   UNL     1      10.504  12.684  24.227  0.00  0.00    -0.303 NA
ATOM     14  C   UNL     1      11.281  12.193  21.933  0.00  0.00    +0.100 C 
ATOM     15  C   UNL     1      10.913  10.369  23.467  0.00  0.00    +0.100 C 
ATOM     17  C   UNL     1      11.322  13.174  23.110  0.00  0.00    +0.099 C 
ATOM     18  C   UNL     1      10.954  11.350  24.644  0.00  0.00    +0.099 C 
ATOM     20  C   UNL     1      10.545  13.620  25.350  0.00  0.00    +0.105 C 
ENDBRANCH  10   6
BRANCH  12   2
ATOM      2  O   UNL     1      13.243   8.416  22.336  0.00  0.00    -0.388 OA
ATOM     29  H   UNL     1      13.942   8.871  21.836  0.00  0.00    +0.210 HD
ENDBRANCH  12   2
BRANCH  11  16
ATOM     16  C   UNL     1      13.942  10.902  20.374  0.00  0.00    +0.139 C 
BRANCH  16   8
ATOM      4  O   UNL     1      15.935  10.060  22.252  0.00  0.00    -0.253 OA
ATOM      8  N   UNL     1      15.034  10.011  20.121  0.00  0.00    -0.297 N 
ATOM      9  N   UNL     1      16.923   8.764  20.563  0.00  0.00    -0.269 N 
ATOM     21  C   UNL     1      15.976   9.641  21.097  0.00  0.00    +0.304 C 
ATOM     30  H   UNL     1      15.124   9.615  19.191  0.00  0.00    +0.150 HD
ATOM     32  H   UNL     1      16.814   8.516  19.583  0.00  0.00    +0.156 HD
BRANCH   9  22
ATOM     22  C   UNL     1      18.026   8.170  21.222  0.00  0.00    +0.038 A 
ATOM     23  C   UNL     1      18.922   8.964  21.935  0.00  0.00    +0.069 A 
ATOM     24  C   UNL     1      18.214   6.789  21.158  0.00  0.00    +0.023 A 
ATOM     25  C   UNL     1      20.008   8.378  22.585  0.00  0.00    +0.122 A 
ATOM     26  C   UNL     1      19.300   6.203  21.808  0.00  0.00    +0.005 A 
ATOM     27  C   UNL     1      20.198   6.999  22.522  0.00  0.00    +0.046 A 
BRANCH  25   5
ATOM      5  O   UNL     1      20.885   9.154  23.282  0.00  0.00    -0.495 OA
ATOM     28  C   UNL     1      20.334  10.200  24.079  0.00  0.00    +0.277 C 
ENDBRANCH  25   5
ENDBRANCH   9  22
ENDBRANCH  16   8
ENDBRANCH  11  16
BRANCH  13  19
ATOM     19  C   UNL     1      13.157   6.679  20.109  0.00  0.00    +0.190 C 
BRANCH  19   3
ATOM      3  O   UNL     1      14.479   7.067  19.772  0.00  0.00    -0.392 OA
ATOM     31  H   UNL     1      15.083   6.513  20.297  0.00  0.00    +0.210 HD
ENDBRANCH  19   3
ENDBRANCH  13  19
TORSDOF 8
ENDMDL
MODEL 8
REMARK VINA RESULT:      -5.6     27.536     30.527
REMARK  Name = 28961678
REMARK  10 active torsions:
REMARK  status: ('A' for Active; 'I' for Inactive)
REMARK    1  A    between atoms: O_2  and  C_12
REMARK    2  A    between atoms: O_3  and  C_19
REMARK    3  A    between atoms: O_5  and  C_25
REMARK    4  A    between atoms: O_5  and  C_28
REMARK    5  A    between atoms: N_6  and  C_10
REMARK    6  A    between atoms: N_7  and  C_20
REMARK    7  A    between atoms: N_8  and  C_16
REMARK    8  A    between atoms: N_9  and  C_22
REMARK    9  A    between atoms: C_11  and  C_16
REMARK   10  A    between atoms: C_13  and  C_19
REMARK                            x       y       z     vdW  Elec       q    Type
REMARK                         _______ _______ _______ _____ _____    ______ ____
ROOT
ATOM      1  O   UNL     1      -5.048 -10.217  18.248  0.00  0.00    -0.365 OA
ATOM     10  C   UNL     1      -4.250 -11.824  16.684  0.00  0.00    +0.118 C 
ATOM     11  C   UNL     1      -4.564 -10.337  16.891  0.00  0.00    +0.155 C 
ATOM     12  C   UNL     1      -5.172 -12.512  17.680  0.00  0.00    +0.165 C 
ATOM     13  C   UNL     1      -5.113 -11.528  18.842  0.00  0.00    +0.174 C 
ENDROOT
BRANCH  10   6
ATOM      6  N   UNL     1      -4.337 -12.317  15.310  0.00  0.00    -0.292 NA
ATOM      7  N   UNL     1      -3.257 -13.632  12.973  0.00  0.00    -0.303 NA
ATOM     14  C   UNL     1      -3.345 -11.656  14.455  0.00  0.00    +0.100 C 
ATOM     15  C   UNL     1      -4.163 -13.775  15.268  0.00  0.00    +0.100 C 
ATOM     17  C   UNL     1      -3.433 -12.175  13.015  0.00  0.00    +0.099 C 
ATOM     18  C   UNL     1      -4.251 -14.293  13.828  0.00  0.00    +0.099 C 
ATOM     20  C   UNL     1      -3.343 -14.126  11.600  0.00  0.00    +0.105 C 
ENDBRANCH  10   6
BRANCH  12   2
ATOM      2  O   UNL     1      -6.499 -12.610  17.180  0.00  0.00    -0.388 OA
ATOM     29  H   UNL     1      -6.519 -13.338  16.537  0.00  0.00    +0.210 HD
ENDBRANCH  12   2
BRANCH  11  16
ATOM     16  C   UNL     1      -5.623  -9.728  15.978  0.00  0.00    +0.139 C 
BRANCH  16   8
ATOM      4  O   UNL     1      -8.326 -10.672  16.065  0.00  0.00    -0.253 OA
ATOM      8  N   UNL     1      -6.700  -9.171  16.740  0.00  0.00    -0.297 N 
ATOM      9  N   UNL     1      -8.840  -8.943  17.568  0.00  0.00    -0.269 N 
ATOM     21  C   UNL     1      -8.006  -9.691  16.732  0.00  0.00    +0.304 C 
ATOM     30  H   UNL     1      -6.506  -8.365  17.326  0.00  0.00    +0.150 HD
ATOM     32  H   UNL     1      -8.416  -8.156  18.051  0.00  0.00    +0.156 HD
BRANCH   9  22
ATOM     22  C   UNL     1     -10.216  -9.147  17.828  0.00  0.00    +0.038 A 
ATOM     23  C   UNL     1     -10.614  -9.851  18.964  0.00  0.00    +0.069 A 
ATOM     24  C   UNL     1     -11.174  -8.643  16.948  0.00  0.00    +0.023 A 
ATOM     25  C   UNL     1     -11.970 -10.050  19.221  0.00  0.00    +0.122 A 
ATOM     26  C   UNL     1     -12.530  -8.843  17.204  0.00  0.00    +0.005 A 
ATOM     27  C   UNL     1     -12.928  -9.547  18.342  0.00  0.00    +0.046 A 
BRANCH  25   5
ATOM      5  O   UNL     1     -12.360 -10.737  20.330  0.00  0.00    -0.495 OA
ATOM     28  C   UNL     1     -13.717 -10.588  20.743  0.00  0.00    +0.277 C 
ENDBRANCH  25   5
ENDBRANCH   9  22
ENDBRANCH  16   8
ENDBRANCH  11  16
BRANCH  13  19
ATOM     19  C   UNL     1      -6.284 -11.584  19.805  0.00  0.00    +0.190 C 
BRANCH  19   3
ATOM      3  O   UNL     1      -6.928 -10.319  19.819  0.00  0.00    -0.392 OA
ATOM     31  H   UNL     1      -6.581  -9.830  20.585  0.00  0.00    +0.210 HD
ENDBRANCH  19   3
ENDBRANCH  13  19
TORSDOF 8
ENDMDL
MODEL 9
REMARK VINA RESULT:      -5.4     15.527     17.287
REMARK  Name = 28961678
REMARK  10 active torsions:
REMARK  status: ('A' for Active; 'I' for Inactive)
REMARK    1  A    between atoms: O_2  and  C_12
REMARK    2  A    between atoms: O_3  and  C_19
REMARK    3  A    between atoms: O_5  and  C_25
REMARK    4  A    between atoms: O_5  and  C_28
REMARK    5  A    between atoms: N_6  and  C_10
REMARK    6  A    between atoms: N_7  and  C_20
REMARK    7  A    between atoms: N_8  and  C_16
REMARK    8  A    between atoms: N_9  and  C_22
REMARK    9  A    between atoms: C_11  and  C_16
REMARK   10  A    between atoms: C_13  and  C_19
REMARK                            x       y       z     vdW  Elec       q    Type
REMARK                         _______ _______ _______ _____ _____    ______ ____
ROOT
ATOM      1  O   UNL     1       8.934   6.681   7.086  0.00  0.00    -0.365 OA
ATOM     10  C   UNL     1      10.890   8.022   7.294  0.00  0.00    +0.118 C 
ATOM     11  C   UNL     1       9.467   7.975   6.722  0.00  0.00    +0.155 C 
ATOM     12  C   UNL     1      11.283   6.554   7.363  0.00  0.00    +0.165 C 
ATOM     13  C   UNL     1       9.954   5.928   7.771  0.00  0.00    +0.174 C 
ENDROOT
BRANCH  10   6
ATOM      6  N   UNL     1      11.838   8.889   6.596  0.00  0.00    -0.292 NA
ATOM      7  N   UNL     1      13.920  10.894   6.521  0.00  0.00    -0.303 NA
ATOM     14  C   UNL     1      11.544  10.303   6.860  0.00  0.00    +0.100 C 
ATOM     15  C   UNL     1      13.218   8.570   6.983  0.00  0.00    +0.100 C 
ATOM     17  C   UNL     1      12.540  11.213   6.132  0.00  0.00    +0.099 C 
ATOM     18  C   UNL     1      14.213   9.480   6.255  0.00  0.00    +0.099 C 
ATOM     20  C   UNL     1      14.869  11.761   5.824  0.00  0.00    +0.105 C 
ENDBRANCH  10   6
BRANCH  12   2
ATOM      2  O   UNL     1      11.692   6.064   6.093  0.00  0.00    -0.388 OA
ATOM     29  H   UNL     1      12.444   5.464   6.237  0.00  0.00    +0.210 HD
ENDBRANCH  12   2
BRANCH  11  16
ATOM     16  C   UNL     1       9.335   8.108   5.209  0.00  0.00    +0.139 C 
BRANCH  16   8
ATOM      4  O   UNL     1      11.046   7.533   2.985  0.00  0.00    -0.253 OA
ATOM      8  N   UNL     1       9.502   6.841   4.564  0.00  0.00    -0.297 N 
ATOM      9  N   UNL     1      10.321   5.301   3.055  0.00  0.00    -0.269 N 
ATOM     21  C   UNL     1      10.365   6.633   3.473  0.00  0.00    +0.304 C 
ATOM     30  H   UNL     1       8.980   6.048   4.922  0.00  0.00    +0.150 HD
ATOM     32  H   UNL     1       9.700   4.681   3.568  0.00  0.00    +0.156 HD
BRANCH   9  22
ATOM     22  C   UNL     1      11.040   4.700   1.994  0.00  0.00    +0.038 A 
ATOM     23  C   UNL     1      12.308   4.169   2.225  0.00  0.00    +0.069 A 
ATOM     24  C   UNL     1      10.479   4.638   0.719  0.00  0.00    +0.023 A 
ATOM     25  C   UNL     1      13.017   3.575   1.180  0.00  0.00    +0.122 A 
ATOM     26  C   UNL     1      11.187   4.045  -0.326  0.00  0.00    +0.005 A 
ATOM     27  C   UNL     1      12.457   3.513  -0.095  0.00  0.00    +0.046 A 
BRANCH  25   5
ATOM      5  O   UNL     1      14.255   3.056   1.405  0.00  0.00    -0.495 OA
ATOM     28  C   UNL     1      15.365   3.763   0.853  0.00  0.00    +0.277 C 
ENDBRANCH  25   5
ENDBRANCH   9  22
ENDBRANCH  16   8
ENDBRANCH  11  16
BRANCH  13  19
ATOM     19  C   UNL     1       9.797   4.456   7.438  0.00  0.00    +0.190 C 
BRANCH  19   3
ATOM      3  O   UNL     1      10.452   3.688   8.436  0.00  0.00    -0.392 OA
ATOM     31  H   UNL     1       9.760   3.318   9.012  0.00  0.00    +0.210 HD
ENDBRANCH  19   3
ENDBRANCH  13  19
TORSDOF 8
ENDMDL
MODEL 10
REMARK VINA RESULT:      -5.3     26.325     29.769
REMARK  Name = 28961678
REMARK  10 active torsions:
REMARK  status: ('A' for Active; 'I' for Inactive)
REMARK    1  A    between atoms: O_2  and  C_12
REMARK    2  A    between atoms: O_3  and  C_19
REMARK    3  A    between atoms: O_5  and  C_25
REMARK    4  A    between atoms: O_5  and  C_28
REMARK    5  A    between atoms: N_6  and  C_10
REMARK    6  A    between atoms: N_7  and  C_20
REMARK    7  A    between atoms: N_8  and  C_16
REMARK    8  A    between atoms: N_9  and  C_22
REMARK    9  A    between atoms: C_11  and  C_16
REMARK   10  A    between atoms: C_13  and  C_19
REMARK                            x       y       z     vdW  Elec       q    Type
REMARK                         _______ _______ _______ _____ _____    ______ ____
ROOT
ATOM      1  O   UNL     1      -2.256 -10.185  13.931  0.00  0.00    -0.365 OA
ATOM     10  C   UNL     1      -2.286 -12.357  12.955  0.00  0.00    +0.118 C 
ATOM     11  C   UNL     1      -2.743 -10.903  12.774  0.00  0.00    +0.155 C 
ATOM     12  C   UNL     1      -2.152 -12.490  14.465  0.00  0.00    +0.165 C 
ATOM     13  C   UNL     1      -1.604 -11.113  14.820  0.00  0.00    +0.174 C 
ENDROOT
BRANCH  10   6
ATOM      6  N   UNL     1      -3.109 -13.378  12.309  0.00  0.00    -0.292 NA
ATOM      7  N   UNL     1      -3.573 -15.448  10.346  0.00  0.00    -0.303 NA
ATOM     14  C   UNL     1      -3.332 -13.051  10.896  0.00  0.00    +0.100 C 
ATOM     15  C   UNL     1      -2.492 -14.703  12.439  0.00  0.00    +0.100 C 
ATOM     17  C   UNL     1      -4.192 -14.123  10.217  0.00  0.00    +0.099 C 
ATOM     18  C   UNL     1      -3.352 -15.775  11.760  0.00  0.00    +0.099 C 
ATOM     20  C   UNL     1      -4.395 -16.470   9.699  0.00  0.00    +0.105 C 
ENDBRANCH  10   6
BRANCH  12   2
ATOM      2  O   UNL     1      -3.416 -12.695  15.084  0.00  0.00    -0.388 OA
ATOM     29  H   UNL     1      -3.316 -13.423  15.721  0.00  0.00    +0.210 HD
ENDBRANCH  12   2
BRANCH  11  16
ATOM     16  C   UNL     1      -4.247 -10.665  12.696  0.00  0.00    +0.139 C 
BRANCH  16   8
ATOM      4  O   UNL     1      -6.634 -11.334  14.131  0.00  0.00    -0.253 OA
ATOM      8  N   UNL     1      -4.732 -10.039  13.888  0.00  0.00    -0.297 N 
ATOM      9  N   UNL     1      -6.136  -9.636  15.673  0.00  0.00    -0.269 N 
ATOM     21  C   UNL     1      -5.917 -10.423  14.540  0.00  0.00    +0.304 C 
ATOM     30  H   UNL     1      -4.184  -9.285  14.291  0.00  0.00    +0.150 HD
ATOM     32  H   UNL     1      -5.443  -8.919  15.872  0.00  0.00    +0.156 HD
BRANCH   9  22
ATOM     22  C   UNL     1      -7.212  -9.712  16.589  0.00  0.00    +0.038 A 
ATOM     23  C   UNL     1      -7.074 -10.442  17.769  0.00  0.00    +0.069 A 
ATOM     24  C   UNL     1      -8.411  -9.055  16.311  0.00  0.00    +0.023 A 
ATOM     25  C   UNL     1      -8.135 -10.515  18.671  0.00  0.00    +0.122 A 
ATOM     26  C   UNL     1      -9.472  -9.129  17.213  0.00  0.00    +0.005 A 
ATOM     27  C   UNL     1      -9.333  -9.859  18.394  0.00  0.00    +0.046 A 
BRANCH  25   5
ATOM      5  O   UNL     1      -8.000 -11.228  19.824  0.00  0.00    -0.495 OA
ATOM     28  C   UNL     1      -7.468 -12.547  19.714  0.00  0.00    +0.277 C 
ENDBRANCH  25   5
ENDBRANCH   9  22
ENDBRANCH  16   8
ENDBRANCH  11  16
BRANCH  13  19
ATOM     19  C   UNL     1      -1.827 -10.672  16.254  0.00  0.00    +0.190 C 
BRANCH  19   3
ATOM      3  O   UNL     1      -3.073  -9.997  16.339  0.00  0.00    -0.392 OA
ATOM     31  H   UNL     1      -2.919  -9.172  16.829  0.00  0.00    +0.210 HD
ENDBRANCH  19   3
ENDBRANCH  13  19
TORSDOF 8
ENDMDL
