MODEL 1
REMARK VINA RESULT:      -6.3      0.000      0.000
REMARK  Name = 45783870
REMARK  12 active torsions:
REMARK  status: ('A' for Active; 'I' for Inactive)
REMARK    1  A    between atoms: S_1  and  N_7
REMARK    2  A    between atoms: S_1  and  C_26
REMARK    3  A    between atoms: N_7  and  C_17
REMARK    4  A    between atoms: N_8  and  C_31
REMARK    5  A    between atoms: C_9  and  C_13
REMARK    6  A    between atoms: C_10  and  C_17
REMARK    7  A    between atoms: C_12  and  C_16
REMARK    8  A    between atoms: C_13  and  C_18
REMARK    9  A    between atoms: C_13  and  C_19
REMARK   10  A    between atoms: C_14  and  C_20
REMARK   11  A    between atoms: C_16  and  C_21
REMARK   12  A    between atoms: C_32  and  C_33
REMARK                            x       y       z     vdW  Elec       q    Type
REMARK                         _______ _______ _______ _____ _____    ______ ____
ROOT
ATOM      9  C   UNL     1      -5.451 -11.062  16.438  0.00  0.00    +0.000 C 
ATOM     10  C   UNL     1      -4.661 -12.054  15.548  0.00  0.00    +0.030 C 
ATOM     11  C   UNL     1      -6.946 -11.414  16.435  0.00  0.00    +0.012 C 
ATOM     12  C   UNL     1      -7.549 -11.384  15.018  0.00  0.00    +0.023 C 
ATOM     14  C   UNL     1      -6.679 -12.123  14.021  0.00  0.00    -0.073 C 
ATOM     15  C   UNL     1      -5.395 -12.426  14.281  0.00  0.00    -0.023 C 
ATOM     20  C   UNL     1      -7.333 -12.546  12.736  0.00  0.00    +0.039 C 
ENDROOT
BRANCH   9  13
ATOM     13  C   UNL     1      -4.924 -11.045  17.876  0.00  0.00    -0.013 C 
ATOM     18  C   UNL     1      -4.604 -12.461  18.342  0.00  0.00    +0.007 C 
ATOM     19  C   UNL     1      -5.938 -10.386  18.806  0.00  0.00    +0.007 C 
ENDBRANCH   9  13
BRANCH  12  16
ATOM     16  C   UNL     1      -7.811  -9.946  14.558  0.00  0.00    +0.103 C 
BRANCH  16  21
ATOM      2  O   UNL     1      -9.870 -10.172  13.382  0.00  0.00    -0.276 OA
ATOM      6  N   UNL     1      -9.916  -9.005  15.375  0.00  0.00    -0.301 N 
ATOM     21  C   UNL     1      -9.291  -9.727  14.375  0.00  0.00    +0.216 C 
ATOM     22  C   UNL     1      -9.292  -8.455  16.574  0.00  0.00    +0.108 C 
ATOM     23  C   UNL     1     -11.339  -8.702  15.342  0.00  0.00    +0.108 C 
ATOM     24  C   UNL     1     -10.352  -7.537  17.167  0.00  0.00    +0.020 C 
ATOM     25  C   UNL     1     -11.655  -8.203  16.743  0.00  0.00    +0.020 C 
ENDBRANCH  16  21
ENDBRANCH  12  16
BRANCH  10  17
ATOM     17  C   UNL     1      -3.277 -11.499  15.193  0.00  0.00    +0.113 C 
BRANCH  17   7
ATOM      7  N   UNL     1      -3.422 -10.486  14.135  0.00  0.00    -0.189 NA
ATOM     34  H   UNL     1      -4.314  -9.978  14.113  0.00  0.00    +0.148 HD
BRANCH   7   1
ATOM      1  S   UNL     1      -2.587 -10.662  12.661  0.00  0.00    +0.058 S 
ATOM      3  O   UNL     1      -2.514 -12.069  12.316  0.00  0.00    -0.153 OA
ATOM      4  O   UNL     1      -1.381  -9.858  12.699  0.00  0.00    -0.153 OA
BRANCH   1  26
ATOM     26  C   UNL     1      -3.693  -9.879  11.526  0.00  0.00    +0.105 A 
ATOM     27  C   UNL     1      -3.236  -9.482  10.269  0.00  0.00    +0.030 A 
ATOM     28  C   UNL     1      -5.022  -9.658  11.887  0.00  0.00    +0.030 A 
ATOM     29  C   UNL     1      -4.108  -8.864   9.374  0.00  0.00    +0.025 A 
ATOM     30  C   UNL     1      -5.894  -9.039  10.991  0.00  0.00    +0.025 A 
ATOM     31  C   UNL     1      -5.437  -8.643   9.734  0.00  0.00    +0.033 A 
BRANCH  31   8
ATOM      5  O   UNL     1      -7.578  -9.812   7.969  0.00  0.00    -0.276 OA
ATOM      8  N   UNL     1      -6.310  -8.025   8.838  0.00  0.00    -0.286 N 
ATOM     32  C   UNL     1      -7.292  -8.621   8.036  0.00  0.00    +0.214 C 
ATOM     33  C   UNL     1      -8.027  -7.603   7.201  0.00  0.00    +0.109 C 
ATOM     35  H   UNL     1      -6.213  -7.013   8.764  0.00  0.00    +0.155 HD
ENDBRANCH  31   8
ENDBRANCH   1  26
ENDBRANCH   7   1
ENDBRANCH  17   7
ENDBRANCH  10  17
TORSDOF 8
ENDMDL
MODEL 2
REMARK VINA RESULT:      -6.3      2.622      6.902
REMARK  Name = 45783870
REMARK  12 active torsions:
REMARK  status: ('A' for Active; 'I' for Inactive)
REMARK    1  A    between atoms: S_1  and  N_7
REMARK    2  A    between atoms: S_1  and  C_26
REMARK    3  A    between atoms: N_7  and  C_17
REMARK    4  A    between atoms: N_8  and  C_31
REMARK    5  A    between atoms: C_9  and  C_13
REMARK    6  A    between atoms: C_10  and  C_17
REMARK    7  A    between atoms: C_12  and  C_16
REMARK    8  A    between atoms: C_13  and  C_18
REMARK    9  A    between atoms: C_13  and  C_19
REMARK   10  A    between atoms: C_14  and  C_20
REMARK   11  A    between atoms: C_16  and  C_21
REMARK   12  A    between atoms: C_32  and  C_33
REMARK                            x       y       z     vdW  Elec       q    Type
REMARK                         _______ _______ _______ _____ _____    ______ ____
ROOT
ATOM      9  C   UNL     1      -6.167 -12.686  14.805  0.00  0.00    +0.000 C 
ATOM     10  C   UNL     1      -5.572 -13.871  15.606  0.00  0.00    +0.030 C 
ATOM     11  C   UNL     1      -5.648 -12.702  13.359  0.00  0.00    +0.012 C 
ATOM     12  C   UNL     1      -4.111 -12.613  13.291  0.00  0.00    +0.023 C 
ATOM     14  C   UNL     1      -3.449 -13.574  14.258  0.00  0.00    -0.073 C 
ATOM     15  C   UNL     1      -4.122 -14.136  15.278  0.00  0.00    -0.023 C 
ATOM     20  C   UNL     1      -2.007 -13.908  13.999  0.00  0.00    +0.039 C 
ENDROOT
BRANCH   9  13
ATOM     13  C   UNL     1      -7.699 -12.711  14.806  0.00  0.00    -0.013 C 
ATOM     18  C   UNL     1      -8.209 -14.055  14.296  0.00  0.00    +0.007 C 
ATOM     19  C   UNL     1      -8.251 -11.568  13.960  0.00  0.00    +0.007 C 
ENDBRANCH   9  13
BRANCH  12  16
ATOM     16  C   UNL     1      -3.629 -11.178  13.527  0.00  0.00    +0.103 C 
BRANCH  16  21
ATOM      2  O   UNL     1      -1.686 -10.988  12.162  0.00  0.00    -0.276 OA
ATOM      6  N   UNL     1      -3.590  -9.892  11.446  0.00  0.00    -0.301 N 
ATOM     21  C   UNL     1      -2.871 -10.686  12.320  0.00  0.00    +0.216 C 
ATOM     22  C   UNL     1      -4.990  -9.503  11.572  0.00  0.00    +0.108 C 
ATOM     23  C   UNL     1      -3.000  -9.333  10.239  0.00  0.00    +0.108 C 
ATOM     24  C   UNL     1      -5.182  -8.425  10.515  0.00  0.00    +0.020 C 
ATOM     25  C   UNL     1      -4.187  -8.827   9.433  0.00  0.00    +0.020 C 
ENDBRANCH  16  21
ENDBRANCH  12  16
BRANCH  10  17
ATOM     17  C   UNL     1      -5.723 -13.650  17.115  0.00  0.00    +0.113 C 
BRANCH  17   7
ATOM      7  N   UNL     1      -4.393 -13.432  17.705  0.00  0.00    -0.189 NA
ATOM     34  H   UNL     1      -3.960 -14.245  18.159  0.00  0.00    +0.148 HD
BRANCH   7   1
ATOM      1  S   UNL     1      -3.953 -11.890  18.280  0.00  0.00    +0.058 S 
ATOM      3  O   UNL     1      -2.994 -11.294  17.369  0.00  0.00    -0.153 OA
ATOM      4  O   UNL     1      -3.655 -11.978  19.697  0.00  0.00    -0.153 OA
BRANCH   1  26
ATOM     26  C   UNL     1      -5.474 -11.001  18.127  0.00  0.00    +0.105 A 
ATOM     27  C   UNL     1      -5.690 -10.174  17.025  0.00  0.00    +0.030 A 
ATOM     28  C   UNL     1      -6.457 -11.128  19.108  0.00  0.00    +0.030 A 
ATOM     29  C   UNL     1      -6.889  -9.473  16.904  0.00  0.00    +0.025 A 
ATOM     30  C   UNL     1      -7.657 -10.426  18.987  0.00  0.00    +0.025 A 
ATOM     31  C   UNL     1      -7.873  -9.599  17.885  0.00  0.00    +0.033 A 
BRANCH  31   8
ATOM      5  O   UNL     1     -10.382 -10.270  16.363  0.00  0.00    -0.276 OA
ATOM      8  N   UNL     1      -9.074  -8.898  17.763  0.00  0.00    -0.286 N 
ATOM     32  C   UNL     1     -10.216  -9.259  17.036  0.00  0.00    +0.214 C 
ATOM     33  C   UNL     1     -11.307  -8.225  17.161  0.00  0.00    +0.109 C 
ATOM     35  H   UNL     1      -9.115  -8.016  18.271  0.00  0.00    +0.155 HD
ENDBRANCH  31   8
ENDBRANCH   1  26
ENDBRANCH   7   1
ENDBRANCH  17   7
ENDBRANCH  10  17
TORSDOF 8
ENDMDL
MODEL 3
REMARK VINA RESULT:      -6.2     23.113     27.420
REMARK  Name = 45783870
REMARK  12 active torsions:
REMARK  status: ('A' for Active; 'I' for Inactive)
REMARK    1  A    between atoms: S_1  and  N_7
REMARK    2  A    between atoms: S_1  and  C_26
REMARK    3  A    between atoms: N_7  and  C_17
REMARK    4  A    between atoms: N_8  and  C_31
REMARK    5  A    between atoms: C_9  and  C_13
REMARK    6  A    between atoms: C_10  and  C_17
REMARK    7  A    between atoms: C_12  and  C_16
REMARK    8  A    between atoms: C_13  and  C_18
REMARK    9  A    between atoms: C_13  and  C_19
REMARK   10  A    between atoms: C_14  and  C_20
REMARK   11  A    between atoms: C_16  and  C_21
REMARK   12  A    between atoms: C_32  and  C_33
REMARK                            x       y       z     vdW  Elec       q    Type
REMARK                         _______ _______ _______ _____ _____    ______ ____
ROOT
ATOM      9  C   UNL     1      12.330   5.013   0.858  0.00  0.00    +0.000 C 
ATOM     10  C   UNL     1      13.526   5.538   1.693  0.00  0.00    +0.030 C 
ATOM     11  C   UNL     1      12.643   3.620   0.292  0.00  0.00    +0.012 C 
ATOM     12  C   UNL     1      13.898   3.622  -0.602  0.00  0.00    +0.023 C 
ATOM     14  C   UNL     1      15.050   4.362   0.048  0.00  0.00    -0.073 C 
ATOM     15  C   UNL     1      14.866   5.204   1.081  0.00  0.00    -0.023 C 
ATOM     20  C   UNL     1      16.425   4.078  -0.488  0.00  0.00    +0.039 C 
ENDROOT
BRANCH   9  13
ATOM     13  C   UNL     1      11.041   4.961   1.683  0.00  0.00    -0.013 C 
ATOM     18  C   UNL     1      11.161   3.921   2.792  0.00  0.00    +0.007 C 
ATOM     19  C   UNL     1       9.846   4.658   0.785  0.00  0.00    +0.007 C 
ENDBRANCH   9  13
BRANCH  12  16
ATOM     16  C   UNL     1      13.588   4.196  -1.988  0.00  0.00    +0.103 C 
BRANCH  16  21
ATOM      2  O   UNL     1      12.435   2.295  -2.841  0.00  0.00    -0.276 OA
ATOM      6  N   UNL     1      11.281   4.296  -2.795  0.00  0.00    -0.301 N 
ATOM     21  C   UNL     1      12.389   3.498  -2.577  0.00  0.00    +0.216 C 
ATOM     22  C   UNL     1      11.162   5.720  -2.503  0.00  0.00    +0.108 C 
ATOM     23  C   UNL     1      10.048   3.775  -3.365  0.00  0.00    +0.108 C 
ATOM     24  C   UNL     1       9.867   6.140  -3.185  0.00  0.00    +0.020 C 
ATOM     25  C   UNL     1       9.023   4.873  -3.125  0.00  0.00    +0.020 C 
ENDBRANCH  16  21
ENDBRANCH  12  16
BRANCH  10  17
ATOM     17  C   UNL     1      13.427   7.052   1.909  0.00  0.00    +0.113 C 
BRANCH  17   7
ATOM      7  N   UNL     1      13.004   7.314   3.294  0.00  0.00    -0.189 NA
ATOM     34  H   UNL     1      13.109   6.535   3.955  0.00  0.00    +0.148 HD
BRANCH   7   1
ATOM      1  S   UNL     1      11.777   8.450   3.615  0.00  0.00    +0.058 S 
ATOM      3  O   UNL     1      10.801   8.418   2.542  0.00  0.00    -0.153 OA
ATOM      4  O   UNL     1      12.384   9.707   4.011  0.00  0.00    -0.153 OA
BRANCH   1  26
ATOM     26  C   UNL     1      11.022   7.765   5.059  0.00  0.00    +0.105 A 
ATOM     27  C   UNL     1      10.143   6.688   4.942  0.00  0.00    +0.030 A 
ATOM     28  C   UNL     1      11.304   8.302   6.315  0.00  0.00    +0.030 A 
ATOM     29  C   UNL     1       9.547   6.148   6.081  0.00  0.00    +0.025 A 
ATOM     30  C   UNL     1      10.707   7.761   7.455  0.00  0.00    +0.025 A 
ATOM     31  C   UNL     1       9.829   6.684   7.337  0.00  0.00    +0.033 A 
BRANCH  31   8
ATOM      5  O   UNL     1      10.417   4.134   8.826  0.00  0.00    -0.276 OA
ATOM      8  N   UNL     1       9.233   6.142   8.477  0.00  0.00    -0.286 N 
ATOM     32  C   UNL     1       9.548   4.944   9.131  0.00  0.00    +0.214 C 
ATOM     33  C   UNL     1       8.666   4.714  10.333  0.00  0.00    +0.109 C 
ATOM     35  H   UNL     1       8.476   6.695   8.876  0.00  0.00    +0.155 HD
ENDBRANCH  31   8
ENDBRANCH   1  26
ENDBRANCH   7   1
ENDBRANCH  17   7
ENDBRANCH  10  17
TORSDOF 8
ENDMDL
MODEL 4
REMARK VINA RESULT:      -6.1     23.704     25.887
REMARK  Name = 45783870
REMARK  12 active torsions:
REMARK  status: ('A' for Active; 'I' for Inactive)
REMARK    1  A    between atoms: S_1  and  N_7
REMARK    2  A    between atoms: S_1  and  C_26
REMARK    3  A    between atoms: N_7  and  C_17
REMARK    4  A    between atoms: N_8  and  C_31
REMARK    5  A    between atoms: C_9  and  C_13
REMARK    6  A    between atoms: C_10  and  C_17
REMARK    7  A    between atoms: C_12  and  C_16
REMARK    8  A    between atoms: C_13  and  C_18
REMARK    9  A    between atoms: C_13  and  C_19
REMARK   10  A    between atoms: C_14  and  C_20
REMARK   11  A    between atoms: C_16  and  C_21
REMARK   12  A    between atoms: C_32  and  C_33
REMARK                            x       y       z     vdW  Elec       q    Type
REMARK                         _______ _______ _______ _____ _____    ______ ____
ROOT
ATOM      9  C   UNL     1       9.662   6.521   6.716  0.00  0.00    +0.000 C 
ATOM     10  C   UNL     1       9.134   5.830   5.433  0.00  0.00    +0.030 C 
ATOM     11  C   UNL     1       8.657   7.572   7.210  0.00  0.00    +0.012 C 
ATOM     12  C   UNL     1       8.380   8.657   6.152  0.00  0.00    +0.023 C 
ATOM     14  C   UNL     1       8.112   8.055   4.787  0.00  0.00    -0.073 C 
ATOM     15  C   UNL     1       8.444   6.785   4.489  0.00  0.00    -0.023 C 
ATOM     20  C   UNL     1       7.413   8.931   3.786  0.00  0.00    +0.039 C 
ENDROOT
BRANCH   9  13
ATOM     13  C   UNL     1       9.946   5.509   7.830  0.00  0.00    -0.013 C 
ATOM     18  C   UNL     1       8.868   5.588   8.906  0.00  0.00    +0.007 C 
ATOM     19  C   UNL     1      11.327   5.751   8.430  0.00  0.00    +0.007 C 
ENDBRANCH   9  13
BRANCH  12  16
ATOM     16  C   UNL     1       9.524   9.673   6.088  0.00  0.00    +0.103 C 
BRANCH  16  21
ATOM      2  O   UNL     1       8.421  11.761   5.776  0.00  0.00    -0.276 OA
ATOM      6  N   UNL     1       9.339  11.353   7.857  0.00  0.00    -0.301 N 
ATOM     21  C   UNL     1       9.038  11.024   6.548  0.00  0.00    +0.216 C 
ATOM     22  C   UNL     1      10.060  10.527   8.820  0.00  0.00    +0.108 C 
ATOM     23  C   UNL     1       8.946  12.623   8.448  0.00  0.00    +0.108 C 
ATOM     24  C   UNL     1      10.350  11.466   9.982  0.00  0.00    +0.020 C 
ATOM     25  C   UNL     1       9.176  12.435   9.941  0.00  0.00    +0.020 C 
ENDBRANCH  16  21
ENDBRANCH  12  16
BRANCH  10  17
ATOM     17  C   UNL     1      10.262   5.104   4.691  0.00  0.00    +0.113 C 
BRANCH  17   7
ATOM      7  N   UNL     1      11.515   5.855   4.867  0.00  0.00    -0.189 NA
ATOM     34  H   UNL     1      11.733   6.155   5.825  0.00  0.00    +0.148 HD
BRANCH   7   1
ATOM      1  S   UNL     1      12.135   6.799   3.592  0.00  0.00    +0.058 S 
ATOM      3  O   UNL     1      13.583   6.820   3.671  0.00  0.00    -0.153 OA
ATOM      4  O   UNL     1      11.391   8.042   3.516  0.00  0.00    -0.153 OA
BRANCH   1  26
ATOM     26  C   UNL     1      11.679   5.839   2.179  0.00  0.00    +0.105 A 
ATOM     27  C   UNL     1      10.571   6.205   1.416  0.00  0.00    +0.030 A 
ATOM     28  C   UNL     1      12.427   4.715   1.830  0.00  0.00    +0.030 A 
ATOM     29  C   UNL     1      10.211   5.448   0.302  0.00  0.00    +0.025 A 
ATOM     30  C   UNL     1      12.066   3.956   0.715  0.00  0.00    +0.025 A 
ATOM     31  C   UNL     1      10.959   4.324  -0.049  0.00  0.00    +0.033 A 
BRANCH  31   8
ATOM      5  O   UNL     1      11.778   4.582  -2.934  0.00  0.00    -0.276 OA
ATOM      8  N   UNL     1      10.598   3.566  -1.165  0.00  0.00    -0.286 N 
ATOM     32  C   UNL     1      11.012   3.732  -2.493  0.00  0.00    +0.214 C 
ATOM     33  C   UNL     1      10.393   2.702  -3.404  0.00  0.00    +0.109 C 
ATOM     35  H   UNL     1       9.955   2.799  -0.979  0.00  0.00    +0.155 HD
ENDBRANCH  31   8
ENDBRANCH   1  26
ENDBRANCH   7   1
ENDBRANCH  17   7
ENDBRANCH  10  17
TORSDOF 8
ENDMDL
MODEL 5
REMARK VINA RESULT:      -6.0      2.866      7.170
REMARK  Name = 45783870
REMARK  12 active torsions:
REMARK  status: ('A' for Active; 'I' for Inactive)
REMARK    1  A    between atoms: S_1  and  N_7
REMARK    2  A    between atoms: S_1  and  C_26
REMARK    3  A    between atoms: N_7  and  C_17
REMARK    4  A    between atoms: N_8  and  C_31
REMARK    5  A    between atoms: C_9  and  C_13
REMARK    6  A    between atoms: C_10  and  C_17
REMARK    7  A    between atoms: C_12  and  C_16
REMARK    8  A    between atoms: C_13  and  C_18
REMARK    9  A    between atoms: C_13  and  C_19
REMARK   10  A    between atoms: C_14  and  C_20
REMARK   11  A    between atoms: C_16  and  C_21
REMARK   12  A    between atoms: C_32  and  C_33
REMARK                            x       y       z     vdW  Elec       q    Type
REMARK                         _______ _______ _______ _____ _____    ______ ____
ROOT
ATOM      9  C   UNL     1     -10.346  -8.933  15.563  0.00  0.00    +0.000 C 
ATOM     10  C   UNL     1     -10.766 -10.290  16.182  0.00  0.00    +0.030 C 
ATOM     11  C   UNL     1     -10.429  -8.995  14.030  0.00  0.00    +0.012 C 
ATOM     12  C   UNL     1      -9.528 -10.099  13.442  0.00  0.00    +0.023 C 
ATOM     14  C   UNL     1      -9.692 -11.411  14.182  0.00  0.00    -0.073 C 
ATOM     15  C   UNL     1     -10.259 -11.479  15.400  0.00  0.00    -0.023 C 
ATOM     20  C   UNL     1      -9.228 -12.651  13.471  0.00  0.00    +0.039 C 
ENDROOT
BRANCH   9  13
ATOM     13  C   UNL     1     -11.210  -7.780  16.082  0.00  0.00    -0.013 C 
ATOM     18  C   UNL     1     -12.634  -7.900  15.549  0.00  0.00    +0.007 C 
ATOM     19  C   UNL     1     -10.598  -6.438  15.691  0.00  0.00    +0.007 C 
ENDBRANCH   9  13
BRANCH  12  16
ATOM     16  C   UNL     1      -8.060  -9.660  13.419  0.00  0.00    +0.103 C 
BRANCH  16  21
ATOM      2  O   UNL     1      -8.380  -9.310  11.085  0.00  0.00    -0.276 OA
ATOM      6  N   UNL     1      -6.223  -9.721  11.805  0.00  0.00    -0.301 N 
ATOM     21  C   UNL     1      -7.582  -9.543  11.995  0.00  0.00    +0.216 C 
ATOM     22  C   UNL     1      -5.227  -9.994  12.835  0.00  0.00    +0.108 C 
ATOM     23  C   UNL     1      -5.606  -9.646  10.489  0.00  0.00    +0.108 C 
ATOM     24  C   UNL     1      -3.973 -10.370  12.060  0.00  0.00    +0.020 C 
ATOM     25  C   UNL     1      -4.114  -9.569  10.772  0.00  0.00    +0.020 C 
ENDBRANCH  16  21
ENDBRANCH  12  16
BRANCH  10  17
ATOM     17  C   UNL     1     -10.302 -10.401  17.638  0.00  0.00    +0.113 C 
BRANCH  17   7
ATOM      7  N   UNL     1      -9.522 -11.638  17.802  0.00  0.00    -0.189 NA
ATOM     34  H   UNL     1      -9.973 -12.504  17.482  0.00  0.00    +0.148 HD
BRANCH   7   1
ATOM      1  S   UNL     1      -8.380 -11.771  19.058  0.00  0.00    +0.058 S 
ATOM      3  O   UNL     1      -8.241 -13.165  19.435  0.00  0.00    -0.153 OA
ATOM      4  O   UNL     1      -8.664 -10.768  20.067  0.00  0.00    -0.153 OA
BRANCH   1  26
ATOM     26  C   UNL     1      -6.891 -11.276  18.244  0.00  0.00    +0.105 A 
ATOM     27  C   UNL     1      -6.955 -10.592  17.030  0.00  0.00    +0.030 A 
ATOM     28  C   UNL     1      -5.652 -11.571  18.815  0.00  0.00    +0.030 A 
ATOM     29  C   UNL     1      -5.781 -10.202  16.387  0.00  0.00    +0.025 A 
ATOM     30  C   UNL     1      -4.477 -11.180  18.171  0.00  0.00    +0.025 A 
ATOM     31  C   UNL     1      -4.542 -10.495  16.957  0.00  0.00    +0.033 A 
BRANCH  31   8
ATOM      5  O   UNL     1      -2.727 -12.022  15.103  0.00  0.00    -0.276 OA
ATOM      8  N   UNL     1      -3.367 -10.104  16.314  0.00  0.00    -0.286 N 
ATOM     32  C   UNL     1      -2.556 -10.860  15.457  0.00  0.00    +0.214 C 
ATOM     33  C   UNL     1      -1.370 -10.069  14.967  0.00  0.00    +0.109 C 
ATOM     35  H   UNL     1      -3.070  -9.147  16.497  0.00  0.00    +0.155 HD
ENDBRANCH  31   8
ENDBRANCH   1  26
ENDBRANCH   7   1
ENDBRANCH  17   7
ENDBRANCH  10  17
TORSDOF 8
ENDMDL
MODEL 6
REMARK VINA RESULT:      -6.0     23.090     27.225
REMARK  Name = 45783870
REMARK  12 active torsions:
REMARK  status: ('A' for Active; 'I' for Inactive)
REMARK    1  A    between atoms: S_1  and  N_7
REMARK    2  A    between atoms: S_1  and  C_26
REMARK    3  A    between atoms: N_7  and  C_17
REMARK    4  A    between atoms: N_8  and  C_31
REMARK    5  A    between atoms: C_9  and  C_13
REMARK    6  A    between atoms: C_10  and  C_17
REMARK    7  A    between atoms: C_12  and  C_16
REMARK    8  A    between atoms: C_13  and  C_18
REMARK    9  A    between atoms: C_13  and  C_19
REMARK   10  A    between atoms: C_14  and  C_20
REMARK   11  A    between atoms: C_16  and  C_21
REMARK   12  A    between atoms: C_32  and  C_33
REMARK                            x       y       z     vdW  Elec       q    Type
REMARK                         _______ _______ _______ _____ _____    ______ ____
ROOT
ATOM      9  C   UNL     1       9.697   9.182   1.909  0.00  0.00    +0.000 C 
ATOM     10  C   UNL     1       8.607   9.720   2.870  0.00  0.00    +0.030 C 
ATOM     11  C   UNL     1       9.439   7.704   1.580  0.00  0.00    +0.012 C 
ATOM     12  C   UNL     1       9.422   6.820   2.842  0.00  0.00    +0.023 C 
ATOM     14  C   UNL     1       8.574   7.426   3.941  0.00  0.00    -0.073 C 
ATOM     15  C   UNL     1       8.208   8.720   3.930  0.00  0.00    -0.023 C 
ATOM     20  C   UNL     1       8.117   6.499   5.033  0.00  0.00    +0.039 C 
ENDROOT
BRANCH   9  13
ATOM     13  C   UNL     1       9.766   9.998   0.615  0.00  0.00    -0.013 C 
ATOM     18  C   UNL     1       8.975   9.307  -0.491  0.00  0.00    +0.007 C 
ATOM     19  C   UNL     1      11.217  10.205   0.193  0.00  0.00    +0.007 C 
ENDBRANCH   9  13
BRANCH  12  16
ATOM     16  C   UNL     1      10.844   6.537   3.338  0.00  0.00    +0.103 C 
BRANCH  16  21
ATOM      2  O   UNL     1      10.646   4.223   3.864  0.00  0.00    -0.276 OA
ATOM      6  N   UNL     1      12.087   4.797   2.152  0.00  0.00    -0.301 N 
ATOM     21  C   UNL     1      11.173   5.079   3.150  0.00  0.00    +0.216 C 
ATOM     22  C   UNL     1      12.742   5.759   1.273  0.00  0.00    +0.108 C 
ATOM     23  C   UNL     1      12.515   3.438   1.851  0.00  0.00    +0.108 C 
ATOM     24  C   UNL     1      13.832   4.955   0.576  0.00  0.00    +0.020 C 
ATOM     25  C   UNL     1      13.239   3.553   0.518  0.00  0.00    +0.020 C 
ENDBRANCH  16  21
ENDBRANCH  12  16
BRANCH  10  17
ATOM     17  C   UNL     1       9.054  11.024   3.540  0.00  0.00    +0.113 C 
BRANCH  17   7
ATOM      7  N   UNL     1      10.488  10.935   3.856  0.00  0.00    -0.189 NA
ATOM     34  H   UNL     1      11.023  10.227   3.340  0.00  0.00    +0.148 HD
BRANCH   7   1
ATOM      1  S   UNL     1      11.052  11.365   5.405  0.00  0.00    +0.058 S 
ATOM      3  O   UNL     1      10.252  12.459   5.921  0.00  0.00    -0.153 OA
ATOM      4  O   UNL     1      12.499  11.473   5.371  0.00  0.00    -0.153 OA
BRANCH   1  26
ATOM     26  C   UNL     1      10.666   9.917   6.343  0.00  0.00    +0.105 A 
ATOM     27  C   UNL     1      11.486   8.793   6.258  0.00  0.00    +0.030 A 
ATOM     28  C   UNL     1       9.540   9.900   7.167  0.00  0.00    +0.030 A 
ATOM     29  C   UNL     1      11.181   7.650   6.997  0.00  0.00    +0.025 A 
ATOM     30  C   UNL     1       9.235   8.756   7.906  0.00  0.00    +0.025 A 
ATOM     31  C   UNL     1      10.056   7.632   7.821  0.00  0.00    +0.033 A 
BRANCH  31   8
ATOM      5  O   UNL     1      10.104   4.725   7.038  0.00  0.00    -0.276 OA
ATOM      8  N   UNL     1       9.752   6.488   8.561  0.00  0.00    -0.286 N 
ATOM     32  C   UNL     1       9.791   5.152   8.144  0.00  0.00    +0.214 C 
ATOM     33  C   UNL     1       9.387   4.208   9.249  0.00  0.00    +0.109 C 
ATOM     35  H   UNL     1       9.468   6.658   9.525  0.00  0.00    +0.155 HD
ENDBRANCH  31   8
ENDBRANCH   1  26
ENDBRANCH   7   1
ENDBRANCH  17   7
ENDBRANCH  10  17
TORSDOF 8
ENDMDL
MODEL 7
REMARK VINA RESULT:      -6.0      2.472      6.636
REMARK  Name = 45783870
REMARK  12 active torsions:
REMARK  status: ('A' for Active; 'I' for Inactive)
REMARK    1  A    between atoms: S_1  and  N_7
REMARK    2  A    between atoms: S_1  and  C_26
REMARK    3  A    between atoms: N_7  and  C_17
REMARK    4  A    between atoms: N_8  and  C_31
REMARK    5  A    between atoms: C_9  and  C_13
REMARK    6  A    between atoms: C_10  and  C_17
REMARK    7  A    between atoms: C_12  and  C_16
REMARK    8  A    between atoms: C_13  and  C_18
REMARK    9  A    between atoms: C_13  and  C_19
REMARK   10  A    between atoms: C_14  and  C_20
REMARK   11  A    between atoms: C_16  and  C_21
REMARK   12  A    between atoms: C_32  and  C_33
REMARK                            x       y       z     vdW  Elec       q    Type
REMARK                         _______ _______ _______ _____ _____    ______ ____
ROOT
ATOM      9  C   UNL     1      -4.371 -11.644  12.463  0.00  0.00    +0.000 C 
ATOM     10  C   UNL     1      -3.232 -11.498  13.503  0.00  0.00    +0.030 C 
ATOM     11  C   UNL     1      -3.794 -11.688  11.039  0.00  0.00    +0.012 C 
ATOM     12  C   UNL     1      -2.983 -10.423  10.700  0.00  0.00    +0.023 C 
ATOM     14  C   UNL     1      -2.017 -10.060  11.809  0.00  0.00    -0.073 C 
ATOM     15  C   UNL     1      -2.136 -10.561  13.052  0.00  0.00    -0.023 C 
ATOM     20  C   UNL     1      -0.884  -9.142  11.447  0.00  0.00    +0.039 C 
ENDROOT
BRANCH   9  13
ATOM     13  C   UNL     1      -5.218 -12.894  12.718  0.00  0.00    -0.013 C 
ATOM     18  C   UNL     1      -4.355 -14.148  12.627  0.00  0.00    +0.007 C 
ATOM     19  C   UNL     1      -6.377 -12.963  11.730  0.00  0.00    +0.007 C 
ENDBRANCH   9  13
BRANCH  12  16
ATOM     16  C   UNL     1      -3.906  -9.246  10.368  0.00  0.00    +0.103 C 
BRANCH  16  21
ATOM      2  O   UNL     1      -4.486  -9.931   8.162  0.00  0.00    -0.276 OA
ATOM      6  N   UNL     1      -6.214  -9.659   9.671  0.00  0.00    -0.301 N 
ATOM     21  C   UNL     1      -4.884  -9.647   9.293  0.00  0.00    +0.216 C 
ATOM     22  C   UNL     1      -6.749  -9.339  10.990  0.00  0.00    +0.108 C 
ATOM     23  C   UNL     1      -7.281 -10.017   8.748  0.00  0.00    +0.108 C 
ATOM     24  C   UNL     1      -8.253  -9.239  10.775  0.00  0.00    +0.020 C 
ATOM     25  C   UNL     1      -8.501 -10.217   9.634  0.00  0.00    +0.020 C 
ENDBRANCH  16  21
ENDBRANCH  12  16
BRANCH  10  17
ATOM     17  C   UNL     1      -3.776 -11.034  14.858  0.00  0.00    +0.113 C 
BRANCH  17   7
ATOM      7  N   UNL     1      -3.557 -12.095  15.854  0.00  0.00    -0.189 NA
ATOM     34  H   UNL     1      -2.749 -12.708  15.692  0.00  0.00    +0.148 HD
BRANCH   7   1
ATOM      1  S   UNL     1      -4.874 -12.748  16.714  0.00  0.00    +0.058 S 
ATOM      3  O   UNL     1      -4.520 -12.870  18.114  0.00  0.00    -0.153 OA
ATOM      4  O   UNL     1      -5.392 -13.894  15.990  0.00  0.00    -0.153 OA
BRANCH   1  26
ATOM     26  C   UNL     1      -6.075 -11.459  16.565  0.00  0.00    +0.105 A 
ATOM     27  C   UNL     1      -6.087 -10.410  17.483  0.00  0.00    +0.030 A 
ATOM     28  C   UNL     1      -7.010 -11.494  15.531  0.00  0.00    +0.030 A 
ATOM     29  C   UNL     1      -7.034  -9.393  17.367  0.00  0.00    +0.025 A 
ATOM     30  C   UNL     1      -7.959 -10.476  15.415  0.00  0.00    +0.025 A 
ATOM     31  C   UNL     1      -7.970  -9.426  16.333  0.00  0.00    +0.033 A 
BRANCH  31   8
ATOM      5  O   UNL     1     -10.458  -8.877  17.936  0.00  0.00    -0.276 OA
ATOM      8  N   UNL     1      -8.917  -8.407  16.216  0.00  0.00    -0.286 N 
ATOM     32  C   UNL     1     -10.064  -8.199  16.993  0.00  0.00    +0.214 C 
ATOM     33  C   UNL     1     -10.831  -6.981  16.544  0.00  0.00    +0.109 C 
ATOM     35  H   UNL     1      -8.744  -7.737  15.469  0.00  0.00    +0.155 HD
ENDBRANCH  31   8
ENDBRANCH   1  26
ENDBRANCH   7   1
ENDBRANCH  17   7
ENDBRANCH  10  17
TORSDOF 8
ENDMDL
MODEL 8
REMARK VINA RESULT:      -6.0     22.822     27.009
REMARK  Name = 45783870
REMARK  12 active torsions:
REMARK  status: ('A' for Active; 'I' for Inactive)
REMARK    1  A    between atoms: S_1  and  N_7
REMARK    2  A    between atoms: S_1  and  C_26
REMARK    3  A    between atoms: N_7  and  C_17
REMARK    4  A    between atoms: N_8  and  C_31
REMARK    5  A    between atoms: C_9  and  C_13
REMARK    6  A    between atoms: C_10  and  C_17
REMARK    7  A    between atoms: C_12  and  C_16
REMARK    8  A    between atoms: C_13  and  C_18
REMARK    9  A    between atoms: C_13  and  C_19
REMARK   10  A    between atoms: C_14  and  C_20
REMARK   11  A    between atoms: C_16  and  C_21
REMARK   12  A    between atoms: C_32  and  C_33
REMARK                            x       y       z     vdW  Elec       q    Type
REMARK                         _______ _______ _______ _____ _____    ______ ____
ROOT
ATOM      9  C   UNL     1      11.314   6.309   2.875  0.00  0.00    +0.000 C 
ATOM     10  C   UNL     1      12.699   6.781   3.384  0.00  0.00    +0.030 C 
ATOM     11  C   UNL     1      11.359   4.819   2.503  0.00  0.00    +0.012 C 
ATOM     12  C   UNL     1      12.406   4.523   1.412  0.00  0.00    +0.023 C 
ATOM     14  C   UNL     1      13.735   5.185   1.714  0.00  0.00    -0.073 C 
ATOM     15  C   UNL     1      13.849   6.183   2.608  0.00  0.00    -0.023 C 
ATOM     20  C   UNL     1      14.939   4.643   0.996  0.00  0.00    +0.039 C 
ENDROOT
BRANCH   9  13
ATOM     13  C   UNL     1      10.214   6.551   3.914  0.00  0.00    -0.013 C 
ATOM     18  C   UNL     1       9.761   5.230   4.526  0.00  0.00    +0.007 C 
ATOM     19  C   UNL     1       9.037   7.286   3.281  0.00  0.00    +0.007 C 
ENDBRANCH   9  13
BRANCH  12  16
ATOM     16  C   UNL     1      11.892   4.929   0.027  0.00  0.00    +0.103 C 
BRANCH  16  21
ATOM      2  O   UNL     1      12.692   2.814  -0.719  0.00  0.00    -0.276 OA
ATOM      6  N   UNL     1      10.954   3.764  -1.908  0.00  0.00    -0.301 N 
ATOM     21  C   UNL     1      11.891   3.734  -0.891  0.00  0.00    +0.216 C 
ATOM     22  C   UNL     1       9.978   4.817  -2.164  0.00  0.00    +0.108 C 
ATOM     23  C   UNL     1      10.831   2.689  -2.883  0.00  0.00    +0.108 C 
ATOM     24  C   UNL     1       9.408   4.482  -3.536  0.00  0.00    +0.020 C 
ATOM     25  C   UNL     1       9.509   2.962  -3.585  0.00  0.00    +0.020 C 
ENDBRANCH  16  21
ENDBRANCH  12  16
BRANCH  10  17
ATOM     17  C   UNL     1      12.806   8.309   3.360  0.00  0.00    +0.113 C 
BRANCH  17   7
ATOM      7  N   UNL     1      13.310   8.778   4.660  0.00  0.00    -0.189 NA
ATOM     34  H   UNL     1      13.980   8.161   5.135  0.00  0.00    +0.148 HD
BRANCH   7   1
ATOM      1  S   UNL     1      12.349   9.788   5.639  0.00  0.00    +0.058 S 
ATOM      3  O   UNL     1      11.430  10.533   4.801  0.00  0.00    -0.153 OA
ATOM      4  O   UNL     1      13.200  10.483   6.585  0.00  0.00    -0.153 OA
BRANCH   1  26
ATOM     26  C   UNL     1      11.411   8.607   6.561  0.00  0.00    +0.105 A 
ATOM     27  C   UNL     1      11.987   7.390   6.924  0.00  0.00    +0.030 A 
ATOM     28  C   UNL     1      10.095   8.892   6.925  0.00  0.00    +0.030 A 
ATOM     29  C   UNL     1      11.247   6.458   7.651  0.00  0.00    +0.025 A 
ATOM     30  C   UNL     1       9.354   7.959   7.652  0.00  0.00    +0.025 A 
ATOM     31  C   UNL     1       9.931   6.742   8.016  0.00  0.00    +0.033 A 
BRANCH  31   8
ATOM      5  O   UNL     1      10.653   5.168  10.479  0.00  0.00    -0.276 OA
ATOM      8  N   UNL     1       9.191   5.810   8.744  0.00  0.00    -0.286 N 
ATOM     32  C   UNL     1       9.579   5.102   9.889  0.00  0.00    +0.214 C 
ATOM     33  C   UNL     1       8.486   4.185  10.377  0.00  0.00    +0.109 C 
ATOM     35  H   UNL     1       8.253   5.628   8.391  0.00  0.00    +0.155 HD
ENDBRANCH  31   8
ENDBRANCH   1  26
ENDBRANCH   7   1
ENDBRANCH  17   7
ENDBRANCH  10  17
TORSDOF 8
ENDMDL
MODEL 9
REMARK VINA RESULT:      -6.0      2.515      6.396
REMARK  Name = 45783870
REMARK  12 active torsions:
REMARK  status: ('A' for Active; 'I' for Inactive)
REMARK    1  A    between atoms: S_1  and  N_7
REMARK    2  A    between atoms: S_1  and  C_26
REMARK    3  A    between atoms: N_7  and  C_17
REMARK    4  A    between atoms: N_8  and  C_31
REMARK    5  A    between atoms: C_9  and  C_13
REMARK    6  A    between atoms: C_10  and  C_17
REMARK    7  A    between atoms: C_12  and  C_16
REMARK    8  A    between atoms: C_13  and  C_18
REMARK    9  A    between atoms: C_13  and  C_19
REMARK   10  A    between atoms: C_14  and  C_20
REMARK   11  A    between atoms: C_16  and  C_21
REMARK   12  A    between atoms: C_32  and  C_33
REMARK                            x       y       z     vdW  Elec       q    Type
REMARK                         _______ _______ _______ _____ _____    ______ ____
ROOT
ATOM      9  C   UNL     1      -3.279 -10.815  11.505  0.00  0.00    +0.000 C 
ATOM     10  C   UNL     1      -3.182 -12.243  10.912  0.00  0.00    +0.030 C 
ATOM     11  C   UNL     1      -2.298 -10.653  12.675  0.00  0.00    +0.012 C 
ATOM     12  C   UNL     1      -2.564 -11.668  13.804  0.00  0.00    +0.023 C 
ATOM     14  C   UNL     1      -2.747 -13.073  13.264  0.00  0.00    -0.073 C 
ATOM     15  C   UNL     1      -3.009 -13.311  11.966  0.00  0.00    -0.023 C 
ATOM     20  C   UNL     1      -2.577 -14.201  14.242  0.00  0.00    +0.039 C 
ENDROOT
BRANCH   9  13
ATOM     13  C   UNL     1      -3.007  -9.741  10.447  0.00  0.00    -0.013 C 
ATOM     18  C   UNL     1      -1.725  -8.983  10.776  0.00  0.00    +0.007 C 
ATOM     19  C   UNL     1      -4.190  -8.783  10.345  0.00  0.00    +0.007 C 
ENDBRANCH   9  13
BRANCH  12  16
ATOM     16  C   UNL     1      -3.765 -11.246  14.656  0.00  0.00    +0.103 C 
BRANCH  16  21
ATOM      2  O   UNL     1      -2.250 -10.806  16.440  0.00  0.00    -0.276 OA
ATOM      6  N   UNL     1      -4.336 -11.623  17.004  0.00  0.00    -0.301 N 
ATOM     21  C   UNL     1      -3.371 -11.198  16.110  0.00  0.00    +0.216 C 
ATOM     22  C   UNL     1      -5.678 -12.094  16.680  0.00  0.00    +0.108 C 
ATOM     23  C   UNL     1      -4.108 -11.644  18.442  0.00  0.00    +0.108 C 
ATOM     24  C   UNL     1      -6.197 -12.686  17.983  0.00  0.00    +0.020 C 
ATOM     25  C   UNL     1      -5.490 -11.853  19.043  0.00  0.00    +0.020 C 
ENDBRANCH  16  21
ENDBRANCH  12  16
BRANCH  10  17
ATOM     17  C   UNL     1      -4.407 -12.569  10.051  0.00  0.00    +0.113 C 
BRANCH  17   7
ATOM      7  N   UNL     1      -5.598 -12.634  10.912  0.00  0.00    -0.189 NA
ATOM     34  H   UNL     1      -5.626 -13.406  11.589  0.00  0.00    +0.148 HD
BRANCH   7   1
ATOM      1  S   UNL     1      -7.090 -12.025  10.360  0.00  0.00    +0.058 S 
ATOM      3  O   UNL     1      -8.019 -13.124  10.180  0.00  0.00    -0.153 OA
ATOM      4  O   UNL     1      -6.850 -11.089   9.278  0.00  0.00    -0.153 OA
BRANCH   1  26
ATOM     26  C   UNL     1      -7.629 -11.078  11.752  0.00  0.00    +0.105 A 
ATOM     27  C   UNL     1      -8.989 -10.849  11.954  0.00  0.00    +0.030 A 
ATOM     28  C   UNL     1      -6.693 -10.559  12.646  0.00  0.00    +0.030 A 
ATOM     29  C   UNL     1      -9.415 -10.101  13.051  0.00  0.00    +0.025 A 
ATOM     30  C   UNL     1      -7.118  -9.810  13.744  0.00  0.00    +0.025 A 
ATOM     31  C   UNL     1      -8.480  -9.582  13.947  0.00  0.00    +0.033 A 
BRANCH  31   8
ATOM      5  O   UNL     1      -9.035 -10.420  16.785  0.00  0.00    -0.276 OA
ATOM      8  N   UNL     1      -8.906  -8.834  15.046  0.00  0.00    -0.286 N 
ATOM     32  C   UNL     1      -9.151  -9.279  16.352  0.00  0.00    +0.214 C 
ATOM     33  C   UNL     1      -9.600  -8.154  17.250  0.00  0.00    +0.109 C 
ATOM     35  H   UNL     1      -9.054  -7.843  14.866  0.00  0.00    +0.155 HD
ENDBRANCH  31   8
ENDBRANCH   1  26
ENDBRANCH   7   1
ENDBRANCH  17   7
ENDBRANCH  10  17
TORSDOF 8
ENDMDL
MODEL 10
REMARK VINA RESULT:      -5.9     24.162     27.819
REMARK  Name = 45783870
REMARK  12 active torsions:
REMARK  status: ('A' for Active; 'I' for Inactive)
REMARK    1  A    between atoms: S_1  and  N_7
REMARK    2  A    between atoms: S_1  and  C_26
REMARK    3  A    between atoms: N_7  and  C_17
REMARK    4  A    between atoms: N_8  and  C_31
REMARK    5  A    between atoms: C_9  and  C_13
REMARK    6  A    between atoms: C_10  and  C_17
REMARK    7  A    between atoms: C_12  and  C_16
REMARK    8  A    between atoms: C_13  and  C_18
REMARK    9  A    between atoms: C_13  and  C_19
REMARK   10  A    between atoms: C_14  and  C_20
REMARK   11  A    between atoms: C_16  and  C_21
REMARK   12  A    between atoms: C_32  and  C_33
REMARK                            x       y       z     vdW  Elec       q    Type
REMARK                         _______ _______ _______ _____ _____    ______ ____
ROOT
ATOM      9  C   UNL     1       8.998   8.318   5.614  0.00  0.00    +0.000 C 
ATOM     10  C   UNL     1       8.641   8.262   7.121  0.00  0.00    +0.030 C 
ATOM     11  C   UNL     1       8.736   6.957   4.952  0.00  0.00    +0.012 C 
ATOM     12  C   UNL     1       9.552   5.824   5.604  0.00  0.00    +0.023 C 
ATOM     14  C   UNL     1       9.464   5.868   7.116  0.00  0.00    -0.073 C 
ATOM     15  C   UNL     1       9.042   6.962   7.776  0.00  0.00    -0.023 C 
ATOM     20  C   UNL     1       9.831   4.610   7.852  0.00  0.00    +0.039 C 
ENDROOT
BRANCH   9  13
ATOM     13  C   UNL     1       8.211   9.410   4.884  0.00  0.00    -0.013 C 
ATOM     18  C   UNL     1       7.371   8.803   3.765  0.00  0.00    +0.007 C 
ATOM     19  C   UNL     1       9.159  10.471   4.333  0.00  0.00    +0.007 C 
ENDBRANCH   9  13
BRANCH  12  16
ATOM     16  C   UNL     1      11.011   5.854   5.137  0.00  0.00    +0.103 C 
BRANCH  16  21
ATOM      2  O   UNL     1      10.367   4.396   3.368  0.00  0.00    -0.276 OA
ATOM      6  N   UNL     1      12.086   5.879   2.941  0.00  0.00    -0.301 N 
ATOM     21  C   UNL     1      11.114   5.304   3.738  0.00  0.00    +0.216 C 
ATOM     22  C   UNL     1      12.997   6.955   3.315  0.00  0.00    +0.108 C 
ATOM     23  C   UNL     1      12.317   5.454   1.568  0.00  0.00    +0.108 C 
ATOM     24  C   UNL     1      14.016   7.001   2.186  0.00  0.00    +0.020 C 
ATOM     25  C   UNL     1      13.210   6.536   0.979  0.00  0.00    +0.020 C 
ENDBRANCH  16  21
ENDBRANCH  12  16
BRANCH  10  17
ATOM     17  C   UNL     1       9.272   9.433   7.882  0.00  0.00    +0.113 C 
BRANCH  17   7
ATOM      7  N   UNL     1      10.737   9.314   7.822  0.00  0.00    -0.189 NA
ATOM     34  H   UNL     1      11.140   8.461   8.229  0.00  0.00    +0.148 HD
BRANCH   7   1
ATOM      1  S   UNL     1      11.712  10.711   7.814  0.00  0.00    +0.058 S 
ATOM      3  O   UNL     1      11.954  11.133   9.180  0.00  0.00    -0.153 OA
ATOM      4  O   UNL     1      11.186  11.652   6.843  0.00  0.00    -0.153 OA
BRANCH   1  26
ATOM     26  C   UNL     1      13.230  10.087   7.158  0.00  0.00    +0.105 A 
ATOM     27  C   UNL     1      14.304  10.950   6.947  0.00  0.00    +0.030 A 
ATOM     28  C   UNL     1      13.352   8.731   6.852  0.00  0.00    +0.030 A 
ATOM     29  C   UNL     1      15.502  10.458   6.428  0.00  0.00    +0.025 A 
ATOM     30  C   UNL     1      14.551   8.239   6.333  0.00  0.00    +0.025 A 
ATOM     31  C   UNL     1      15.625   9.103   6.122  0.00  0.00    +0.033 A 
BRANCH  31   8
ATOM      5  O   UNL     1      16.702   9.137   3.310  0.00  0.00    -0.276 OA
ATOM      8  N   UNL     1      16.825   8.611   5.604  0.00  0.00    -0.286 N 
ATOM     32  C   UNL     1      17.277   8.653   4.279  0.00  0.00    +0.214 C 
ATOM     33  C   UNL     1      18.632   8.008   4.130  0.00  0.00    +0.109 C 
ATOM     35  H   UNL     1      17.441   8.168   6.283  0.00  0.00    +0.155 HD
ENDBRANCH  31   8
ENDBRANCH   1  26
ENDBRANCH   7   1
ENDBRANCH  17   7
ENDBRANCH  10  17
TORSDOF 8
ENDMDL
