MODEL 1
REMARK VINA RESULT:      -7.9      0.000      0.000
REMARK  Name = 45360664
REMARK  13 active torsions:
REMARK  status: ('A' for Active; 'I' for Inactive)
REMARK    1  A    between atoms: O_3  and  C_34
REMARK    2  A    between atoms: O_3  and  C_35
REMARK    3  A    between atoms: N_6  and  C_10
REMARK    4  A    between atoms: N_6  and  C_18
REMARK    5  A    between atoms: N_7  and  C_23
REMARK    6  A    between atoms: N_8  and  C_26
REMARK    7  A    between atoms: N_8  and  C_30
REMARK    8  A    between atoms: N_8  and  C_31
REMARK    9  A    between atoms: C_12  and  C_16
REMARK   10  A    between atoms: C_16  and  C_17
REMARK   11  A    between atoms: C_17  and  C_19
REMARK   12  A    between atoms: C_18  and  C_20
REMARK   13  A    between atoms: C_23  and  C_27
REMARK                            x       y       z     vdW  Elec       q    Type
REMARK                         _______ _______ _______ _____ _____    ______ ____
ROOT
ATOM      1  O   UNL     1     -17.731   1.888  21.917  0.00  0.00    -0.274 OA
ATOM      4  N   UNL     1     -17.048   3.367  25.183  0.00  0.00    -0.286 NA
ATOM      5  N   UNL     1     -17.579   0.899  23.960  0.00  0.00    -0.313 N 
ATOM      9  C   UNL     1     -17.483   3.380  23.781  0.00  0.00    +0.145 C 
ATOM     10  C   UNL     1     -15.426   4.617  24.146  0.00  0.00    +0.070 C 
ATOM     11  C   UNL     1     -16.433   4.238  23.059  0.00  0.00    +0.048 C 
ATOM     12  C   UNL     1     -17.621   2.289  25.980  0.00  0.00    +0.075 C 
ATOM     13  C   UNL     1     -15.595   3.517  25.185  0.00  0.00    +0.104 C 
ATOM     14  C   UNL     1     -17.291   0.934  25.376  0.00  0.00    +0.123 C 
ATOM     15  C   UNL     1     -17.584   2.000  23.138  0.00  0.00    +0.230 C 
ATOM     36  H   UNL     1     -17.668  -0.013  23.522  0.00  0.00    +0.149 HD
ENDROOT
BRANCH  10   6
ATOM      6  N   UNL     1     -14.066   4.739  23.647  0.00  0.00    -0.308 NA
ATOM     37  H   UNL     1     -13.637   5.571  24.051  0.00  0.00    +0.123 HD
BRANCH   6  18
ATOM     18  C   UNL     1     -14.051   4.856  22.193  0.00  0.00    +0.116 C 
BRANCH  18  20
ATOM     20  C   UNL     1     -13.439   6.155  21.742  0.00  0.00    -0.033 A 
ATOM     21  C   UNL     1     -14.128   7.354  21.929  0.00  0.00    +0.007 A 
ATOM     22  C   UNL     1     -12.182   6.161  21.136  0.00  0.00    +0.007 A 
ATOM     24  C   UNL     1     -13.562   8.557  21.511  0.00  0.00    +0.023 A 
ATOM     25  C   UNL     1     -11.615   7.365  20.718  0.00  0.00    +0.023 A 
ATOM     26  C   UNL     1     -12.305   8.563  20.906  0.00  0.00    +0.029 A 
BRANCH  26   8
ATOM      8  N   UNL     1     -11.732   9.780  20.482  0.00  0.00    -0.336 N 
ATOM     30  C   UNL     1     -12.259  11.044  20.955  0.00  0.00    +0.129 C 
ATOM     31  C   UNL     1     -10.612   9.782  19.562  0.00  0.00    +0.129 C 
ENDBRANCH  26   8
ENDBRANCH  18  20
ENDBRANCH   6  18
ENDBRANCH  10   6
BRANCH  12  16
ATOM     16  C   UNL     1     -17.202   2.350  27.450  0.00  0.00    +0.029 C 
BRANCH  16  17
ATOM     17  C   UNL     1     -17.270   0.974  28.099  0.00  0.00    +0.097 C 
BRANCH  17  19
ATOM      2  O   UNL     1     -16.193  -0.139  29.961  0.00  0.00    -0.276 OA
ATOM      7  N   UNL     1     -15.223   1.774  29.074  0.00  0.00    -0.311 N 
ATOM     19  C   UNL     1     -16.191   0.784  29.151  0.00  0.00    +0.213 C 
ATOM     38  H   UNL     1     -15.311   2.519  28.391  0.00  0.00    +0.149 HD
BRANCH   7  23
ATOM     23  C   UNL     1     -14.090   1.816  29.969  0.00  0.00    +0.139 C 
BRANCH  23  27
ATOM     27  C   UNL     1     -14.385   2.615  31.210  0.00  0.00    -0.030 A 
ATOM     28  C   UNL     1     -14.649   3.981  31.114  0.00  0.00    +0.009 A 
ATOM     29  C   UNL     1     -14.395   1.989  32.457  0.00  0.00    +0.009 A 
ATOM     32  C   UNL     1     -14.921   4.722  32.264  0.00  0.00    +0.046 A 
ATOM     33  C   UNL     1     -14.668   2.730  33.607  0.00  0.00    +0.046 A 
ATOM     34  C   UNL     1     -14.931   4.096  33.511  0.00  0.00    +0.120 A 
BRANCH  34   3
ATOM      3  O   UNL     1     -15.198   4.818  34.633  0.00  0.00    -0.495 OA
ATOM     35  C   UNL     1     -14.201   4.822  35.654  0.00  0.00    +0.277 C 
ENDBRANCH  34   3
ENDBRANCH  23  27
ENDBRANCH   7  23
ENDBRANCH  17  19
ENDBRANCH  16  17
ENDBRANCH  12  16
TORSDOF 10
ENDMDL
MODEL 2
REMARK VINA RESULT:      -7.4     18.452     22.003
REMARK  Name = 45360664
REMARK  13 active torsions:
REMARK  status: ('A' for Active; 'I' for Inactive)
REMARK    1  A    between atoms: O_3  and  C_34
REMARK    2  A    between atoms: O_3  and  C_35
REMARK    3  A    between atoms: N_6  and  C_10
REMARK    4  A    between atoms: N_6  and  C_18
REMARK    5  A    between atoms: N_7  and  C_23
REMARK    6  A    between atoms: N_8  and  C_26
REMARK    7  A    between atoms: N_8  and  C_30
REMARK    8  A    between atoms: N_8  and  C_31
REMARK    9  A    between atoms: C_12  and  C_16
REMARK   10  A    between atoms: C_16  and  C_17
REMARK   11  A    between atoms: C_17  and  C_19
REMARK   12  A    between atoms: C_18  and  C_20
REMARK   13  A    between atoms: C_23  and  C_27
REMARK                            x       y       z     vdW  Elec       q    Type
REMARK                         _______ _______ _______ _____ _____    ______ ____
ROOT
ATOM      1  O   UNL     1      -7.270 -14.405  16.980  0.00  0.00    -0.274 OA
ATOM      4  N   UNL     1      -4.941 -11.718  17.807  0.00  0.00    -0.286 NA
ATOM      5  N   UNL     1      -6.019 -13.089  15.609  0.00  0.00    -0.313 N 
ATOM      9  C   UNL     1      -5.724 -12.931  18.076  0.00  0.00    +0.145 C 
ATOM     10  C   UNL     1      -6.492 -11.007  19.342  0.00  0.00    +0.070 C 
ATOM     11  C   UNL     1      -6.756 -12.499  19.128  0.00  0.00    +0.048 C 
ATOM     12  C   UNL     1      -4.195 -11.750  16.555  0.00  0.00    +0.075 C 
ATOM     13  C   UNL     1      -5.820 -10.576  18.046  0.00  0.00    +0.104 C 
ATOM     14  C   UNL     1      -5.125 -11.978  15.375  0.00  0.00    +0.123 C 
ATOM     15  C   UNL     1      -6.419 -13.520  16.851  0.00  0.00    +0.230 C 
ATOM     36  H   UNL     1      -6.474 -13.503  14.801  0.00  0.00    +0.149 HD
ENDROOT
BRANCH  10   6
ATOM      6  N   UNL     1      -7.696 -10.253  19.650  0.00  0.00    -0.308 NA
ATOM     37  H   UNL     1      -7.829 -10.238  20.661  0.00  0.00    +0.123 HD
BRANCH   6  18
ATOM     18  C   UNL     1      -8.867 -10.859  19.027  0.00  0.00    +0.116 C 
BRANCH  18  20
ATOM     20  C   UNL     1      -9.675  -9.851  18.254  0.00  0.00    -0.033 A 
ATOM     21  C   UNL     1      -9.031  -8.905  17.456  0.00  0.00    +0.007 A 
ATOM     22  C   UNL     1     -11.067  -9.863  18.335  0.00  0.00    +0.007 A 
ATOM     24  C   UNL     1      -9.779  -7.971  16.741  0.00  0.00    +0.023 A 
ATOM     25  C   UNL     1     -11.816  -8.929  17.619  0.00  0.00    +0.023 A 
ATOM     26  C   UNL     1     -11.171  -7.983  16.821  0.00  0.00    +0.029 A 
BRANCH  26   8
ATOM      8  N   UNL     1     -11.928  -7.038  16.097  0.00  0.00    -0.336 N 
ATOM     30  C   UNL     1     -11.280  -5.909  15.463  0.00  0.00    +0.129 C 
ATOM     31  C   UNL     1     -13.366  -7.180  15.986  0.00  0.00    +0.129 C 
ENDBRANCH  26   8
ENDBRANCH  18  20
ENDBRANCH   6  18
ENDBRANCH  10   6
BRANCH  12  16
ATOM     16  C   UNL     1      -3.337 -10.502  16.343  0.00  0.00    +0.029 C 
BRANCH  16  17
ATOM     17  C   UNL     1      -1.905 -10.874  15.978  0.00  0.00    +0.097 C 
BRANCH  17  19
ATOM      2  O   UNL     1      -1.584 -12.552  14.262  0.00  0.00    -0.276 OA
ATOM      7  N   UNL     1      -1.950 -10.348  13.632  0.00  0.00    -0.311 N 
ATOM     19  C   UNL     1      -1.791 -11.376  14.549  0.00  0.00    +0.213 C 
ATOM     38  H   UNL     1      -2.091  -9.396  13.955  0.00  0.00    +0.149 HD
BRANCH   7  23
ATOM     23  C   UNL     1      -1.883 -10.570  12.207  0.00  0.00    +0.139 C 
BRANCH  23  27
ATOM     27  C   UNL     1      -3.084 -10.008  11.495  0.00  0.00    -0.030 A 
ATOM     28  C   UNL     1      -2.932  -9.373  10.263  0.00  0.00    +0.009 A 
ATOM     29  C   UNL     1      -4.351 -10.122  12.069  0.00  0.00    +0.009 A 
ATOM     32  C   UNL     1      -4.046  -8.852   9.604  0.00  0.00    +0.046 A 
ATOM     33  C   UNL     1      -5.465  -9.602  11.410  0.00  0.00    +0.046 A 
ATOM     34  C   UNL     1      -5.313  -8.966  10.178  0.00  0.00    +0.120 A 
BRANCH  34   3
ATOM      3  O   UNL     1      -6.400  -8.459   9.534  0.00  0.00    -0.495 OA
ATOM     35  C   UNL     1      -6.898  -9.199   8.421  0.00  0.00    +0.277 C 
ENDBRANCH  34   3
ENDBRANCH  23  27
ENDBRANCH   7  23
ENDBRANCH  17  19
ENDBRANCH  16  17
ENDBRANCH  12  16
TORSDOF 10
ENDMDL
MODEL 3
REMARK VINA RESULT:      -7.3     18.009     21.452
REMARK  Name = 45360664
REMARK  13 active torsions:
REMARK  status: ('A' for Active; 'I' for Inactive)
REMARK    1  A    between atoms: O_3  and  C_34
REMARK    2  A    between atoms: O_3  and  C_35
REMARK    3  A    between atoms: N_6  and  C_10
REMARK    4  A    between atoms: N_6  and  C_18
REMARK    5  A    between atoms: N_7  and  C_23
REMARK    6  A    between atoms: N_8  and  C_26
REMARK    7  A    between atoms: N_8  and  C_30
REMARK    8  A    between atoms: N_8  and  C_31
REMARK    9  A    between atoms: C_12  and  C_16
REMARK   10  A    between atoms: C_16  and  C_17
REMARK   11  A    between atoms: C_17  and  C_19
REMARK   12  A    between atoms: C_18  and  C_20
REMARK   13  A    between atoms: C_23  and  C_27
REMARK                            x       y       z     vdW  Elec       q    Type
REMARK                         _______ _______ _______ _____ _____    ______ ____
ROOT
ATOM      1  O   UNL     1      -7.411 -12.161  20.089  0.00  0.00    -0.274 OA
ATOM      4  N   UNL     1      -5.483 -10.653  17.381  0.00  0.00    -0.286 NA
ATOM      5  N   UNL     1      -6.029 -13.136  18.568  0.00  0.00    -0.313 N 
ATOM      9  C   UNL     1      -6.210 -10.655  18.657  0.00  0.00    +0.145 C 
ATOM     10  C   UNL     1      -7.342  -9.385  16.924  0.00  0.00    +0.070 C 
ATOM     11  C   UNL     1      -7.449  -9.785  18.396  0.00  0.00    +0.048 C 
ATOM     12  C   UNL     1      -4.517 -11.735  17.239  0.00  0.00    +0.075 C 
ATOM     13  C   UNL     1      -6.474 -10.481  16.321  0.00  0.00    +0.104 C 
ATOM     14  C   UNL     1      -5.192 -13.088  17.391  0.00  0.00    +0.123 C 
ATOM     15  C   UNL     1      -6.619 -12.040  19.150  0.00  0.00    +0.230 C 
ATOM     36  H   UNL     1      -6.293 -14.052  18.919  0.00  0.00    +0.149 HD
ENDROOT
BRANCH  10   6
ATOM      6  N   UNL     1      -8.634  -9.246  16.274  0.00  0.00    -0.308 NA
ATOM     37  H   UNL     1      -8.491  -9.114  15.273  0.00  0.00    +0.123 HD
BRANCH   6  18
ATOM     18  C   UNL     1      -9.365  -8.100  16.803  0.00  0.00    +0.116 C 
BRANCH  18  20
ATOM     20  C   UNL     1     -10.389  -7.589  15.825  0.00  0.00    -0.033 A 
ATOM     21  C   UNL     1     -10.854  -8.418  14.804  0.00  0.00    +0.007 A 
ATOM     22  C   UNL     1     -10.873  -6.286  15.939  0.00  0.00    +0.007 A 
ATOM     24  C   UNL     1     -11.802  -7.945  13.898  0.00  0.00    +0.023 A 
ATOM     25  C   UNL     1     -11.822  -5.812  15.032  0.00  0.00    +0.023 A 
ATOM     26  C   UNL     1     -12.286  -6.642  14.012  0.00  0.00    +0.029 A 
BRANCH  26   8
ATOM      8  N   UNL     1     -13.246  -6.163  13.095  0.00  0.00    -0.336 N 
ATOM     30  C   UNL     1     -13.529  -6.897  11.879  0.00  0.00    +0.129 C 
ATOM     31  C   UNL     1     -13.954  -4.926  13.355  0.00  0.00    +0.129 C 
ENDBRANCH  26   8
ENDBRANCH  18  20
ENDBRANCH   6  18
ENDBRANCH  10   6
BRANCH  12  16
ATOM     16  C   UNL     1      -3.729 -11.660  15.930  0.00  0.00    +0.029 C 
BRANCH  16  17
ATOM     17  C   UNL     1      -2.476 -10.809  16.090  0.00  0.00    +0.097 C 
BRANCH  17  19
ATOM      2  O   UNL     1      -1.050  -9.501  14.634  0.00  0.00    -0.276 OA
ATOM      7  N   UNL     1      -2.470 -11.083  13.701  0.00  0.00    -0.311 N 
ATOM     19  C   UNL     1      -1.905 -10.375  14.751  0.00  0.00    +0.213 C 
ATOM     38  H   UNL     1      -3.193 -11.772  13.883  0.00  0.00    +0.149 HD
BRANCH   7  23
ATOM     23  C   UNL     1      -2.094 -10.853  12.326  0.00  0.00    +0.139 C 
BRANCH  23  27
ATOM     27  C   UNL     1      -3.170 -10.127  11.565  0.00  0.00    -0.030 A 
ATOM     28  C   UNL     1      -2.874  -9.521  10.344  0.00  0.00    +0.009 A 
ATOM     29  C   UNL     1      -4.465 -10.060  12.081  0.00  0.00    +0.009 A 
ATOM     32  C   UNL     1      -3.872  -8.848   9.640  0.00  0.00    +0.046 A 
ATOM     33  C   UNL     1      -5.463  -9.387  11.376  0.00  0.00    +0.046 A 
ATOM     34  C   UNL     1      -5.167  -8.781  10.156  0.00  0.00    +0.120 A 
BRANCH  34   3
ATOM      3  O   UNL     1      -6.141  -8.124   9.468  0.00  0.00    -0.495 OA
ATOM     35  C   UNL     1      -7.428  -8.739   9.419  0.00  0.00    +0.277 C 
ENDBRANCH  34   3
ENDBRANCH  23  27
ENDBRANCH   7  23
ENDBRANCH  17  19
ENDBRANCH  16  17
ENDBRANCH  12  16
TORSDOF 10
ENDMDL
MODEL 4
REMARK VINA RESULT:      -7.1     32.191     35.452
REMARK  Name = 45360664
REMARK  13 active torsions:
REMARK  status: ('A' for Active; 'I' for Inactive)
REMARK    1  A    between atoms: O_3  and  C_34
REMARK    2  A    between atoms: O_3  and  C_35
REMARK    3  A    between atoms: N_6  and  C_10
REMARK    4  A    between atoms: N_6  and  C_18
REMARK    5  A    between atoms: N_7  and  C_23
REMARK    6  A    between atoms: N_8  and  C_26
REMARK    7  A    between atoms: N_8  and  C_30
REMARK    8  A    between atoms: N_8  and  C_31
REMARK    9  A    between atoms: C_12  and  C_16
REMARK   10  A    between atoms: C_16  and  C_17
REMARK   11  A    between atoms: C_17  and  C_19
REMARK   12  A    between atoms: C_18  and  C_20
REMARK   13  A    between atoms: C_23  and  C_27
REMARK                            x       y       z     vdW  Elec       q    Type
REMARK                         _______ _______ _______ _____ _____    ______ ____
ROOT
ATOM      1  O   UNL     1      23.411   7.637  23.011  0.00  0.00    -0.274 OA
ATOM      4  N   UNL     1      23.204   4.069  22.268  0.00  0.00    -0.286 NA
ATOM      5  N   UNL     1      23.153   5.870  24.420  0.00  0.00    -0.313 N 
ATOM      9  C   UNL     1      23.567   5.466  21.998  0.00  0.00    +0.145 C 
ATOM     10  C   UNL     1      21.831   4.634  20.518  0.00  0.00    +0.070 C 
ATOM     11  C   UNL     1      22.686   5.869  20.806  0.00  0.00    +0.048 C 
ATOM     12  C   UNL     1      23.577   3.598  23.597  0.00  0.00    +0.075 C 
ATOM     13  C   UNL     1      21.816   3.895  21.849  0.00  0.00    +0.104 C 
ATOM     14  C   UNL     1      22.945   4.463  24.675  0.00  0.00    +0.123 C 
ATOM     15  C   UNL     1      23.348   6.415  23.174  0.00  0.00    +0.230 C 
ATOM     36  H   UNL     1      23.030   6.511  25.198  0.00  0.00    +0.149 HD
ENDROOT
BRANCH  10   6
ATOM      6  N   UNL     1      20.505   4.961  20.021  0.00  0.00    -0.308 NA
ATOM     37  H   UNL     1      20.577   5.248  19.045  0.00  0.00    +0.123 HD
BRANCH   6  18
ATOM     18  C   UNL     1      19.910   6.047  20.792  0.00  0.00    +0.116 C 
BRANCH  18  20
ATOM     20  C   UNL     1      18.491   6.322  20.369  0.00  0.00    -0.033 A 
ATOM     21  C   UNL     1      17.693   7.183  21.123  0.00  0.00    +0.007 A 
ATOM     22  C   UNL     1      17.973   5.714  19.225  0.00  0.00    +0.007 A 
ATOM     24  C   UNL     1      16.379   7.438  20.733  0.00  0.00    +0.023 A 
ATOM     25  C   UNL     1      16.659   5.969  18.834  0.00  0.00    +0.023 A 
ATOM     26  C   UNL     1      15.862   6.831  19.588  0.00  0.00    +0.029 A 
BRANCH  26   8
ATOM      8  N   UNL     1      14.532   7.088  19.193  0.00  0.00    -0.336 N 
ATOM     30  C   UNL     1      13.436   6.864  20.114  0.00  0.00    +0.129 C 
ATOM     31  C   UNL     1      14.245   7.571  17.857  0.00  0.00    +0.129 C 
ENDBRANCH  26   8
ENDBRANCH  18  20
ENDBRANCH   6  18
ENDBRANCH  10   6
BRANCH  12  16
ATOM     16  C   UNL     1      23.249   2.121  23.817  0.00  0.00    +0.029 C 
BRANCH  16  17
ATOM     17  C   UNL     1      22.497   1.912  25.125  0.00  0.00    +0.097 C 
BRANCH  17  19
ATOM      2  O   UNL     1      23.303  -0.357  25.377  0.00  0.00    -0.276 OA
ATOM      7  N   UNL     1      21.109   0.133  25.953  0.00  0.00    -0.311 N 
ATOM     19  C   UNL     1      22.378   0.443  25.489  0.00  0.00    +0.213 C 
ATOM     38  H   UNL     1      20.391   0.850  25.989  0.00  0.00    +0.149 HD
BRANCH   7  23
ATOM     23  C   UNL     1      20.743  -1.203  26.362  0.00  0.00    +0.139 C 
BRANCH  23  27
ATOM     27  C   UNL     1      19.400  -1.608  25.816  0.00  0.00    -0.030 A 
ATOM     28  C   UNL     1      18.877  -0.961  24.697  0.00  0.00    +0.009 A 
ATOM     29  C   UNL     1      18.678  -2.632  26.431  0.00  0.00    +0.009 A 
ATOM     32  C   UNL     1      17.632  -1.337  24.192  0.00  0.00    +0.046 A 
ATOM     33  C   UNL     1      17.433  -3.008  25.926  0.00  0.00    +0.046 A 
ATOM     34  C   UNL     1      16.910  -2.361  24.807  0.00  0.00    +0.120 A 
BRANCH  34   3
ATOM      3  O   UNL     1      15.696  -2.728  24.313  0.00  0.00    -0.495 OA
ATOM     35  C   UNL     1      15.549  -2.741  22.894  0.00  0.00    +0.277 C 
ENDBRANCH  34   3
ENDBRANCH  23  27
ENDBRANCH   7  23
ENDBRANCH  17  19
ENDBRANCH  16  17
ENDBRANCH  12  16
TORSDOF 10
ENDMDL
MODEL 5
REMARK VINA RESULT:      -7.0      3.530      6.402
REMARK  Name = 45360664
REMARK  13 active torsions:
REMARK  status: ('A' for Active; 'I' for Inactive)
REMARK    1  A    between atoms: O_3  and  C_34
REMARK    2  A    between atoms: O_3  and  C_35
REMARK    3  A    between atoms: N_6  and  C_10
REMARK    4  A    between atoms: N_6  and  C_18
REMARK    5  A    between atoms: N_7  and  C_23
REMARK    6  A    between atoms: N_8  and  C_26
REMARK    7  A    between atoms: N_8  and  C_30
REMARK    8  A    between atoms: N_8  and  C_31
REMARK    9  A    between atoms: C_12  and  C_16
REMARK   10  A    between atoms: C_16  and  C_17
REMARK   11  A    between atoms: C_17  and  C_19
REMARK   12  A    between atoms: C_18  and  C_20
REMARK   13  A    between atoms: C_23  and  C_27
REMARK                            x       y       z     vdW  Elec       q    Type
REMARK                         _______ _______ _______ _____ _____    ______ ____
ROOT
ATOM      1  O   UNL     1     -14.207  -0.722  29.102  0.00  0.00    -0.274 OA
ATOM      4  N   UNL     1     -15.824   2.314  30.323  0.00  0.00    -0.286 NA
ATOM      5  N   UNL     1     -13.544   0.729  30.724  0.00  0.00    -0.313 N 
ATOM      9  C   UNL     1     -15.779   1.004  29.662  0.00  0.00    +0.145 C 
ATOM     10  C   UNL     1     -16.258   2.824  28.127  0.00  0.00    +0.070 C 
ATOM     11  C   UNL     1     -16.098   1.304  28.189  0.00  0.00    +0.048 C 
ATOM     12  C   UNL     1     -15.146   2.360  31.613  0.00  0.00    +0.075 C 
ATOM     13  C   UNL     1     -15.455   3.314  29.324  0.00  0.00    +0.104 C 
ATOM     14  C   UNL     1     -13.687   1.956  31.472  0.00  0.00    +0.123 C 
ATOM     15  C   UNL     1     -14.441   0.279  29.785  0.00  0.00    +0.230 C 
ATOM     36  H   UNL     1     -12.666   0.225  30.811  0.00  0.00    +0.149 HD
ENDROOT
BRANCH  10   6
ATOM      6  N   UNL     1     -15.821   3.393  26.863  0.00  0.00    -0.308 NA
ATOM     37  H   UNL     1     -16.038   4.389  26.854  0.00  0.00    +0.123 HD
BRANCH   6  18
ATOM     18  C   UNL     1     -16.494   2.751  25.740  0.00  0.00    +0.116 C 
BRANCH  18  20
ATOM     20  C   UNL     1     -16.320   3.530  24.463  0.00  0.00    -0.033 A 
ATOM     21  C   UNL     1     -15.130   4.217  24.222  0.00  0.00    +0.007 A 
ATOM     22  C   UNL     1     -17.348   3.566  23.522  0.00  0.00    +0.007 A 
ATOM     24  C   UNL     1     -14.968   4.939  23.040  0.00  0.00    +0.023 A 
ATOM     25  C   UNL     1     -17.186   4.287  22.339  0.00  0.00    +0.023 A 
ATOM     26  C   UNL     1     -15.996   4.973  22.098  0.00  0.00    +0.029 A 
BRANCH  26   8
ATOM      8  N   UNL     1     -15.833   5.704  20.902  0.00  0.00    -0.336 N 
ATOM     30  C   UNL     1     -14.807   6.721  20.798  0.00  0.00    +0.129 C 
ATOM     31  C   UNL     1     -16.696   5.451  19.765  0.00  0.00    +0.129 C 
ENDBRANCH  26   8
ENDBRANCH  18  20
ENDBRANCH   6  18
ENDBRANCH  10   6
BRANCH  12  16
ATOM     16  C   UNL     1     -15.275   3.718  32.304  0.00  0.00    +0.029 C 
BRANCH  16  17
ATOM     17  C   UNL     1     -14.085   3.986  33.217  0.00  0.00    +0.097 C 
BRANCH  17  19
ATOM      2  O   UNL     1     -14.401   5.394  35.162  0.00  0.00    -0.276 OA
ATOM      7  N   UNL     1     -14.098   6.387  33.086  0.00  0.00    -0.311 N 
ATOM     19  C   UNL     1     -14.215   5.310  33.951  0.00  0.00    +0.213 C 
ATOM     38  H   UNL     1     -13.972   6.229  32.091  0.00  0.00    +0.149 HD
BRANCH   7  23
ATOM     23  C   UNL     1     -14.187   7.754  33.542  0.00  0.00    +0.139 C 
BRANCH  23  27
ATOM     27  C   UNL     1     -12.865   8.467  33.441  0.00  0.00    -0.030 A 
ATOM     28  C   UNL     1     -12.380   9.197  34.525  0.00  0.00    +0.009 A 
ATOM     29  C   UNL     1     -12.124   8.396  32.260  0.00  0.00    +0.009 A 
ATOM     32  C   UNL     1     -11.155   9.857  34.430  0.00  0.00    +0.046 A 
ATOM     33  C   UNL     1     -10.899   9.056  32.165  0.00  0.00    +0.046 A 
ATOM     34  C   UNL     1     -10.414   9.786  33.250  0.00  0.00    +0.120 A 
BRANCH  34   3
ATOM      3  O   UNL     1      -9.218  10.430  33.158  0.00  0.00    -0.495 OA
ATOM     35  C   UNL     1      -8.421  10.491  34.340  0.00  0.00    +0.277 C 
ENDBRANCH  34   3
ENDBRANCH  23  27
ENDBRANCH   7  23
ENDBRANCH  17  19
ENDBRANCH  16  17
ENDBRANCH  12  16
TORSDOF 10
ENDMDL
MODEL 6
REMARK VINA RESULT:      -6.9      3.410      6.423
REMARK  Name = 45360664
REMARK  13 active torsions:
REMARK  status: ('A' for Active; 'I' for Inactive)
REMARK    1  A    between atoms: O_3  and  C_34
REMARK    2  A    between atoms: O_3  and  C_35
REMARK    3  A    between atoms: N_6  and  C_10
REMARK    4  A    between atoms: N_6  and  C_18
REMARK    5  A    between atoms: N_7  and  C_23
REMARK    6  A    between atoms: N_8  and  C_26
REMARK    7  A    between atoms: N_8  and  C_30
REMARK    8  A    between atoms: N_8  and  C_31
REMARK    9  A    between atoms: C_12  and  C_16
REMARK   10  A    between atoms: C_16  and  C_17
REMARK   11  A    between atoms: C_17  and  C_19
REMARK   12  A    between atoms: C_18  and  C_20
REMARK   13  A    between atoms: C_23  and  C_27
REMARK                            x       y       z     vdW  Elec       q    Type
REMARK                         _______ _______ _______ _____ _____    ______ ____
ROOT
ATOM      1  O   UNL     1     -14.321  -0.572  29.187  0.00  0.00    -0.274 OA
ATOM      4  N   UNL     1     -15.617   2.629  30.368  0.00  0.00    -0.286 NA
ATOM      5  N   UNL     1     -13.457   0.873  30.716  0.00  0.00    -0.313 N 
ATOM      9  C   UNL     1     -15.714   1.298  29.757  0.00  0.00    +0.145 C 
ATOM     10  C   UNL     1     -16.123   3.097  28.179  0.00  0.00    +0.070 C 
ATOM     11  C   UNL     1     -16.085   1.572  28.291  0.00  0.00    +0.048 C 
ATOM     12  C   UNL     1     -14.870   2.662  31.620  0.00  0.00    +0.075 C 
ATOM     13  C   UNL     1     -15.221   3.559  29.314  0.00  0.00    +0.104 C 
ATOM     14  C   UNL     1     -13.459   2.133  31.423  0.00  0.00    +0.123 C 
ATOM     15  C   UNL     1     -14.436   0.468  29.842  0.00  0.00    +0.230 C 
ATOM     36  H   UNL     1     -12.620   0.301  30.779  0.00  0.00    +0.149 HD
ENDROOT
BRANCH  10   6
ATOM      6  N   UNL     1     -15.709   3.584  26.873  0.00  0.00    -0.308 NA
ATOM     37  H   UNL     1     -15.966   4.567  26.788  0.00  0.00    +0.123 HD
BRANCH   6  18
ATOM     18  C   UNL     1     -16.354   2.830  25.805  0.00  0.00    +0.116 C 
BRANCH  18  20
ATOM     20  C   UNL     1     -16.281   3.553  24.486  0.00  0.00    -0.033 A 
ATOM     21  C   UNL     1     -17.381   3.553  23.628  0.00  0.00    +0.007 A 
ATOM     22  C   UNL     1     -15.112   4.221  24.121  0.00  0.00    +0.007 A 
ATOM     24  C   UNL     1     -17.314   4.222  22.407  0.00  0.00    +0.023 A 
ATOM     25  C   UNL     1     -15.045   4.891  22.899  0.00  0.00    +0.023 A 
ATOM     26  C   UNL     1     -16.146   4.891  22.042  0.00  0.00    +0.029 A 
BRANCH  26   8
ATOM      8  N   UNL     1     -16.077   5.568  20.806  0.00  0.00    -0.336 N 
ATOM     30  C   UNL     1     -16.914   5.158  19.697  0.00  0.00    +0.129 C 
ATOM     31  C   UNL     1     -15.161   6.677  20.627  0.00  0.00    +0.129 C 
ENDBRANCH  26   8
ENDBRANCH  18  20
ENDBRANCH   6  18
ENDBRANCH  10   6
BRANCH  12  16
ATOM     16  C   UNL     1     -14.851   4.049  32.263  0.00  0.00    +0.029 C 
BRANCH  16  17
ATOM     17  C   UNL     1     -14.855   3.952  33.783  0.00  0.00    +0.097 C 
BRANCH  17  19
ATOM      2  O   UNL     1     -13.847   5.176  35.612  0.00  0.00    -0.276 OA
ATOM      7  N   UNL     1     -14.047   6.203  33.540  0.00  0.00    -0.311 N 
ATOM     19  C   UNL     1     -14.196   5.155  34.436  0.00  0.00    +0.213 C 
ATOM     38  H   UNL     1     -14.389   6.112  32.589  0.00  0.00    +0.149 HD
BRANCH   7  23
ATOM     23  C   UNL     1     -13.447   7.461  33.920  0.00  0.00    +0.139 C 
BRANCH  23  27
ATOM     27  C   UNL     1     -13.173   8.334  32.726  0.00  0.00    -0.030 A 
ATOM     28  C   UNL     1     -11.875   8.452  32.230  0.00  0.00    +0.009 A 
ATOM     29  C   UNL     1     -14.219   9.027  32.114  0.00  0.00    +0.009 A 
ATOM     32  C   UNL     1     -11.622   9.261  31.123  0.00  0.00    +0.046 A 
ATOM     33  C   UNL     1     -13.965   9.837  31.006  0.00  0.00    +0.046 A 
ATOM     34  C   UNL     1     -12.667   9.954  30.511  0.00  0.00    +0.120 A 
BRANCH  34   3
ATOM      3  O   UNL     1     -12.420  10.744  29.430  0.00  0.00    -0.495 OA
ATOM     35  C   UNL     1     -11.219  10.490  28.703  0.00  0.00    +0.277 C 
ENDBRANCH  34   3
ENDBRANCH  23  27
ENDBRANCH   7  23
ENDBRANCH  17  19
ENDBRANCH  16  17
ENDBRANCH  12  16
TORSDOF 10
ENDMDL
MODEL 7
REMARK VINA RESULT:      -6.9     18.531     22.560
REMARK  Name = 45360664
REMARK  13 active torsions:
REMARK  status: ('A' for Active; 'I' for Inactive)
REMARK    1  A    between atoms: O_3  and  C_34
REMARK    2  A    between atoms: O_3  and  C_35
REMARK    3  A    between atoms: N_6  and  C_10
REMARK    4  A    between atoms: N_6  and  C_18
REMARK    5  A    between atoms: N_7  and  C_23
REMARK    6  A    between atoms: N_8  and  C_26
REMARK    7  A    between atoms: N_8  and  C_30
REMARK    8  A    between atoms: N_8  and  C_31
REMARK    9  A    between atoms: C_12  and  C_16
REMARK   10  A    between atoms: C_16  and  C_17
REMARK   11  A    between atoms: C_17  and  C_19
REMARK   12  A    between atoms: C_18  and  C_20
REMARK   13  A    between atoms: C_23  and  C_27
REMARK                            x       y       z     vdW  Elec       q    Type
REMARK                         _______ _______ _______ _____ _____    ______ ____
ROOT
ATOM      1  O   UNL     1      -7.227 -14.503  17.100  0.00  0.00    -0.274 OA
ATOM      4  N   UNL     1      -5.011 -11.697  17.833  0.00  0.00    -0.286 NA
ATOM      5  N   UNL     1      -6.065 -13.157  15.682  0.00  0.00    -0.313 N 
ATOM      9  C   UNL     1      -5.731 -12.940  18.139  0.00  0.00    +0.145 C 
ATOM     10  C   UNL     1      -6.564 -11.030  19.386  0.00  0.00    +0.070 C 
ATOM     11  C   UNL     1      -6.762 -12.536  19.204  0.00  0.00    +0.048 C 
ATOM     12  C   UNL     1      -4.287 -11.719  16.568  0.00  0.00    +0.075 C 
ATOM     13  C   UNL     1      -5.937 -10.593  18.070  0.00  0.00    +0.104 C 
ATOM     14  C   UNL     1      -5.228 -12.011  15.410  0.00  0.00    +0.123 C 
ATOM     15  C   UNL     1      -6.421 -13.583  16.939  0.00  0.00    +0.230 C 
ATOM     36  H   UNL     1      -6.515 -13.607  14.890  0.00  0.00    +0.149 HD
ENDROOT
BRANCH  10   6
ATOM      6  N   UNL     1      -7.796 -10.327  19.704  0.00  0.00    -0.308 NA
ATOM     37  H   UNL     1      -8.085 -10.574  20.650  0.00  0.00    +0.123 HD
BRANCH   6  18
ATOM     18  C   UNL     1      -8.860 -10.687  18.774  0.00  0.00    +0.116 C 
BRANCH  18  20
ATOM     20  C   UNL     1     -10.167 -10.925  19.483  0.00  0.00    -0.033 A 
ATOM     21  C   UNL     1     -11.108  -9.899  19.573  0.00  0.00    +0.007 A 
ATOM     22  C   UNL     1     -10.436 -12.170  20.051  0.00  0.00    +0.007 A 
ATOM     24  C   UNL     1     -12.318 -10.118  20.229  0.00  0.00    +0.023 A 
ATOM     25  C   UNL     1     -11.648 -12.389  20.707  0.00  0.00    +0.023 A 
ATOM     26  C   UNL     1     -12.588 -11.363  20.796  0.00  0.00    +0.029 A 
BRANCH  26   8
ATOM      8  N   UNL     1     -13.813 -11.585  21.461  0.00  0.00    -0.336 N 
ATOM     30  C   UNL     1     -14.969 -10.764  21.164  0.00  0.00    +0.129 C 
ATOM     31  C   UNL     1     -13.927 -12.633  22.456  0.00  0.00    +0.129 C 
ENDBRANCH  26   8
ENDBRANCH  18  20
ENDBRANCH   6  18
ENDBRANCH  10   6
BRANCH  12  16
ATOM     16  C   UNL     1      -3.492 -10.436  16.317  0.00  0.00    +0.029 C 
BRANCH  16  17
ATOM     17  C   UNL     1      -2.032 -10.745  16.010  0.00  0.00    +0.097 C 
BRANCH  17  19
ATOM      2  O   UNL     1      -1.614 -12.490  14.385  0.00  0.00    -0.276 OA
ATOM      7  N   UNL     1      -1.978 -10.321  13.644  0.00  0.00    -0.311 N 
ATOM     19  C   UNL     1      -1.848 -11.307  14.611  0.00  0.00    +0.213 C 
ATOM     38  H   UNL     1      -2.145  -9.358  13.918  0.00  0.00    +0.149 HD
BRANCH   7  23
ATOM     23  C   UNL     1      -1.844 -10.603  12.234  0.00  0.00    +0.139 C 
BRANCH  23  27
ATOM     27  C   UNL     1      -3.055 -10.162  11.457  0.00  0.00    -0.030 A 
ATOM     28  C   UNL     1      -4.325 -10.587  11.844  0.00  0.00    +0.009 A 
ATOM     29  C   UNL     1      -2.906  -9.328  10.348  0.00  0.00    +0.009 A 
ATOM     32  C   UNL     1      -5.447 -10.178  11.123  0.00  0.00    +0.046 A 
ATOM     33  C   UNL     1      -4.028  -8.919   9.627  0.00  0.00    +0.046 A 
ATOM     34  C   UNL     1      -5.299  -9.344  10.014  0.00  0.00    +0.120 A 
BRANCH  34   3
ATOM      3  O   UNL     1      -6.394  -8.944   9.311  0.00  0.00    -0.495 OA
ATOM     35  C   UNL     1      -7.616  -8.813  10.035  0.00  0.00    +0.277 C 
ENDBRANCH  34   3
ENDBRANCH  23  27
ENDBRANCH   7  23
ENDBRANCH  17  19
ENDBRANCH  16  17
ENDBRANCH  12  16
TORSDOF 10
ENDMDL
MODEL 8
REMARK VINA RESULT:      -6.7     22.337     24.604
REMARK  Name = 45360664
REMARK  13 active torsions:
REMARK  status: ('A' for Active; 'I' for Inactive)
REMARK    1  A    between atoms: O_3  and  C_34
REMARK    2  A    between atoms: O_3  and  C_35
REMARK    3  A    between atoms: N_6  and  C_10
REMARK    4  A    between atoms: N_6  and  C_18
REMARK    5  A    between atoms: N_7  and  C_23
REMARK    6  A    between atoms: N_8  and  C_26
REMARK    7  A    between atoms: N_8  and  C_30
REMARK    8  A    between atoms: N_8  and  C_31
REMARK    9  A    between atoms: C_12  and  C_16
REMARK   10  A    between atoms: C_16  and  C_17
REMARK   11  A    between atoms: C_17  and  C_19
REMARK   12  A    between atoms: C_18  and  C_20
REMARK   13  A    between atoms: C_23  and  C_27
REMARK                            x       y       z     vdW  Elec       q    Type
REMARK                         _______ _______ _______ _____ _____    ______ ____
ROOT
ATOM      1  O   UNL     1      -7.508  -8.774  10.494  0.00  0.00    -0.274 OA
ATOM      4  N   UNL     1      -4.062  -9.951  10.236  0.00  0.00    -0.286 NA
ATOM      5  N   UNL     1      -6.237  -9.900  12.008  0.00  0.00    -0.313 N 
ATOM      9  C   UNL     1      -5.210  -9.105   9.884  0.00  0.00    +0.145 C 
ATOM     10  C   UNL     1      -4.581 -10.635   8.107  0.00  0.00    +0.070 C 
ATOM     11  C   UNL     1      -5.565  -9.515   8.447  0.00  0.00    +0.048 C 
ATOM     12  C   UNL     1      -3.813 -10.060  11.669  0.00  0.00    +0.075 C 
ATOM     13  C   UNL     1      -4.188 -11.188   9.470  0.00  0.00    +0.104 C 
ATOM     14  C   UNL     1      -5.035 -10.604  12.390  0.00  0.00    +0.123 C 
ATOM     15  C   UNL     1      -6.418  -9.263  10.804  0.00  0.00    +0.230 C 
ATOM     36  H   UNL     1      -7.043  -9.981  12.620  0.00  0.00    +0.149 HD
ENDROOT
BRANCH  10   6
ATOM      6  N   UNL     1      -5.141 -11.636   7.215  0.00  0.00    -0.308 NA
ATOM     37  H   UNL     1      -4.424 -12.329   7.000  0.00  0.00    +0.123 HD
BRANCH   6  18
ATOM     18  C   UNL     1      -5.602 -11.030   5.972  0.00  0.00    +0.116 C 
BRANCH  18  20
ATOM     20  C   UNL     1      -5.054 -11.742   4.763  0.00  0.00    -0.033 A 
ATOM     21  C   UNL     1      -3.692 -12.032   4.683  0.00  0.00    +0.007 A 
ATOM     22  C   UNL     1      -5.908 -12.111   3.724  0.00  0.00    +0.007 A 
ATOM     24  C   UNL     1      -3.184 -12.691   3.565  0.00  0.00    +0.023 A 
ATOM     25  C   UNL     1      -5.400 -12.771   2.605  0.00  0.00    +0.023 A 
ATOM     26  C   UNL     1      -4.038 -13.061   2.526  0.00  0.00    +0.029 A 
BRANCH  26   8
ATOM      8  N   UNL     1      -3.524 -13.728   1.393  0.00  0.00    -0.336 N 
ATOM     30  C   UNL     1      -3.362 -15.167   1.400  0.00  0.00    +0.129 C 
ATOM     31  C   UNL     1      -3.144 -12.980   0.212  0.00  0.00    +0.129 C 
ENDBRANCH  26   8
ENDBRANCH  18  20
ENDBRANCH   6  18
ENDBRANCH  10   6
BRANCH  12  16
ATOM     16  C   UNL     1      -2.570 -10.889  11.993  0.00  0.00    +0.029 C 
BRANCH  16  17
ATOM     17  C   UNL     1      -1.815 -10.306  13.181  0.00  0.00    +0.097 C 
BRANCH  17  19
ATOM      2  O   UNL     1      -1.686 -12.227  14.650  0.00  0.00    -0.276 OA
ATOM      7  N   UNL     1      -2.810 -10.327  15.370  0.00  0.00    -0.311 N 
ATOM     19  C   UNL     1      -2.079 -11.079  14.462  0.00  0.00    +0.213 C 
ATOM     38  H   UNL     1      -3.120  -9.393  15.124  0.00  0.00    +0.149 HD
BRANCH   7  23
ATOM     23  C   UNL     1      -3.191 -10.841  16.665  0.00  0.00    +0.139 C 
BRANCH  23  27
ATOM     27  C   UNL     1      -4.617 -10.502  17.005  0.00  0.00    -0.030 A 
ATOM     28  C   UNL     1      -5.446  -9.925  16.043  0.00  0.00    +0.009 A 
ATOM     29  C   UNL     1      -5.110 -10.765  18.284  0.00  0.00    +0.009 A 
ATOM     32  C   UNL     1      -6.768  -9.611  16.359  0.00  0.00    +0.046 A 
ATOM     33  C   UNL     1      -6.432 -10.450  18.600  0.00  0.00    +0.046 A 
ATOM     34  C   UNL     1      -7.261  -9.874  17.638  0.00  0.00    +0.120 A 
BRANCH  34   3
ATOM      3  O   UNL     1      -8.551  -9.568  17.946  0.00  0.00    -0.495 OA
ATOM     35  C   UNL     1      -9.183  -8.558  17.161  0.00  0.00    +0.277 C 
ENDBRANCH  34   3
ENDBRANCH  23  27
ENDBRANCH   7  23
ENDBRANCH  17  19
ENDBRANCH  16  17
ENDBRANCH  12  16
TORSDOF 10
ENDMDL
MODEL 9
REMARK VINA RESULT:      -6.6     20.936     23.213
REMARK  Name = 45360664
REMARK  13 active torsions:
REMARK  status: ('A' for Active; 'I' for Inactive)
REMARK    1  A    between atoms: O_3  and  C_34
REMARK    2  A    between atoms: O_3  and  C_35
REMARK    3  A    between atoms: N_6  and  C_10
REMARK    4  A    between atoms: N_6  and  C_18
REMARK    5  A    between atoms: N_7  and  C_23
REMARK    6  A    between atoms: N_8  and  C_26
REMARK    7  A    between atoms: N_8  and  C_30
REMARK    8  A    between atoms: N_8  and  C_31
REMARK    9  A    between atoms: C_12  and  C_16
REMARK   10  A    between atoms: C_16  and  C_17
REMARK   11  A    between atoms: C_17  and  C_19
REMARK   12  A    between atoms: C_18  and  C_20
REMARK   13  A    between atoms: C_23  and  C_27
REMARK                            x       y       z     vdW  Elec       q    Type
REMARK                         _______ _______ _______ _____ _____    ______ ____
ROOT
ATOM      1  O   UNL     1      -8.083  -9.624  11.702  0.00  0.00    -0.274 OA
ATOM      4  N   UNL     1      -4.434  -9.658  11.601  0.00  0.00    -0.286 NA
ATOM      5  N   UNL     1      -6.624 -11.239  12.363  0.00  0.00    -0.313 N 
ATOM      9  C   UNL     1      -5.760  -9.026  11.619  0.00  0.00    +0.145 C 
ATOM     10  C   UNL     1      -4.602  -8.743   9.503  0.00  0.00    +0.070 C 
ATOM     11  C   UNL     1      -5.893  -8.373  10.235  0.00  0.00    +0.048 C 
ATOM     12  C   UNL     1      -4.247 -10.688  12.616  0.00  0.00    +0.075 C 
ATOM     13  C   UNL     1      -4.142 -10.008  10.213  0.00  0.00    +0.104 C 
ATOM     14  C   UNL     1      -5.291 -11.784  12.474  0.00  0.00    +0.123 C 
ATOM     15  C   UNL     1      -6.916  -9.989  11.873  0.00  0.00    +0.230 C 
ATOM     36  H   UNL     1      -7.403 -11.863  12.548  0.00  0.00    +0.149 HD
ENDROOT
BRANCH  10   6
ATOM      6  N   UNL     1      -4.787  -8.915   8.072  0.00  0.00    -0.308 NA
ATOM     37  H   UNL     1      -5.593  -8.367   7.772  0.00  0.00    +0.123 HD
BRANCH   6  18
ATOM     18  C   UNL     1      -5.017 -10.316   7.739  0.00  0.00    +0.116 C 
BRANCH  18  20
ATOM     20  C   UNL     1      -5.732 -10.470   6.423  0.00  0.00    -0.033 A 
ATOM     21  C   UNL     1      -5.407 -11.525   5.571  0.00  0.00    +0.007 A 
ATOM     22  C   UNL     1      -6.720  -9.556   6.056  0.00  0.00    +0.007 A 
ATOM     24  C   UNL     1      -6.068 -11.667   4.352  0.00  0.00    +0.023 A 
ATOM     25  C   UNL     1      -7.383  -9.699   4.836  0.00  0.00    +0.023 A 
ATOM     26  C   UNL     1      -7.057 -10.754   3.985  0.00  0.00    +0.029 A 
BRANCH  26   8
ATOM      8  N   UNL     1      -7.727 -10.897   2.751  0.00  0.00    -0.336 N 
ATOM     30  C   UNL     1      -7.654 -12.144   2.017  0.00  0.00    +0.129 C 
ATOM     31  C   UNL     1      -8.491  -9.796   2.200  0.00  0.00    +0.129 C 
ENDBRANCH  26   8
ENDBRANCH  18  20
ENDBRANCH   6  18
ENDBRANCH  10   6
BRANCH  12  16
ATOM     16  C   UNL     1      -2.834 -11.273  12.614  0.00  0.00    +0.029 C 
BRANCH  16  17
ATOM     17  C   UNL     1      -1.878 -10.405  13.422  0.00  0.00    +0.097 C 
BRANCH  17  19
ATOM      2  O   UNL     1      -0.986 -11.225  15.518  0.00  0.00    -0.276 OA
ATOM      7  N   UNL     1      -3.152 -10.393  15.461  0.00  0.00    -0.311 N 
ATOM     19  C   UNL     1      -1.926 -10.728  14.905  0.00  0.00    +0.213 C 
ATOM     38  H   UNL     1      -3.888 -10.011  14.876  0.00  0.00    +0.149 HD
BRANCH   7  23
ATOM     23  C   UNL     1      -3.448 -10.605  16.859  0.00  0.00    +0.139 C 
BRANCH  23  27
ATOM     27  C   UNL     1      -4.895 -10.338  17.172  0.00  0.00    -0.030 A 
ATOM     28  C   UNL     1      -5.714  -9.726  16.224  0.00  0.00    +0.009 A 
ATOM     29  C   UNL     1      -5.419 -10.704  18.413  0.00  0.00    +0.009 A 
ATOM     32  C   UNL     1      -7.055  -9.479  16.515  0.00  0.00    +0.046 A 
ATOM     33  C   UNL     1      -6.760 -10.457  18.704  0.00  0.00    +0.046 A 
ATOM     34  C   UNL     1      -7.579  -9.845  17.756  0.00  0.00    +0.120 A 
BRANCH  34   3
ATOM      3  O   UNL     1      -8.888  -9.604  18.040  0.00  0.00    -0.495 OA
ATOM     35  C   UNL     1      -9.536  -8.577  17.291  0.00  0.00    +0.277 C 
ENDBRANCH  34   3
ENDBRANCH  23  27
ENDBRANCH   7  23
ENDBRANCH  17  19
ENDBRANCH  16  17
ENDBRANCH  12  16
TORSDOF 10
ENDMDL
MODEL 10
REMARK VINA RESULT:      -6.5     31.825     36.465
REMARK  Name = 45360664
REMARK  13 active torsions:
REMARK  status: ('A' for Active; 'I' for Inactive)
REMARK    1  A    between atoms: O_3  and  C_34
REMARK    2  A    between atoms: O_3  and  C_35
REMARK    3  A    between atoms: N_6  and  C_10
REMARK    4  A    between atoms: N_6  and  C_18
REMARK    5  A    between atoms: N_7  and  C_23
REMARK    6  A    between atoms: N_8  and  C_26
REMARK    7  A    between atoms: N_8  and  C_30
REMARK    8  A    between atoms: N_8  and  C_31
REMARK    9  A    between atoms: C_12  and  C_16
REMARK   10  A    between atoms: C_16  and  C_17
REMARK   11  A    between atoms: C_17  and  C_19
REMARK   12  A    between atoms: C_18  and  C_20
REMARK   13  A    between atoms: C_23  and  C_27
REMARK                            x       y       z     vdW  Elec       q    Type
REMARK                         _______ _______ _______ _____ _____    ______ ____
ROOT
ATOM      1  O   UNL     1       9.496   8.670   1.256  0.00  0.00    -0.274 OA
ATOM      4  N   UNL     1      10.249   6.775   4.284  0.00  0.00    -0.286 NA
ATOM      5  N   UNL     1       8.201   8.271   3.083  0.00  0.00    -0.313 N 
ATOM      9  C   UNL     1      10.581   7.540   3.075  0.00  0.00    +0.145 C 
ATOM     10  C   UNL     1      11.207   5.200   2.917  0.00  0.00    +0.070 C 
ATOM     11  C   UNL     1      11.256   6.520   2.146  0.00  0.00    +0.048 C 
ATOM     12  C   UNL     1       9.235   7.396   5.128  0.00  0.00    +0.075 C 
ATOM     13  C   UNL     1      10.037   5.390   3.872  0.00  0.00    +0.104 C 
ATOM     14  C   UNL     1       7.949   7.625   4.351  0.00  0.00    +0.123 C 
ATOM     15  C   UNL     1       9.382   8.185   2.385  0.00  0.00    +0.230 C 
ATOM     36  H   UNL     1       7.416   8.721   2.622  0.00  0.00    +0.149 HD
ENDROOT
BRANCH  10   6
ATOM      6  N   UNL     1      11.068   4.039   2.053  0.00  0.00    -0.308 NA
ATOM     37  H   UNL     1      10.261   3.494   2.356  0.00  0.00    +0.123 HD
BRANCH   6  18
ATOM     18  C   UNL     1      12.257   3.198   2.110  0.00  0.00    +0.116 C 
BRANCH  18  20
ATOM     20  C   UNL     1      13.255   3.564   1.043  0.00  0.00    -0.033 A 
ATOM     21  C   UNL     1      12.817   3.872  -0.245  0.00  0.00    +0.007 A 
ATOM     22  C   UNL     1      14.617   3.595   1.342  0.00  0.00    +0.007 A 
ATOM     24  C   UNL     1      13.740   4.211  -1.233  0.00  0.00    +0.023 A 
ATOM     25  C   UNL     1      15.540   3.935   0.354  0.00  0.00    +0.023 A 
ATOM     26  C   UNL     1      15.102   4.242  -0.934  0.00  0.00    +0.029 A 
BRANCH  26   8
ATOM      8  N   UNL     1      16.036   4.585  -1.934  0.00  0.00    -0.336 N 
ATOM     30  C   UNL     1      17.458   4.530  -1.659  0.00  0.00    +0.129 C 
ATOM     31  C   UNL     1      15.586   5.003  -3.246  0.00  0.00    +0.129 C 
ENDBRANCH  26   8
ENDBRANCH  18  20
ENDBRANCH   6  18
ENDBRANCH  10   6
BRANCH  12  16
ATOM     16  C   UNL     1       8.967   6.608   6.411  0.00  0.00    +0.029 C 
BRANCH  16  17
ATOM     17  C   UNL     1       9.749   7.185   7.585  0.00  0.00    +0.097 C 
BRANCH  17  19
ATOM      2  O   UNL     1      11.243   5.479   8.434  0.00  0.00    -0.276 OA
ATOM      7  N   UNL     1      12.103   7.171   7.098  0.00  0.00    -0.311 N 
ATOM     19  C   UNL     1      11.092   6.500   7.769  0.00  0.00    +0.213 C 
ATOM     38  H   UNL     1      11.898   8.027   6.592  0.00  0.00    +0.149 HD
BRANCH   7  23
ATOM     23  C   UNL     1      13.475   6.719   7.120  0.00  0.00    +0.139 C 
BRANCH  23  27
ATOM     27  C   UNL     1      14.298   7.373   6.045  0.00  0.00    -0.030 A 
ATOM     28  C   UNL     1      13.842   7.389   4.727  0.00  0.00    +0.009 A 
ATOM     29  C   UNL     1      15.520   7.966   6.366  0.00  0.00    +0.009 A 
ATOM     32  C   UNL     1      14.606   7.996   3.731  0.00  0.00    +0.046 A 
ATOM     33  C   UNL     1      16.285   8.573   5.370  0.00  0.00    +0.046 A 
ATOM     34  C   UNL     1      15.828   8.589   4.052  0.00  0.00    +0.120 A 
BRANCH  34   3
ATOM      3  O   UNL     1      16.573   9.181   3.080  0.00  0.00    -0.495 OA
ATOM     35  C   UNL     1      17.566  10.116   3.502  0.00  0.00    +0.277 C 
ENDBRANCH  34   3
ENDBRANCH  23  27
ENDBRANCH   7  23
ENDBRANCH  17  19
ENDBRANCH  16  17
ENDBRANCH  12  16
TORSDOF 10
ENDMDL
