REMARK  Name = 75536645
REMARK  7 active torsions:
REMARK  status: ('A' for Active; 'I' for Inactive)
REMARK    1  A    between atoms: O_3  and  C_9
REMARK    2  A    between atoms: N_5  and  C_8
REMARK    3  A    between atoms: N_5  and  C_13
REMARK    4  A    between atoms: N_6  and  C_12
REMARK    5  A    between atoms: C_10  and  C_12
REMARK    6  A    between atoms: C_13  and  C_14
REMARK    7  A    between atoms: C_15  and  C_18
REMARK                            x       y       z     vdW  Elec       q    Type
REMARK                         _______ _______ _______ _____ _____    ______ ____
ROOT
ATOM      2  O   UNL     1       0.093  -0.841   0.125  0.00  0.00    -0.371 OA
ATOM      8  C   UNL     1      -1.994   0.213  -0.293  0.00  0.00    +0.111 C 
ATOM      9  C   UNL     1      -1.125   1.145   0.531  0.00  0.00    +0.164 C 
ATOM     10  C   UNL     1       0.261   0.581   0.248  0.00  0.00    +0.165 C 
ATOM     11  C   UNL     1      -1.306  -1.122  -0.063  0.00  0.00    +0.181 C 
ENDROOT
BRANCH   9   3
ATOM      3  O   UNL     1      -1.237   2.496   0.127  0.00  0.00    -0.388 OA
ATOM     27  H   UNL     1      -1.018   2.551  -0.819  0.00  0.00    +0.210 HD
ENDBRANCH   9   3
BRANCH   8   5
ATOM      5  N   UNL     1      -3.390   0.207   0.112  0.00  0.00    -0.305 NA
ATOM     26  H   UNL     1      -3.703   1.170   0.244  0.00  0.00    +0.123 HD
BRANCH   5  13
ATOM     13  C   UNL     1      -4.228  -0.425  -0.901  0.00  0.00    +0.118 C 
BRANCH  13  14
ATOM      7  N   UNL     1      -7.906   0.453  -0.716  0.00  0.00    -0.263 NA
ATOM     14  C   UNL     1      -5.676  -0.455  -0.491  0.00  0.00    -0.015 A 
ATOM     16  C   UNL     1      -6.136  -1.369   0.451  0.00  0.00    +0.008 A 
ATOM     17  C   UNL     1      -6.593   0.427  -1.040  0.00  0.00    +0.115 A 
ATOM     19  C   UNL     1      -7.479  -1.372   0.811  0.00  0.00    +0.020 A 
ATOM     22  C   UNL     1      -8.315  -0.449   0.204  0.00  0.00    +0.111 A 
ENDBRANCH  13  14
ENDBRANCH   5  13
ENDBRANCH   8   5
BRANCH  10  12
ATOM     12  C   UNL     1       1.268   0.886   1.343  0.00  0.00    +0.138 C 
BRANCH  12   6
ATOM      4  O   UNL     1       3.388   2.174  -0.103  0.00  0.00    -0.270 OA
ATOM      6  N   UNL     1       2.555   0.332   1.036  0.00  0.00    -0.309 N 
ATOM     15  C   UNL     1       3.527   1.032   0.326  0.00  0.00    +0.244 C 
ATOM     28  H   UNL     1       2.709  -0.635   1.301  0.00  0.00    +0.149 HD
BRANCH  15  18
ATOM      1  F   UNL     1       8.334  -1.699  -0.652  0.00  0.00    -0.205 F 
ATOM     18  C   UNL     1       4.799   0.309   0.067  0.00  0.00    +0.037 A 
ATOM     20  C   UNL     1       5.575   0.639  -1.044  0.00  0.00    +0.016 A 
ATOM     21  C   UNL     1       5.217  -0.699   0.935  0.00  0.00    +0.016 A 
ATOM     23  C   UNL     1       6.769  -0.039  -1.287  0.00  0.00    +0.039 A 
ATOM     24  C   UNL     1       6.411  -1.378   0.692  0.00  0.00    +0.039 A 
ATOM     25  C   UNL     1       7.187  -1.048  -0.419  0.00  0.00    +0.123 A 
ENDBRANCH  15  18
ENDBRANCH  12   6
ENDBRANCH  10  12
TORSDOF 7
