REMARK  Name = 11911875
REMARK  11 active torsions:
REMARK  status: ('A' for Active; 'I' for Inactive)
REMARK    1  A    between atoms: S_1  and  C_20
REMARK    2  A    between atoms: S_1  and  C_25
REMARK    3  A    between atoms: O_5  and  C_31
REMARK    4  A    between atoms: N_7  and  C_14
REMARK    5  A    between atoms: N_8  and  C_15
REMARK    6  A    between atoms: N_11  and  C_28
REMARK    7  A    between atoms: N_11  and  C_32
REMARK    8  A    between atoms: N_11  and  C_33
REMARK    9  A    between atoms: C_18  and  C_20
REMARK   10  A    between atoms: C_21  and  C_24
REMARK   11  A    between atoms: C_25  and  C_31
REMARK                            x       y       z     vdW  Elec       q    Type
REMARK                         _______ _______ _______ _____ _____    ______ ____
ROOT
ATOM      2  O   UNL     1      -1.408   0.723   1.470  0.00  0.00    -0.370 OA
ATOM      3  O   UNL     1      -2.327   3.700   1.295  0.00  0.00    -0.370 OA
ATOM     12  C   UNL     1      -2.407   2.590   0.385  0.00  0.00    +0.171 C 
ATOM     13  C   UNL     1      -1.131   1.786   0.542  0.00  0.00    +0.171 C 
ATOM     14  C   UNL     1      -3.498   1.636   0.815  0.00  0.00    +0.130 C 
ATOM     15  C   UNL     1      -0.149   2.764   1.143  0.00  0.00    +0.130 C 
ATOM     16  C   UNL     1      -2.791   0.778   1.849  0.00  0.00    +0.185 C 
ATOM     17  C   UNL     1      -1.048   3.687   1.945  0.00  0.00    +0.185 C 
ENDROOT
BRANCH  15   8
ATOM      8  N   UNL     1       0.518   3.503   0.094  0.00  0.00    -0.306 N 
ATOM      9  N   UNL     1       2.115   1.841  -0.190  0.00  0.00    -0.214 NA
ATOM     10  N   UNL     1       2.148   3.848  -1.524  0.00  0.00    -0.223 NA
ATOM     19  C   UNL     1       1.643   3.044  -0.569  0.00  0.00    +0.216 A 
ATOM     21  C   UNL     1       3.212   1.425  -0.857  0.00  0.00    +0.076 A 
ATOM     22  C   UNL     1       3.243   3.369  -2.150  0.00  0.00    +0.116 A 
ATOM     23  C   UNL     1       3.825   2.153  -1.855  0.00  0.00    +0.048 A 
ATOM     35  H   UNL     1       0.127   4.383  -0.223  0.00  0.00    +0.149 HD
BRANCH  21  24
ATOM     24  C   UNL     1       3.721   0.136  -0.454  0.00  0.00    +0.001 A 
ATOM     26  C   UNL     1       5.019   0.023   0.044  0.00  0.00    +0.012 A 
ATOM     27  C   UNL     1       2.916  -0.998  -0.564  0.00  0.00    +0.012 A 
ATOM     28  C   UNL     1       4.706  -2.356   0.322  0.00  0.00    +0.029 A 
ATOM     29  C   UNL     1       5.512  -1.223   0.432  0.00  0.00    +0.024 A 
ATOM     30  C   UNL     1       3.408  -2.244  -0.176  0.00  0.00    +0.024 A 
BRANCH  28  11
ATOM     11  N   UNL     1       5.205  -3.616   0.715  0.00  0.00    -0.336 N 
ATOM     32  C   UNL     1       4.372  -4.798   0.618  0.00  0.00    +0.129 C 
ATOM     33  C   UNL     1       6.552  -3.743   1.234  0.00  0.00    +0.129 C 
ENDBRANCH  28  11
ENDBRANCH  21  24
ENDBRANCH  15   8
BRANCH  14   7
ATOM      4  O   UNL     1      -6.091   0.382   0.521  0.00  0.00    -0.275 OA
ATOM      7  N   UNL     1      -3.963   0.840  -0.295  0.00  0.00    -0.307 N 
ATOM     18  C   UNL     1      -5.229   0.276  -0.350  0.00  0.00    +0.223 C 
ATOM     34  H   UNL     1      -3.304   0.640  -1.042  0.00  0.00    +0.149 HD
BRANCH  18  20
ATOM     20  C   UNL     1      -5.465  -0.526  -1.608  0.00  0.00    +0.165 C 
BRANCH  20   1
ATOM      1  S   UNL     1      -5.866  -2.230  -1.152  0.00  0.00    -0.140 S 
BRANCH   1  25
ATOM     25  C   UNL     1      -4.187  -2.826  -0.840  0.00  0.00    +0.189 C 
BRANCH  25  31
ATOM      6  O   UNL     1      -5.099  -5.057  -0.802  0.00  0.00    -0.250 OA
ATOM     31  C   UNL     1      -4.239  -4.269  -0.429  0.00  0.00    +0.315 C 
BRANCH  31   5
ATOM      5  O   UNL     1      -3.217  -4.617   0.393  0.00  0.00    -0.480 OA
ATOM     36  H   UNL     1      -3.258  -5.564   0.649  0.00  0.00    +0.295 HD
ENDBRANCH  31   5
ENDBRANCH  25  31
ENDBRANCH   1  25
ENDBRANCH  20   1
ENDBRANCH  18  20
ENDBRANCH  14   7
TORSDOF 9
