MODEL 1
REMARK VINA RESULT:      -7.0      0.000      0.000
REMARK  Name = 75536320
REMARK  10 active torsions:
REMARK  status: ('A' for Active; 'I' for Inactive)
REMARK    1  A    between atoms: O_2  and  C_8
REMARK    2  A    between atoms: O_4  and  C_22
REMARK    3  A    between atoms: O_4  and  C_30
REMARK    4  A    between atoms: N_5  and  C_12
REMARK    5  A    between atoms: N_5  and  C_15
REMARK    6  A    between atoms: C_7  and  C_12
REMARK    7  A    between atoms: C_9  and  C_13
REMARK    8  A    between atoms: C_13  and  C_14
REMARK    9  A    between atoms: C_15  and  C_17
REMARK   10  A    between atoms: C_18  and  C_19
REMARK                            x       y       z     vdW  Elec       q    Type
REMARK                         _______ _______ _______ _____ _____    ______ ____
ROOT
ATOM      1  O   UNL     1      11.038  11.261  21.876  0.00  0.00    -0.369 OA
ATOM      7  C   UNL     1      11.401  12.648  21.907  0.00  0.00    +0.161 C 
ATOM      8  C   UNL     1      10.976  13.308  23.225  0.00  0.00    +0.145 C 
ATOM      9  C   UNL     1      11.536  10.480  22.965  0.00  0.00    +0.125 C 
ATOM     10  C   UNL     1      11.419  12.505  24.445  0.00  0.00    +0.036 C 
ATOM     11  C   UNL     1      11.039  11.034  24.299  0.00  0.00    +0.034 C 
ENDROOT
BRANCH   8   2
ATOM      2  O   UNL     1       9.550  13.398  23.257  0.00  0.00    -0.389 OA
ATOM     32  H   UNL     1       9.292  14.165  22.717  0.00  0.00    +0.210 HD
ENDBRANCH   8   2
BRANCH   7  12
ATOM     12  C   UNL     1      12.884  12.837  21.595  0.00  0.00    +0.115 C 
BRANCH  12   5
ATOM      5  N   UNL     1      13.165  12.526  20.202  0.00  0.00    -0.309 NA
ATOM     31  H   UNL     1      12.299  12.252  19.736  0.00  0.00    +0.122 HD
BRANCH   5  15
ATOM     15  C   UNL     1      14.120  11.430  20.094  0.00  0.00    +0.116 C 
BRANCH  15  17
ATOM     17  C   UNL     1      13.793  10.512  18.947  0.00  0.00    -0.030 A 
ATOM     20  C   UNL     1      12.538   9.908  18.873  0.00  0.00    +0.050 A 
ATOM     21  C   UNL     1      14.745  10.265  17.958  0.00  0.00    +0.005 A 
ATOM     22  C   UNL     1      12.234   9.058  17.810  0.00  0.00    +0.120 A 
ATOM     23  C   UNL     1      14.442   9.415  16.895  0.00  0.00    +0.004 A 
ATOM     26  C   UNL     1      13.186   8.811  16.821  0.00  0.00    +0.045 A 
BRANCH  22   4
ATOM      4  O   UNL     1      11.009   8.469  17.738  0.00  0.00    -0.495 OA
ATOM     30  C   UNL     1      10.350   8.494  16.473  0.00  0.00    +0.277 C 
ENDBRANCH  22   4
ENDBRANCH  15  17
ENDBRANCH   5  15
ENDBRANCH  12   5
ENDBRANCH   7  12
BRANCH   9  13
ATOM     13  C   UNL     1      11.055   9.049  22.759  0.00  0.00    +0.090 C 
BRANCH  13  14
ATOM      3  O   UNL     1      12.799   6.683  20.673  0.00  0.00    -0.354 OA
ATOM      6  N   UNL     1      11.640   7.210  21.232  0.00  0.00    -0.083 NA
ATOM     14  C   UNL     1      12.055   8.229  21.988  0.00  0.00    +0.087 A 
ATOM     16  C   UNL     1      13.450   8.394  21.946  0.00  0.00    +0.076 A 
ATOM     18  C   UNL     1      13.870   7.397  21.106  0.00  0.00    +0.167 A 
BRANCH  18  19
ATOM     19  C   UNL     1      15.145   6.969  20.608  0.00  0.00    +0.020 A 
ATOM     24  C   UNL     1      15.293   6.645  19.259  0.00  0.00    +0.011 A 
ATOM     25  C   UNL     1      16.235   6.874  21.472  0.00  0.00    +0.011 A 
ATOM     27  C   UNL     1      16.532   6.228  18.774  0.00  0.00    +0.001 A 
ATOM     28  C   UNL     1      17.475   6.457  20.987  0.00  0.00    +0.001 A 
ATOM     29  C   UNL     1      17.624   6.133  19.638  0.00  0.00    +0.000 A 
ENDBRANCH  18  19
ENDBRANCH  13  14
ENDBRANCH   9  13
TORSDOF 9
ENDMDL
MODEL 2
REMARK VINA RESULT:      -6.3      2.637      5.935
REMARK  Name = 75536320
REMARK  10 active torsions:
REMARK  status: ('A' for Active; 'I' for Inactive)
REMARK    1  A    between atoms: O_2  and  C_8
REMARK    2  A    between atoms: O_4  and  C_22
REMARK    3  A    between atoms: O_4  and  C_30
REMARK    4  A    between atoms: N_5  and  C_12
REMARK    5  A    between atoms: N_5  and  C_15
REMARK    6  A    between atoms: C_7  and  C_12
REMARK    7  A    between atoms: C_9  and  C_13
REMARK    8  A    between atoms: C_13  and  C_14
REMARK    9  A    between atoms: C_15  and  C_17
REMARK   10  A    between atoms: C_18  and  C_19
REMARK                            x       y       z     vdW  Elec       q    Type
REMARK                         _______ _______ _______ _____ _____    ______ ____
ROOT
ATOM      1  O   UNL     1      10.594   8.073  20.079  0.00  0.00    -0.369 OA
ATOM      7  C   UNL     1      10.876   7.638  21.416  0.00  0.00    +0.161 C 
ATOM      8  C   UNL     1      11.776   6.395  21.420  0.00  0.00    +0.145 C 
ATOM      9  C   UNL     1      11.743   8.331  19.269  0.00  0.00    +0.125 C 
ATOM     10  C   UNL     1      13.004   6.563  20.530  0.00  0.00    +0.036 C 
ATOM     11  C   UNL     1      12.611   7.079  19.149  0.00  0.00    +0.034 C 
ENDROOT
BRANCH   8   2
ATOM      2  O   UNL     1      11.027   5.283  20.924  0.00  0.00    -0.389 OA
ATOM     32  H   UNL     1      10.290   5.635  20.397  0.00  0.00    +0.210 HD
ENDBRANCH   8   2
BRANCH   7  12
ATOM     12  C   UNL     1      11.434   8.781  22.261  0.00  0.00    +0.115 C 
BRANCH  12   5
ATOM      5  N   UNL     1      10.460   9.853  22.390  0.00  0.00    -0.309 NA
ATOM     31  H   UNL     1      10.086  10.082  21.468  0.00  0.00    +0.122 HD
BRANCH   5  15
ATOM     15  C   UNL     1      11.072  11.049  22.956  0.00  0.00    +0.116 C 
BRANCH  15  17
ATOM     17  C   UNL     1      11.847  11.825  21.924  0.00  0.00    -0.030 A 
ATOM     20  C   UNL     1      13.115  11.394  21.534  0.00  0.00    +0.050 A 
ATOM     21  C   UNL     1      11.297  12.974  21.357  0.00  0.00    +0.005 A 
ATOM     22  C   UNL     1      13.832  12.111  20.577  0.00  0.00    +0.120 A 
ATOM     23  C   UNL     1      12.013  13.693  20.401  0.00  0.00    +0.004 A 
ATOM     26  C   UNL     1      13.281  13.261  20.011  0.00  0.00    +0.045 A 
BRANCH  22   4
ATOM      4  O   UNL     1      15.069  11.690  20.197  0.00  0.00    -0.495 OA
ATOM     30  C   UNL     1      15.414  10.337  20.494  0.00  0.00    +0.277 C 
ENDBRANCH  22   4
ENDBRANCH  15  17
ENDBRANCH   5  15
ENDBRANCH  12   5
ENDBRANCH   7  12
BRANCH   9  13
ATOM     13  C   UNL     1      11.247   8.781  17.900  0.00  0.00    +0.090 C 
BRANCH  13  14
ATOM      3  O   UNL     1      13.625   9.576  15.310  0.00  0.00    -0.354 OA
ATOM      6  N   UNL     1      12.519   8.887  15.796  0.00  0.00    -0.083 NA
ATOM     14  C   UNL     1      12.367   9.320  17.050  0.00  0.00    +0.087 A 
ATOM     16  C   UNL     1      13.335  10.274  17.408  0.00  0.00    +0.076 A 
ATOM     18  C   UNL     1      14.101  10.398  16.280  0.00  0.00    +0.167 A 
BRANCH  18  19
ATOM     19  C   UNL     1      15.248  11.182  15.922  0.00  0.00    +0.020 A 
ATOM     24  C   UNL     1      15.764  12.114  16.822  0.00  0.00    +0.011 A 
ATOM     25  C   UNL     1      15.846  11.012  14.674  0.00  0.00    +0.011 A 
ATOM     27  C   UNL     1      16.879  12.876  16.475  0.00  0.00    +0.001 A 
ATOM     28  C   UNL     1      16.961  11.775  14.326  0.00  0.00    +0.001 A 
ATOM     29  C   UNL     1      17.478  12.707  15.226  0.00  0.00    +0.000 A 
ENDBRANCH  18  19
ENDBRANCH  13  14
ENDBRANCH   9  13
TORSDOF 9
ENDMDL
MODEL 3
REMARK VINA RESULT:      -6.2     27.159     29.703
REMARK  Name = 75536320
REMARK  10 active torsions:
REMARK  status: ('A' for Active; 'I' for Inactive)
REMARK    1  A    between atoms: O_2  and  C_8
REMARK    2  A    between atoms: O_4  and  C_22
REMARK    3  A    between atoms: O_4  and  C_30
REMARK    4  A    between atoms: N_5  and  C_12
REMARK    5  A    between atoms: N_5  and  C_15
REMARK    6  A    between atoms: C_7  and  C_12
REMARK    7  A    between atoms: C_9  and  C_13
REMARK    8  A    between atoms: C_13  and  C_14
REMARK    9  A    between atoms: C_15  and  C_17
REMARK   10  A    between atoms: C_18  and  C_19
REMARK                            x       y       z     vdW  Elec       q    Type
REMARK                         _______ _______ _______ _____ _____    ______ ____
ROOT
ATOM      1  O   UNL     1     -15.996   2.125  24.807  0.00  0.00    -0.369 OA
ATOM      7  C   UNL     1     -16.105   3.161  23.822  0.00  0.00    +0.161 C 
ATOM      8  C   UNL     1     -17.394   3.017  23.001  0.00  0.00    +0.145 C 
ATOM      9  C   UNL     1     -17.105   2.020  25.703  0.00  0.00    +0.125 C 
ATOM     10  C   UNL     1     -18.627   2.842  23.882  0.00  0.00    +0.036 C 
ATOM     11  C   UNL     1     -18.398   1.758  24.933  0.00  0.00    +0.034 C 
ENDROOT
BRANCH   8   2
ATOM      2  O   UNL     1     -17.283   1.860  22.169  0.00  0.00    -0.389 OA
ATOM     32  H   UNL     1     -16.389   1.856  21.788  0.00  0.00    +0.210 HD
ENDBRANCH   8   2
BRANCH   7  12
ATOM     12  C   UNL     1     -15.952   4.542  24.455  0.00  0.00    +0.115 C 
BRANCH  12   5
ATOM      5  N   UNL     1     -14.672   5.136  24.099  0.00  0.00    -0.309 NA
ATOM     31  H   UNL     1     -14.785   6.146  24.001  0.00  0.00    +0.122 HD
BRANCH   5  15
ATOM     15  C   UNL     1     -14.178   4.596  22.839  0.00  0.00    +0.116 C 
BRANCH  15  17
ATOM     17  C   UNL     1     -13.947   5.677  21.818  0.00  0.00    -0.030 A 
ATOM     20  C   UNL     1     -12.649   6.092  21.521  0.00  0.00    +0.050 A 
ATOM     21  C   UNL     1     -15.032   6.265  21.167  0.00  0.00    +0.005 A 
ATOM     22  C   UNL     1     -12.435   7.092  20.573  0.00  0.00    +0.120 A 
ATOM     23  C   UNL     1     -14.820   7.266  20.220  0.00  0.00    +0.004 A 
ATOM     26  C   UNL     1     -13.521   7.680  19.923  0.00  0.00    +0.045 A 
BRANCH  22   4
ATOM      4  O   UNL     1     -11.169   7.497  20.284  0.00  0.00    -0.495 OA
ATOM     30  C   UNL     1     -11.021   8.769  19.655  0.00  0.00    +0.277 C 
ENDBRANCH  22   4
ENDBRANCH  15  17
ENDBRANCH   5  15
ENDBRANCH  12   5
ENDBRANCH   7  12
BRANCH   9  13
ATOM     13  C   UNL     1     -16.808   0.879  26.668  0.00  0.00    +0.090 C 
BRANCH  13  14
ATOM      3  O   UNL     1     -15.634   1.323  30.047  0.00  0.00    -0.354 OA
ATOM      6  N   UNL     1     -16.120   0.539  29.007  0.00  0.00    -0.083 NA
ATOM     14  C   UNL     1     -16.286   1.385  27.987  0.00  0.00    +0.087 A 
ATOM     16  C   UNL     1     -15.924   2.702  28.319  0.00  0.00    +0.076 A 
ATOM     18  C   UNL     1     -15.522   2.608  29.625  0.00  0.00    +0.167 A 
BRANCH  18  19
ATOM     19  C   UNL     1     -15.028   3.540  30.596  0.00  0.00    +0.020 A 
ATOM     24  C   UNL     1     -13.940   3.198  31.400  0.00  0.00    +0.011 A 
ATOM     25  C   UNL     1     -15.635   4.788  30.738  0.00  0.00    +0.011 A 
ATOM     27  C   UNL     1     -13.459   4.103  32.346  0.00  0.00    +0.001 A 
ATOM     28  C   UNL     1     -15.153   5.694  31.683  0.00  0.00    +0.001 A 
ATOM     29  C   UNL     1     -14.066   5.352  32.488  0.00  0.00    +0.000 A 
ENDBRANCH  18  19
ENDBRANCH  13  14
ENDBRANCH   9  13
TORSDOF 9
ENDMDL
MODEL 4
REMARK VINA RESULT:      -5.9     26.286     28.407
REMARK  Name = 75536320
REMARK  10 active torsions:
REMARK  status: ('A' for Active; 'I' for Inactive)
REMARK    1  A    between atoms: O_2  and  C_8
REMARK    2  A    between atoms: O_4  and  C_22
REMARK    3  A    between atoms: O_4  and  C_30
REMARK    4  A    between atoms: N_5  and  C_12
REMARK    5  A    between atoms: N_5  and  C_15
REMARK    6  A    between atoms: C_7  and  C_12
REMARK    7  A    between atoms: C_9  and  C_13
REMARK    8  A    between atoms: C_13  and  C_14
REMARK    9  A    between atoms: C_15  and  C_17
REMARK   10  A    between atoms: C_18  and  C_19
REMARK                            x       y       z     vdW  Elec       q    Type
REMARK                         _______ _______ _______ _____ _____    ______ ____
ROOT
ATOM      1  O   UNL     1      -6.544  -9.776  17.256  0.00  0.00    -0.369 OA
ATOM      7  C   UNL     1      -5.559 -10.342  18.132  0.00  0.00    +0.161 C 
ATOM      8  C   UNL     1      -6.209 -11.229  19.202  0.00  0.00    +0.145 C 
ATOM      9  C   UNL     1      -7.400 -10.723  16.613  0.00  0.00    +0.125 C 
ATOM     10  C   UNL     1      -7.187 -12.237  18.606  0.00  0.00    +0.036 C 
ATOM     11  C   UNL     1      -8.159 -11.554  17.648  0.00  0.00    +0.034 C 
ENDROOT
BRANCH   8   2
ATOM      2  O   UNL     1      -6.937 -10.399  20.110  0.00  0.00    -0.389 OA
ATOM     32  H   UNL     1      -6.324 -10.125  20.814  0.00  0.00    +0.210 HD
ENDBRANCH   8   2
BRANCH   7  12
ATOM     12  C   UNL     1      -4.467 -11.060  17.343  0.00  0.00    +0.115 C 
BRANCH  12   5
ATOM      5  N   UNL     1      -3.787 -10.141  16.444  0.00  0.00    -0.309 NA
ATOM     31  H   UNL     1      -4.347 -10.019  15.599  0.00  0.00    +0.122 HD
BRANCH   5  15
ATOM     15  C   UNL     1      -2.476 -10.653  16.067  0.00  0.00    +0.116 C 
BRANCH  15  17
ATOM     17  C   UNL     1      -2.480 -11.237  14.680  0.00  0.00    -0.030 A 
ATOM     20  C   UNL     1      -2.613 -12.614  14.502  0.00  0.00    +0.050 A 
ATOM     21  C   UNL     1      -2.350 -10.401  13.570  0.00  0.00    +0.005 A 
ATOM     22  C   UNL     1      -2.618 -13.155  13.217  0.00  0.00    +0.120 A 
ATOM     23  C   UNL     1      -2.354 -10.941  12.285  0.00  0.00    +0.004 A 
ATOM     26  C   UNL     1      -2.489 -12.319  12.108  0.00  0.00    +0.045 A 
BRANCH  22   4
ATOM      4  O   UNL     1      -2.749 -14.498  13.045  0.00  0.00    -0.495 OA
ATOM     30  C   UNL     1      -2.752 -15.307  14.221  0.00  0.00    +0.277 C 
ENDBRANCH  22   4
ENDBRANCH  15  17
ENDBRANCH   5  15
ENDBRANCH  12   5
ENDBRANCH   7  12
BRANCH   9  13
ATOM     13  C   UNL     1      -8.366  -9.941  15.731  0.00  0.00    +0.090 C 
BRANCH  13  14
ATOM      3  O   UNL     1      -8.063  -9.825  12.141  0.00  0.00    -0.354 OA
ATOM      6  N   UNL     1      -8.811  -9.828  13.313  0.00  0.00    -0.083 NA
ATOM     14  C   UNL     1      -7.911  -9.913  14.296  0.00  0.00    +0.087 A 
ATOM     16  C   UNL     1      -6.593  -9.964  13.811  0.00  0.00    +0.076 A 
ATOM     18  C   UNL     1      -6.744  -9.906  12.451  0.00  0.00    +0.167 A 
BRANCH  18  19
ATOM     19  C   UNL     1      -5.843  -9.910  11.336  0.00  0.00    +0.020 A 
ATOM     24  C   UNL     1      -5.104  -8.767  11.032  0.00  0.00    +0.011 A 
ATOM     25  C   UNL     1      -5.707 -11.057  10.554  0.00  0.00    +0.011 A 
ATOM     27  C   UNL     1      -4.228  -8.770   9.947  0.00  0.00    +0.001 A 
ATOM     28  C   UNL     1      -4.830 -11.060   9.468  0.00  0.00    +0.001 A 
ATOM     29  C   UNL     1      -4.091  -9.917   9.164  0.00  0.00    +0.000 A 
ENDBRANCH  18  19
ENDBRANCH  13  14
ENDBRANCH   9  13
TORSDOF 9
ENDMDL
MODEL 5
REMARK VINA RESULT:      -5.8     17.284     21.747
REMARK  Name = 75536320
REMARK  10 active torsions:
REMARK  status: ('A' for Active; 'I' for Inactive)
REMARK    1  A    between atoms: O_2  and  C_8
REMARK    2  A    between atoms: O_4  and  C_22
REMARK    3  A    between atoms: O_4  and  C_30
REMARK    4  A    between atoms: N_5  and  C_12
REMARK    5  A    between atoms: N_5  and  C_15
REMARK    6  A    between atoms: C_7  and  C_12
REMARK    7  A    between atoms: C_9  and  C_13
REMARK    8  A    between atoms: C_13  and  C_14
REMARK    9  A    between atoms: C_15  and  C_17
REMARK   10  A    between atoms: C_18  and  C_19
REMARK                            x       y       z     vdW  Elec       q    Type
REMARK                         _______ _______ _______ _____ _____    ______ ____
ROOT
ATOM      1  O   UNL     1      13.007   2.819   0.591  0.00  0.00    -0.369 OA
ATOM      7  C   UNL     1      13.429   3.556   1.746  0.00  0.00    +0.161 C 
ATOM      8  C   UNL     1      14.833   4.143   1.551  0.00  0.00    +0.145 C 
ATOM      9  C   UNL     1      13.036   3.549  -0.639  0.00  0.00    +0.125 C 
ATOM     10  C   UNL     1      14.972   4.893   0.230  0.00  0.00    +0.036 C 
ATOM     11  C   UNL     1      14.448   4.053  -0.932  0.00  0.00    +0.034 C 
ENDROOT
BRANCH   8   2
ATOM      2  O   UNL     1      15.782   3.074   1.548  0.00  0.00    -0.389 OA
ATOM     32  H   UNL     1      15.727   2.634   0.682  0.00  0.00    +0.210 HD
ENDBRANCH   8   2
BRANCH   7  12
ATOM     12  C   UNL     1      12.392   4.607   2.139  0.00  0.00    +0.115 C 
BRANCH  12   5
ATOM      5  N   UNL     1      11.397   4.042   3.037  0.00  0.00    -0.309 NA
ATOM     31  H   UNL     1      10.909   3.280   2.563  0.00  0.00    +0.122 HD
BRANCH   5  15
ATOM     15  C   UNL     1      10.419   5.049   3.432  0.00  0.00    +0.116 C 
BRANCH  15  17
ATOM     17  C   UNL     1      10.561   5.429   4.882  0.00  0.00    -0.030 A 
ATOM     20  C   UNL     1      11.475   6.412   5.259  0.00  0.00    +0.050 A 
ATOM     21  C   UNL     1       9.778   4.798   5.848  0.00  0.00    +0.005 A 
ATOM     22  C   UNL     1      11.606   6.765   6.602  0.00  0.00    +0.120 A 
ATOM     23  C   UNL     1       9.908   5.150   7.191  0.00  0.00    +0.004 A 
ATOM     26  C   UNL     1      10.822   6.134   7.568  0.00  0.00    +0.045 A 
BRANCH  22   4
ATOM      4  O   UNL     1      12.498   7.725   6.969  0.00  0.00    -0.495 OA
ATOM     30  C   UNL     1      11.990   9.044   7.162  0.00  0.00    +0.277 C 
ENDBRANCH  22   4
ENDBRANCH  15  17
ENDBRANCH   5  15
ENDBRANCH  12   5
ENDBRANCH   7  12
BRANCH   9  13
ATOM     13  C   UNL     1      12.556   2.610  -1.739  0.00  0.00    +0.090 C 
BRANCH  13  14
ATOM      3  O   UNL     1       9.331   2.949  -3.312  0.00  0.00    -0.354 OA
ATOM      6  N   UNL     1      10.396   2.190  -2.842  0.00  0.00    -0.083 NA
ATOM     14  C   UNL     1      11.261   3.079  -2.346  0.00  0.00    +0.087 A 
ATOM     16  C   UNL     1      10.800   4.401  -2.472  0.00  0.00    +0.076 A 
ATOM     18  C   UNL     1       9.584   4.264  -3.086  0.00  0.00    +0.167 A 
BRANCH  18  19
ATOM     19  C   UNL     1       8.565   5.175  -3.519  0.00  0.00    +0.020 A 
ATOM     24  C   UNL     1       8.009   5.047  -4.792  0.00  0.00    +0.011 A 
ATOM     25  C   UNL     1       8.130   6.191  -2.668  0.00  0.00    +0.011 A 
ATOM     27  C   UNL     1       7.019   5.934  -5.214  0.00  0.00    +0.001 A 
ATOM     28  C   UNL     1       7.139   7.078  -3.090  0.00  0.00    +0.001 A 
ATOM     29  C   UNL     1       6.584   6.950  -4.363  0.00  0.00    +0.000 A 
ENDBRANCH  18  19
ENDBRANCH  13  14
ENDBRANCH   9  13
TORSDOF 9
ENDMDL
MODEL 6
REMARK VINA RESULT:      -5.8     27.099     30.187
REMARK  Name = 75536320
REMARK  10 active torsions:
REMARK  status: ('A' for Active; 'I' for Inactive)
REMARK    1  A    between atoms: O_2  and  C_8
REMARK    2  A    between atoms: O_4  and  C_22
REMARK    3  A    between atoms: O_4  and  C_30
REMARK    4  A    between atoms: N_5  and  C_12
REMARK    5  A    between atoms: N_5  and  C_15
REMARK    6  A    between atoms: C_7  and  C_12
REMARK    7  A    between atoms: C_9  and  C_13
REMARK    8  A    between atoms: C_13  and  C_14
REMARK    9  A    between atoms: C_15  and  C_17
REMARK   10  A    between atoms: C_18  and  C_19
REMARK                            x       y       z     vdW  Elec       q    Type
REMARK                         _______ _______ _______ _____ _____    ______ ____
ROOT
ATOM      1  O   UNL     1      -4.998 -11.113  17.248  0.00  0.00    -0.369 OA
ATOM      7  C   UNL     1      -4.453 -10.419  16.117  0.00  0.00    +0.161 C 
ATOM      8  C   UNL     1      -3.385 -11.262  15.408  0.00  0.00    +0.145 C 
ATOM      9  C   UNL     1      -5.541 -12.404  16.964  0.00  0.00    +0.125 C 
ATOM     10  C   UNL     1      -3.862 -12.681  15.117  0.00  0.00    +0.036 C 
ATOM     11  C   UNL     1      -4.474 -13.318  16.362  0.00  0.00    +0.034 C 
ENDROOT
BRANCH   8   2
ATOM      2  O   UNL     1      -2.235 -11.353  16.252  0.00  0.00    -0.389 OA
ATOM     32  H   UNL     1      -2.145 -12.281  16.529  0.00  0.00    +0.210 HD
ENDBRANCH   8   2
BRANCH   7  12
ATOM     12  C   UNL     1      -5.559  -9.944  15.177  0.00  0.00    +0.115 C 
BRANCH  12   5
ATOM      5  N   UNL     1      -6.701  -9.447  15.930  0.00  0.00    -0.309 NA
ATOM     31  H   UNL     1      -6.608  -9.727  16.907  0.00  0.00    +0.122 HD
BRANCH   5  15
ATOM     15  C   UNL     1      -7.948  -9.987  15.403  0.00  0.00    +0.116 C 
BRANCH  15  17
ATOM     17  C   UNL     1      -9.138  -9.171  15.831  0.00  0.00    -0.030 A 
ATOM     20  C   UNL     1     -10.306  -9.187  15.069  0.00  0.00    +0.050 A 
ATOM     21  C   UNL     1      -9.072  -8.398  16.991  0.00  0.00    +0.005 A 
ATOM     22  C   UNL     1     -11.408  -8.431  15.467  0.00  0.00    +0.120 A 
ATOM     23  C   UNL     1     -10.174  -7.642  17.389  0.00  0.00    +0.004 A 
ATOM     26  C   UNL     1     -11.343  -7.658  16.626  0.00  0.00    +0.045 A 
BRANCH  22   4
ATOM      4  O   UNL     1     -12.548  -8.447  14.723  0.00  0.00    -0.495 OA
ATOM     30  C   UNL     1     -13.723  -7.905  15.324  0.00  0.00    +0.277 C 
ENDBRANCH  22   4
ENDBRANCH  15  17
ENDBRANCH   5  15
ENDBRANCH  12   5
ENDBRANCH   7  12
BRANCH   9  13
ATOM     13  C   UNL     1      -6.069 -12.977  18.275  0.00  0.00    +0.090 C 
BRANCH  13  14
ATOM      3  O   UNL     1      -8.523 -10.980  20.001  0.00  0.00    -0.354 OA
ATOM      6  N   UNL     1      -7.243 -11.504  19.858  0.00  0.00    -0.083 NA
ATOM     14  C   UNL     1      -7.296 -12.245  18.748  0.00  0.00    +0.087 A 
ATOM     16  C   UNL     1      -8.569 -12.226  18.153  0.00  0.00    +0.076 A 
ATOM     18  C   UNL     1      -9.303 -11.417  18.980  0.00  0.00    +0.167 A 
BRANCH  18  19
ATOM     19  C   UNL     1     -10.660 -10.954  18.992  0.00  0.00    +0.020 A 
ATOM     24  C   UNL     1     -11.128 -10.193  20.063  0.00  0.00    +0.011 A 
ATOM     25  C   UNL     1     -11.513 -11.266  17.933  0.00  0.00    +0.011 A 
ATOM     27  C   UNL     1     -12.447  -9.743  20.076  0.00  0.00    +0.001 A 
ATOM     28  C   UNL     1     -12.833 -10.816  17.946  0.00  0.00    +0.001 A 
ATOM     29  C   UNL     1     -13.301 -10.055  19.017  0.00  0.00    +0.000 A 
ENDBRANCH  18  19
ENDBRANCH  13  14
ENDBRANCH   9  13
TORSDOF 9
ENDMDL
MODEL 7
REMARK VINA RESULT:      -5.7     26.701     28.861
REMARK  Name = 75536320
REMARK  10 active torsions:
REMARK  status: ('A' for Active; 'I' for Inactive)
REMARK    1  A    between atoms: O_2  and  C_8
REMARK    2  A    between atoms: O_4  and  C_22
REMARK    3  A    between atoms: O_4  and  C_30
REMARK    4  A    between atoms: N_5  and  C_12
REMARK    5  A    between atoms: N_5  and  C_15
REMARK    6  A    between atoms: C_7  and  C_12
REMARK    7  A    between atoms: C_9  and  C_13
REMARK    8  A    between atoms: C_13  and  C_14
REMARK    9  A    between atoms: C_15  and  C_17
REMARK   10  A    between atoms: C_18  and  C_19
REMARK                            x       y       z     vdW  Elec       q    Type
REMARK                         _______ _______ _______ _____ _____    ______ ____
ROOT
ATOM      1  O   UNL     1      -5.224  -8.901  11.336  0.00  0.00    -0.369 OA
ATOM      7  C   UNL     1      -6.581  -8.828  10.879  0.00  0.00    +0.161 C 
ATOM      8  C   UNL     1      -6.657  -8.861   9.347  0.00  0.00    +0.145 C 
ATOM      9  C   UNL     1      -4.482 -10.027  10.861  0.00  0.00    +0.125 C 
ATOM     10  C   UNL     1      -5.842 -10.004   8.749  0.00  0.00    +0.036 C 
ATOM     11  C   UNL     1      -4.432 -10.034   9.333  0.00  0.00    +0.034 C 
ENDROOT
BRANCH   8   2
ATOM      2  O   UNL     1      -6.131  -7.635   8.834  0.00  0.00    -0.389 OA
ATOM     32  H   UNL     1      -6.126  -6.989   9.561  0.00  0.00    +0.210 HD
ENDBRANCH   8   2
BRANCH   7  12
ATOM     12  C   UNL     1      -7.443  -9.900  11.543  0.00  0.00    +0.115 C 
BRANCH  12   5
ATOM      5  N   UNL     1      -7.515  -9.691  12.981  0.00  0.00    -0.309 NA
ATOM     31  H   UNL     1      -6.644  -9.269  13.304  0.00  0.00    +0.122 HD
BRANCH   5  15
ATOM     15  C   UNL     1      -7.713 -10.953  13.683  0.00  0.00    +0.116 C 
BRANCH  15  17
ATOM     17  C   UNL     1      -7.749 -10.764  15.176  0.00  0.00    -0.030 A 
ATOM     20  C   UNL     1      -8.463 -11.657  15.975  0.00  0.00    +0.050 A 
ATOM     21  C   UNL     1      -7.068  -9.697  15.761  0.00  0.00    +0.005 A 
ATOM     22  C   UNL     1      -8.495 -11.483  17.358  0.00  0.00    +0.120 A 
ATOM     23  C   UNL     1      -7.100  -9.522  17.144  0.00  0.00    +0.004 A 
ATOM     26  C   UNL     1      -7.814 -10.415  17.943  0.00  0.00    +0.045 A 
BRANCH  22   4
ATOM      4  O   UNL     1      -9.192 -12.354  18.137  0.00  0.00    -0.495 OA
ATOM     30  C   UNL     1      -8.790 -13.723  18.101  0.00  0.00    +0.277 C 
ENDBRANCH  22   4
ENDBRANCH  15  17
ENDBRANCH   5  15
ENDBRANCH  12   5
ENDBRANCH   7  12
BRANCH   9  13
ATOM     13  C   UNL     1      -3.079  -9.933  11.449  0.00  0.00    +0.090 C 
BRANCH  13  14
ATOM      3  O   UNL     1      -2.167 -11.141  14.720  0.00  0.00    -0.354 OA
ATOM      6  N   UNL     1      -1.852 -10.667  13.452  0.00  0.00    -0.083 NA
ATOM     14  C   UNL     1      -3.030 -10.457  12.859  0.00  0.00    +0.087 A 
ATOM     16  C   UNL     1      -4.114 -10.775  13.696  0.00  0.00    +0.076 A 
ATOM     18  C   UNL     1      -3.517 -11.201  14.853  0.00  0.00    +0.167 A 
BRANCH  18  19
ATOM     19  C   UNL     1      -3.996 -11.673  16.119  0.00  0.00    +0.020 A 
ATOM     24  C   UNL     1      -4.749 -12.846  16.187  0.00  0.00    +0.011 A 
ATOM     25  C   UNL     1      -3.711 -10.959  17.283  0.00  0.00    +0.011 A 
ATOM     27  C   UNL     1      -5.215 -13.305  17.418  0.00  0.00    +0.001 A 
ATOM     28  C   UNL     1      -4.178 -11.419  18.515  0.00  0.00    +0.001 A 
ATOM     29  C   UNL     1      -4.930 -12.592  18.583  0.00  0.00    +0.000 A 
ENDBRANCH  18  19
ENDBRANCH  13  14
ENDBRANCH   9  13
TORSDOF 9
ENDMDL
MODEL 8
REMARK VINA RESULT:      -5.7     27.338     30.048
REMARK  Name = 75536320
REMARK  10 active torsions:
REMARK  status: ('A' for Active; 'I' for Inactive)
REMARK    1  A    between atoms: O_2  and  C_8
REMARK    2  A    between atoms: O_4  and  C_22
REMARK    3  A    between atoms: O_4  and  C_30
REMARK    4  A    between atoms: N_5  and  C_12
REMARK    5  A    between atoms: N_5  and  C_15
REMARK    6  A    between atoms: C_7  and  C_12
REMARK    7  A    between atoms: C_9  and  C_13
REMARK    8  A    between atoms: C_13  and  C_14
REMARK    9  A    between atoms: C_15  and  C_17
REMARK   10  A    between atoms: C_18  and  C_19
REMARK                            x       y       z     vdW  Elec       q    Type
REMARK                         _______ _______ _______ _____ _____    ______ ____
ROOT
ATOM      1  O   UNL     1     -16.560   4.537  26.761  0.00  0.00    -0.369 OA
ATOM      7  C   UNL     1     -17.584   5.190  27.524  0.00  0.00    +0.161 C 
ATOM      8  C   UNL     1     -18.180   6.378  26.756  0.00  0.00    +0.145 C 
ATOM      9  C   UNL     1     -16.961   4.094  25.462  0.00  0.00    +0.125 C 
ATOM     10  C   UNL     1     -18.584   6.006  25.333  0.00  0.00    +0.036 C 
ATOM     11  C   UNL     1     -17.453   5.269  24.619  0.00  0.00    +0.034 C 
ENDROOT
BRANCH   8   2
ATOM      2  O   UNL     1     -17.198   7.413  26.675  0.00  0.00    -0.389 OA
ATOM     32  H   UNL     1     -16.855   7.423  25.765  0.00  0.00    +0.210 HD
ENDBRANCH   8   2
BRANCH   7  12
ATOM     12  C   UNL     1     -18.640   4.193  27.996  0.00  0.00    +0.115 C 
BRANCH  12   5
ATOM      5  N   UNL     1     -18.187   3.479  29.179  0.00  0.00    -0.309 NA
ATOM     31  H   UNL     1     -17.484   4.039  29.663  0.00  0.00    +0.122 HD
BRANCH   5  15
ATOM     15  C   UNL     1     -17.596   2.196  28.819  0.00  0.00    +0.116 C 
BRANCH  15  17
ATOM     17  C   UNL     1     -16.211   2.037  29.389  0.00  0.00    -0.030 A 
ATOM     20  C   UNL     1     -15.677   0.763  29.580  0.00  0.00    +0.050 A 
ATOM     21  C   UNL     1     -15.462   3.165  29.726  0.00  0.00    +0.005 A 
ATOM     22  C   UNL     1     -14.394   0.617  30.107  0.00  0.00    +0.120 A 
ATOM     23  C   UNL     1     -14.179   3.019  30.253  0.00  0.00    +0.004 A 
ATOM     26  C   UNL     1     -13.645   1.744  30.443  0.00  0.00    +0.045 A 
BRANCH  22   4
ATOM      4  O   UNL     1     -13.873  -0.627  30.293  0.00  0.00    -0.495 OA
ATOM     30  C   UNL     1     -13.148  -1.197  29.204  0.00  0.00    +0.277 C 
ENDBRANCH  22   4
ENDBRANCH  15  17
ENDBRANCH   5  15
ENDBRANCH  12   5
ENDBRANCH   7  12
BRANCH   9  13
ATOM     13  C   UNL     1     -15.752   3.429  24.813  0.00  0.00    +0.090 C 
BRANCH  13  14
ATOM      3  O   UNL     1     -15.297   4.736  21.485  0.00  0.00    -0.354 OA
ATOM      6  N   UNL     1     -15.934   3.913  22.407  0.00  0.00    -0.083 NA
ATOM     14  C   UNL     1     -15.319   4.155  23.567  0.00  0.00    +0.087 A 
ATOM     16  C   UNL     1     -14.298   5.113  23.442  0.00  0.00    +0.076 A 
ATOM     18  C   UNL     1     -14.326   5.445  22.114  0.00  0.00    +0.167 A 
BRANCH  18  19
ATOM     19  C   UNL     1     -13.579   6.346  21.285  0.00  0.00    +0.020 A 
ATOM     24  C   UNL     1     -14.247   7.272  20.483  0.00  0.00    +0.011 A 
ATOM     25  C   UNL     1     -12.185   6.296  21.278  0.00  0.00    +0.011 A 
ATOM     27  C   UNL     1     -13.522   8.148  19.676  0.00  0.00    +0.001 A 
ATOM     28  C   UNL     1     -11.460   7.172  20.471  0.00  0.00    +0.001 A 
ATOM     29  C   UNL     1     -12.128   8.098  19.669  0.00  0.00    +0.000 A 
ENDBRANCH  18  19
ENDBRANCH  13  14
ENDBRANCH   9  13
TORSDOF 9
ENDMDL
MODEL 9
REMARK VINA RESULT:      -5.7     26.793     29.117
REMARK  Name = 75536320
REMARK  10 active torsions:
REMARK  status: ('A' for Active; 'I' for Inactive)
REMARK    1  A    between atoms: O_2  and  C_8
REMARK    2  A    between atoms: O_4  and  C_22
REMARK    3  A    between atoms: O_4  and  C_30
REMARK    4  A    between atoms: N_5  and  C_12
REMARK    5  A    between atoms: N_5  and  C_15
REMARK    6  A    between atoms: C_7  and  C_12
REMARK    7  A    between atoms: C_9  and  C_13
REMARK    8  A    between atoms: C_13  and  C_14
REMARK    9  A    between atoms: C_15  and  C_17
REMARK   10  A    between atoms: C_18  and  C_19
REMARK                            x       y       z     vdW  Elec       q    Type
REMARK                         _______ _______ _______ _____ _____    ______ ____
ROOT
ATOM      1  O   UNL     1      -6.043 -10.664  18.695  0.00  0.00    -0.369 OA
ATOM      7  C   UNL     1      -4.937 -10.557  17.790  0.00  0.00    +0.161 C 
ATOM      8  C   UNL     1      -4.257 -11.916  17.578  0.00  0.00    +0.145 C 
ATOM      9  C   UNL     1      -7.036 -11.626  18.331  0.00  0.00    +0.125 C 
ATOM     10  C   UNL     1      -5.255 -13.019  17.240  0.00  0.00    +0.036 C 
ATOM     11  C   UNL     1      -6.422 -13.020  18.224  0.00  0.00    +0.034 C 
ENDROOT
BRANCH   8   2
ATOM      2  O   UNL     1      -3.586 -12.289  18.784  0.00  0.00    -0.389 OA
ATOM     32  H   UNL     1      -3.197 -13.169  18.645  0.00  0.00    +0.210 HD
ENDBRANCH   8   2
BRANCH   7  12
ATOM     12  C   UNL     1      -5.358  -9.890  16.482  0.00  0.00    +0.115 C 
BRANCH  12   5
ATOM      5  N   UNL     1      -4.408 -10.186  15.420  0.00  0.00    -0.309 NA
ATOM     31  H   UNL     1      -3.888  -9.340  15.187  0.00  0.00    +0.122 HD
BRANCH   5  15
ATOM     15  C   UNL     1      -5.093 -10.658  14.223  0.00  0.00    +0.116 C 
BRANCH  15  17
ATOM     17  C   UNL     1      -4.322 -10.336  12.971  0.00  0.00    -0.030 A 
ATOM     20  C   UNL     1      -4.976  -9.780  11.872  0.00  0.00    +0.050 A 
ATOM     21  C   UNL     1      -2.952 -10.593  12.911  0.00  0.00    +0.005 A 
ATOM     22  C   UNL     1      -4.261  -9.480  10.713  0.00  0.00    +0.120 A 
ATOM     23  C   UNL     1      -2.236 -10.295  11.752  0.00  0.00    +0.004 A 
ATOM     26  C   UNL     1      -2.891  -9.737  10.653  0.00  0.00    +0.045 A 
BRANCH  22   4
ATOM      4  O   UNL     1      -4.899  -8.937   9.641  0.00  0.00    -0.495 OA
ATOM     30  C   UNL     1      -4.759  -9.612   8.392  0.00  0.00    +0.277 C 
ENDBRANCH  22   4
ENDBRANCH  15  17
ENDBRANCH   5  15
ENDBRANCH  12   5
ENDBRANCH   7  12
BRANCH   9  13
ATOM     13  C   UNL     1      -8.121 -11.592  19.401  0.00  0.00    +0.090 C 
BRANCH  13  14
ATOM      3  O   UNL     1     -11.191  -9.723  19.132  0.00  0.00    -0.354 OA
ATOM      6  N   UNL     1     -10.358 -10.634  19.771  0.00  0.00    -0.083 NA
ATOM     14  C   UNL     1      -9.261 -10.690  19.010  0.00  0.00    +0.087 A 
ATOM     16  C   UNL     1      -9.344  -9.844  17.891  0.00  0.00    +0.076 A 
ATOM     18  C   UNL     1     -10.576  -9.260  18.014  0.00  0.00    +0.167 A 
BRANCH  18  19
ATOM     19  C   UNL     1     -11.319  -8.304  17.247  0.00  0.00    +0.020 A 
ATOM     24  C   UNL     1     -12.638  -8.576  16.881  0.00  0.00    +0.011 A 
ATOM     25  C   UNL     1     -10.724  -7.102  16.865  0.00  0.00    +0.011 A 
ATOM     27  C   UNL     1     -13.361  -7.647  16.135  0.00  0.00    +0.001 A 
ATOM     28  C   UNL     1     -11.447  -6.172  16.118  0.00  0.00    +0.001 A 
ATOM     29  C   UNL     1     -12.766  -6.444  15.752  0.00  0.00    +0.000 A 
ENDBRANCH  18  19
ENDBRANCH  13  14
ENDBRANCH   9  13
TORSDOF 9
ENDMDL
MODEL 10
REMARK VINA RESULT:      -5.6     27.102     28.900
REMARK  Name = 75536320
REMARK  10 active torsions:
REMARK  status: ('A' for Active; 'I' for Inactive)
REMARK    1  A    between atoms: O_2  and  C_8
REMARK    2  A    between atoms: O_4  and  C_22
REMARK    3  A    between atoms: O_4  and  C_30
REMARK    4  A    between atoms: N_5  and  C_12
REMARK    5  A    between atoms: N_5  and  C_15
REMARK    6  A    between atoms: C_7  and  C_12
REMARK    7  A    between atoms: C_9  and  C_13
REMARK    8  A    between atoms: C_13  and  C_14
REMARK    9  A    between atoms: C_15  and  C_17
REMARK   10  A    between atoms: C_18  and  C_19
REMARK                            x       y       z     vdW  Elec       q    Type
REMARK                         _______ _______ _______ _____ _____    ______ ____
ROOT
ATOM      1  O   UNL     1      -6.767 -12.036  17.177  0.00  0.00    -0.369 OA
ATOM      7  C   UNL     1      -7.873 -11.421  17.852  0.00  0.00    +0.161 C 
ATOM      8  C   UNL     1      -7.574 -11.220  19.344  0.00  0.00    +0.145 C 
ATOM      9  C   UNL     1      -5.518 -11.353  17.311  0.00  0.00    +0.125 C 
ATOM     10  C   UNL     1      -6.226 -10.547  19.581  0.00  0.00    +0.036 C 
ATOM     11  C   UNL     1      -5.123 -11.235  18.782  0.00  0.00    +0.034 C 
ENDROOT
BRANCH   8   2
ATOM      2  O   UNL     1      -7.542 -12.499  19.983  0.00  0.00    -0.389 OA
ATOM     32  H   UNL     1      -6.878 -12.456  20.692  0.00  0.00    +0.210 HD
ENDBRANCH   8   2
BRANCH   7  12
ATOM     12  C   UNL     1      -8.299 -10.133  17.151  0.00  0.00    +0.115 C 
BRANCH  12   5
ATOM      5  N   UNL     1      -9.319  -9.437  17.920  0.00  0.00    -0.309 NA
ATOM     31  H   UNL     1     -10.226  -9.876  17.752  0.00  0.00    +0.122 HD
BRANCH   5  15
ATOM     15  C   UNL     1      -9.399  -8.034  17.533  0.00  0.00    +0.116 C 
BRANCH  15  17
ATOM     17  C   UNL     1     -10.705  -7.713  16.856  0.00  0.00    -0.030 A 
ATOM     20  C   UNL     1     -10.796  -6.615  16.000  0.00  0.00    +0.050 A 
ATOM     21  C   UNL     1     -11.825  -8.514  17.084  0.00  0.00    +0.005 A 
ATOM     22  C   UNL     1     -12.005  -6.319  15.372  0.00  0.00    +0.120 A 
ATOM     23  C   UNL     1     -13.034  -8.217  16.456  0.00  0.00    +0.004 A 
ATOM     26  C   UNL     1     -13.124  -7.120  15.599  0.00  0.00    +0.045 A 
BRANCH  22   4
ATOM      4  O   UNL     1     -12.093  -5.248  14.537  0.00  0.00    -0.495 OA
ATOM     30  C   UNL     1     -13.277  -5.135  13.748  0.00  0.00    +0.277 C 
ENDBRANCH  22   4
ENDBRANCH  15  17
ENDBRANCH   5  15
ENDBRANCH  12   5
ENDBRANCH   7  12
BRANCH   9  13
ATOM     13  C   UNL     1      -4.477 -12.147  16.531  0.00  0.00    +0.090 C 
BRANCH  13  14
ATOM      3  O   UNL     1      -2.832 -10.535  13.759  0.00  0.00    -0.354 OA
ATOM      6  N   UNL     1      -2.825 -11.143  15.009  0.00  0.00    -0.083 NA
ATOM     14  C   UNL     1      -4.100 -11.461  15.246  0.00  0.00    +0.087 A 
ATOM     16  C   UNL     1      -4.949 -11.084  14.191  0.00  0.00    +0.076 A 
ATOM     18  C   UNL     1      -4.103 -10.506  13.283  0.00  0.00    +0.167 A 
BRANCH  18  19
ATOM     19  C   UNL     1      -4.269  -9.906  11.991  0.00  0.00    +0.020 A 
ATOM     24  C   UNL     1      -3.215  -9.913  11.078  0.00  0.00    +0.011 A 
ATOM     25  C   UNL     1      -5.485  -9.314  11.648  0.00  0.00    +0.011 A 
ATOM     27  C   UNL     1      -3.375  -9.328   9.822  0.00  0.00    +0.001 A 
ATOM     28  C   UNL     1      -5.645  -8.729  10.391  0.00  0.00    +0.001 A 
ATOM     29  C   UNL     1      -4.591  -8.736   9.478  0.00  0.00    +0.000 A 
ENDBRANCH  18  19
ENDBRANCH  13  14
ENDBRANCH   9  13
TORSDOF 9
ENDMDL
