MODEL 1
REMARK VINA RESULT:      -6.5      0.000      0.000
REMARK  Name = 40779427
REMARK  9 active torsions:
REMARK  status: ('A' for Active; 'I' for Inactive)
REMARK    1  A    between atoms: S_1  and  N_6
REMARK    2  A    between atoms: S_1  and  C_25
REMARK    3  A    between atoms: N_5  and  C_24
REMARK    4  A    between atoms: N_6  and  C_16
REMARK    5  A    between atoms: C_9  and  C_15
REMARK    6  A    between atoms: C_10  and  C_16
REMARK    7  A    between atoms: C_18  and  C_19
REMARK    8  A    between atoms: C_25  and  C_26
REMARK    9  A    between atoms: C_26  and  C_27
REMARK                            x       y       z     vdW  Elec       q    Type
REMARK                         _______ _______ _______ _____ _____    ______ ____
ROOT
ATOM      4  N   UNL     1      -6.362 -10.361  17.491  0.00  0.00    -0.297 NA
ATOM      8  C   UNL     1      -4.347 -11.965  17.097  0.00  0.00    +0.002 C 
ATOM      9  C   UNL     1      -4.099 -10.598  16.400  0.00  0.00    +0.055 C 
ATOM     10  C   UNL     1      -6.850 -11.681  17.009  0.00  0.00    +0.072 C 
ATOM     11  C   UNL     1      -5.666 -12.572  16.573  0.00  0.00    +0.024 C 
ATOM     12  C   UNL     1      -5.417  -9.777  16.508  0.00  0.00    +0.094 C 
ATOM     13  C   UNL     1      -4.549 -11.669  18.599  0.00  0.00    +0.019 C 
ATOM     14  C   UNL     1      -5.629 -10.584  18.761  0.00  0.00    +0.085 C 
ENDROOT
BRANCH   9  15
ATOM      5  N   UNL     1      -2.206 -10.472  14.715  0.00  0.00    -0.271 N 
ATOM      7  N   UNL     1      -1.914 -10.502  13.403  0.00  0.00    -0.176 NA
ATOM     15  C   UNL     1      -3.536 -10.604  14.987  0.00  0.00    +0.044 A 
ATOM     17  C   UNL     1      -4.157 -10.730  13.767  0.00  0.00    +0.048 A 
ATOM     19  C   UNL     1      -3.110 -10.660  12.830  0.00  0.00    +0.066 A 
ATOM     24  C   UNL     1      -1.137 -10.307  15.672  0.00  0.00    +0.172 C 
BRANCH  19  18
ATOM     18  C   UNL     1      -3.216 -10.745  11.323  0.00  0.00    +0.040 C 
ATOM     20  C   UNL     1      -4.669 -10.904  10.842  0.00  0.00    +0.010 C 
ATOM     21  C   UNL     1      -2.659  -9.518  10.573  0.00  0.00    +0.010 C 
ATOM     22  C   UNL     1      -4.733 -10.118   9.541  0.00  0.00    +0.001 C 
ATOM     23  C   UNL     1      -3.842  -8.921   9.820  0.00  0.00    +0.001 C 
ENDBRANCH  19  18
ENDBRANCH   9  15
BRANCH  10  16
ATOM     16  C   UNL     1      -7.898 -11.546  15.903  0.00  0.00    +0.124 C 
BRANCH  16   6
ATOM      6  N   UNL     1      -9.040 -10.768  16.410  0.00  0.00    -0.193 NA
ATOM     28  H   UNL     1      -9.728 -11.299  16.961  0.00  0.00    +0.148 HD
BRANCH   6   1
ATOM      1  S   UNL     1      -9.680  -9.504  15.457  0.00  0.00    +0.029 S 
ATOM      2  O   UNL     1     -11.101  -9.714  15.253  0.00  0.00    -0.158 OA
ATOM      3  O   UNL     1      -8.794  -9.282  14.330  0.00  0.00    -0.158 OA
BRANCH   1  25
ATOM     25  C   UNL     1      -9.484  -8.128  16.566  0.00  0.00    +0.185 C 
BRANCH  25  26
ATOM     26  C   UNL     1     -10.824  -7.509  16.922  0.00  0.00    +0.021 C 
ATOM     27  C   UNL     1     -11.076  -6.235  16.133  0.00  0.00    +0.005 C 
ENDBRANCH  25  26
ENDBRANCH   1  25
ENDBRANCH   6   1
ENDBRANCH  16   6
ENDBRANCH  10  16
TORSDOF 7
ENDMDL
MODEL 2
REMARK VINA RESULT:      -6.4      3.148      7.145
REMARK  Name = 40779427
REMARK  9 active torsions:
REMARK  status: ('A' for Active; 'I' for Inactive)
REMARK    1  A    between atoms: S_1  and  N_6
REMARK    2  A    between atoms: S_1  and  C_25
REMARK    3  A    between atoms: N_5  and  C_24
REMARK    4  A    between atoms: N_6  and  C_16
REMARK    5  A    between atoms: C_9  and  C_15
REMARK    6  A    between atoms: C_10  and  C_16
REMARK    7  A    between atoms: C_18  and  C_19
REMARK    8  A    between atoms: C_25  and  C_26
REMARK    9  A    between atoms: C_26  and  C_27
REMARK                            x       y       z     vdW  Elec       q    Type
REMARK                         _______ _______ _______ _____ _____    ______ ____
ROOT
ATOM      4  N   UNL     1      -5.131 -12.745  16.982  0.00  0.00    -0.297 NA
ATOM      8  C   UNL     1      -5.381 -10.608  18.451  0.00  0.00    +0.002 C 
ATOM      9  C   UNL     1      -6.774 -11.221  18.140  0.00  0.00    +0.055 C 
ATOM     10  C   UNL     1      -4.350 -11.627  16.389  0.00  0.00    +0.072 C 
ATOM     11  C   UNL     1      -4.651 -10.303  17.125  0.00  0.00    +0.024 C 
ATOM     12  C   UNL     1      -6.559 -12.362  17.104  0.00  0.00    +0.094 C 
ATOM     13  C   UNL     1      -4.566 -11.701  19.177  0.00  0.00    +0.019 C 
ATOM     14  C   UNL     1      -4.601 -12.995  18.345  0.00  0.00    +0.085 C 
ENDROOT
BRANCH   9  15
ATOM      5  N   UNL     1      -9.090 -10.216  18.399  0.00  0.00    -0.271 N 
ATOM      7  N   UNL     1      -9.951  -9.320  17.884  0.00  0.00    -0.176 NA
ATOM     15  C   UNL     1      -7.900 -10.280  17.737  0.00  0.00    +0.044 A 
ATOM     17  C   UNL     1      -7.987  -9.360  16.718  0.00  0.00    +0.048 A 
ATOM     19  C   UNL     1      -9.270  -8.801  16.859  0.00  0.00    +0.066 A 
ATOM     24  C   UNL     1      -9.487 -10.995  19.549  0.00  0.00    +0.172 C 
BRANCH  19  18
ATOM     18  C   UNL     1      -9.906  -7.728  16.002  0.00  0.00    +0.040 C 
ATOM     20  C   UNL     1     -10.665  -8.310  14.796  0.00  0.00    +0.010 C 
ATOM     21  C   UNL     1     -10.921  -6.835  16.744  0.00  0.00    +0.010 C 
ATOM     22  C   UNL     1     -11.865  -7.393  14.616  0.00  0.00    +0.001 C 
ATOM     23  C   UNL     1     -12.257  -7.058  16.044  0.00  0.00    +0.001 C 
ENDBRANCH  19  18
ENDBRANCH   9  15
BRANCH  10  16
ATOM     16  C   UNL     1      -4.568 -11.501  14.880  0.00  0.00    +0.124 C 
BRANCH  16   6
ATOM      6  N   UNL     1      -3.684 -10.451  14.349  0.00  0.00    -0.193 NA
ATOM     28  H   UNL     1      -4.112  -9.817  13.662  0.00  0.00    +0.148 HD
BRANCH   6   1
ATOM      1  S   UNL     1      -2.030 -10.798  14.100  0.00  0.00    +0.029 S 
ATOM      2  O   UNL     1      -1.820 -12.232  14.132  0.00  0.00    -0.158 OA
ATOM      3  O   UNL     1      -1.242  -9.913  14.937  0.00  0.00    -0.158 OA
BRANCH   1  25
ATOM     25  C   UNL     1      -1.832 -10.252  12.419  0.00  0.00    +0.185 C 
BRANCH  25  26
ATOM     26  C   UNL     1      -3.161 -10.233  11.684  0.00  0.00    +0.021 C 
ATOM     27  C   UNL     1      -3.063  -9.464  10.377  0.00  0.00    +0.005 C 
ENDBRANCH  25  26
ENDBRANCH   1  25
ENDBRANCH   6   1
ENDBRANCH  16   6
ENDBRANCH  10  16
TORSDOF 7
ENDMDL
MODEL 3
REMARK VINA RESULT:      -6.3      1.793      2.010
REMARK  Name = 40779427
REMARK  9 active torsions:
REMARK  status: ('A' for Active; 'I' for Inactive)
REMARK    1  A    between atoms: S_1  and  N_6
REMARK    2  A    between atoms: S_1  and  C_25
REMARK    3  A    between atoms: N_5  and  C_24
REMARK    4  A    between atoms: N_6  and  C_16
REMARK    5  A    between atoms: C_9  and  C_15
REMARK    6  A    between atoms: C_10  and  C_16
REMARK    7  A    between atoms: C_18  and  C_19
REMARK    8  A    between atoms: C_25  and  C_26
REMARK    9  A    between atoms: C_26  and  C_27
REMARK                            x       y       z     vdW  Elec       q    Type
REMARK                         _______ _______ _______ _____ _____    ______ ____
ROOT
ATOM      4  N   UNL     1      -6.342 -10.861  18.531  0.00  0.00    -0.297 NA
ATOM      8  C   UNL     1      -4.294 -12.243  17.706  0.00  0.00    +0.002 C 
ATOM      9  C   UNL     1      -4.299 -10.834  17.051  0.00  0.00    +0.055 C 
ATOM     10  C   UNL     1      -6.786 -12.204  18.071  0.00  0.00    +0.072 C 
ATOM     11  C   UNL     1      -5.624 -12.958  17.389  0.00  0.00    +0.024 C 
ATOM     12  C   UNL     1      -5.645 -10.151  17.430  0.00  0.00    +0.094 C 
ATOM     13  C   UNL     1      -4.249 -12.024  19.234  0.00  0.00    +0.019 C 
ATOM     14  C   UNL     1      -5.376 -11.058  19.640  0.00  0.00    +0.085 C 
ENDROOT
BRANCH   9  15
ATOM      5  N   UNL     1      -2.733 -10.644  15.063  0.00  0.00    -0.271 N 
ATOM      7  N   UNL     1      -2.683 -10.562  13.722  0.00  0.00    -0.176 NA
ATOM     15  C   UNL     1      -3.999 -10.732  15.563  0.00  0.00    +0.044 A 
ATOM     17  C   UNL     1      -4.836 -10.708  14.472  0.00  0.00    +0.048 A 
ATOM     19  C   UNL     1      -3.971 -10.602  13.368  0.00  0.00    +0.066 A 
ATOM     24  C   UNL     1      -1.501 -10.628  15.816  0.00  0.00    +0.172 C 
BRANCH  19  18
ATOM     18  C   UNL     1      -4.350 -10.535  11.904  0.00  0.00    +0.040 C 
ATOM     20  C   UNL     1      -5.139  -9.260  11.558  0.00  0.00    +0.010 C 
ATOM     21  C   UNL     1      -3.153 -10.563  10.932  0.00  0.00    +0.010 C 
ATOM     22  C   UNL     1      -4.679  -8.890  10.156  0.00  0.00    +0.001 C 
ATOM     23  C   UNL     1      -3.201  -9.238  10.178  0.00  0.00    +0.001 C 
ENDBRANCH  19  18
ENDBRANCH   9  15
BRANCH  10  16
ATOM     16  C   UNL     1      -8.024 -12.132  17.174  0.00  0.00    +0.124 C 
BRANCH  16   6
ATOM      6  N   UNL     1      -9.221 -12.440  17.974  0.00  0.00    -0.193 NA
ATOM     28  H   UNL     1      -9.822 -13.187  17.602  0.00  0.00    +0.148 HD
BRANCH   6   1
ATOM      1  S   UNL     1     -10.034 -11.174  18.782  0.00  0.00    +0.029 S 
ATOM      2  O   UNL     1      -9.385 -10.907  20.051  0.00  0.00    -0.158 OA
ATOM      3  O   UNL     1     -11.461 -11.427  18.717  0.00  0.00    -0.158 OA
BRANCH   1  25
ATOM     25  C   UNL     1      -9.685  -9.814  17.691  0.00  0.00    +0.185 C 
BRANCH  25  26
ATOM     26  C   UNL     1     -10.831  -8.817  17.666  0.00  0.00    +0.021 C 
ATOM     27  C   UNL     1     -10.413  -7.507  17.019  0.00  0.00    +0.005 C 
ENDBRANCH  25  26
ENDBRANCH   1  25
ENDBRANCH   6   1
ENDBRANCH  16   6
ENDBRANCH  10  16
TORSDOF 7
ENDMDL
MODEL 4
REMARK VINA RESULT:      -5.8      3.625      7.379
REMARK  Name = 40779427
REMARK  9 active torsions:
REMARK  status: ('A' for Active; 'I' for Inactive)
REMARK    1  A    between atoms: S_1  and  N_6
REMARK    2  A    between atoms: S_1  and  C_25
REMARK    3  A    between atoms: N_5  and  C_24
REMARK    4  A    between atoms: N_6  and  C_16
REMARK    5  A    between atoms: C_9  and  C_15
REMARK    6  A    between atoms: C_10  and  C_16
REMARK    7  A    between atoms: C_18  and  C_19
REMARK    8  A    between atoms: C_25  and  C_26
REMARK    9  A    between atoms: C_26  and  C_27
REMARK                            x       y       z     vdW  Elec       q    Type
REMARK                         _______ _______ _______ _____ _____    ______ ____
ROOT
ATOM      4  N   UNL     1      -5.375 -12.640  17.155  0.00  0.00    -0.297 NA
ATOM      8  C   UNL     1      -5.702 -10.511  18.619  0.00  0.00    +0.002 C 
ATOM      9  C   UNL     1      -7.077 -11.107  18.212  0.00  0.00    +0.055 C 
ATOM     10  C   UNL     1      -4.546 -11.526  16.624  0.00  0.00    +0.072 C 
ATOM     11  C   UNL     1      -4.881 -10.204  17.348  0.00  0.00    +0.024 C 
ATOM     12  C   UNL     1      -6.804 -12.243  17.184  0.00  0.00    +0.094 C 
ATOM     13  C   UNL     1      -4.948 -11.617  19.390  0.00  0.00    +0.019 C 
ATOM     14  C   UNL     1      -4.940 -12.905  18.549  0.00  0.00    +0.085 C 
ENDROOT
BRANCH   9  15
ATOM      5  N   UNL     1      -9.387 -10.062  18.338  0.00  0.00    -0.271 N 
ATOM      7  N   UNL     1     -10.203  -9.157  17.771  0.00  0.00    -0.176 NA
ATOM     15  C   UNL     1      -8.163 -10.151  17.741  0.00  0.00    +0.044 A 
ATOM     17  C   UNL     1      -8.181  -9.240  16.712  0.00  0.00    +0.048 A 
ATOM     19  C   UNL     1      -9.461  -8.659  16.779  0.00  0.00    +0.066 A 
ATOM     24  C   UNL     1      -9.857 -10.824  19.472  0.00  0.00    +0.172 C 
BRANCH  19  18
ATOM     18  C   UNL     1     -10.032  -7.584  15.881  0.00  0.00    +0.040 C 
ATOM     20  C   UNL     1     -10.919  -8.160  14.762  0.00  0.00    +0.010 C 
ATOM     21  C   UNL     1     -10.902  -6.539  16.608  0.00  0.00    +0.010 C 
ATOM     22  C   UNL     1     -12.025  -7.132  14.580  0.00  0.00    +0.001 C 
ATOM     23  C   UNL     1     -12.294  -6.662  15.998  0.00  0.00    +0.001 C 
ENDBRANCH  19  18
ENDBRANCH   9  15
BRANCH  10  16
ATOM     16  C   UNL     1      -4.660 -11.388  15.105  0.00  0.00    +0.124 C 
BRANCH  16   6
ATOM      6  N   UNL     1      -3.767 -10.311  14.647  0.00  0.00    -0.193 NA
ATOM     28  H   UNL     1      -4.195  -9.616  14.023  0.00  0.00    +0.148 HD
BRANCH   6   1
ATOM      1  S   UNL     1      -2.123 -10.663  14.341  0.00  0.00    +0.029 S 
ATOM      2  O   UNL     1      -1.315 -10.253  15.473  0.00  0.00    -0.158 OA
ATOM      3  O   UNL     1      -1.799 -10.221  12.998  0.00  0.00    -0.158 OA
BRANCH   1  25
ATOM     25  C   UNL     1      -2.170 -12.441  14.317  0.00  0.00    +0.185 C 
BRANCH  25  26
ATOM     26  C   UNL     1      -1.687 -12.989  12.985  0.00  0.00    +0.021 C 
ATOM     27  C   UNL     1      -2.641 -14.036  12.435  0.00  0.00    +0.005 C 
ENDBRANCH  25  26
ENDBRANCH   1  25
ENDBRANCH   6   1
ENDBRANCH  16   6
ENDBRANCH  10  16
TORSDOF 7
ENDMDL
MODEL 5
REMARK VINA RESULT:      -5.7      1.286      1.409
REMARK  Name = 40779427
REMARK  9 active torsions:
REMARK  status: ('A' for Active; 'I' for Inactive)
REMARK    1  A    between atoms: S_1  and  N_6
REMARK    2  A    between atoms: S_1  and  C_25
REMARK    3  A    between atoms: N_5  and  C_24
REMARK    4  A    between atoms: N_6  and  C_16
REMARK    5  A    between atoms: C_9  and  C_15
REMARK    6  A    between atoms: C_10  and  C_16
REMARK    7  A    between atoms: C_18  and  C_19
REMARK    8  A    between atoms: C_25  and  C_26
REMARK    9  A    between atoms: C_26  and  C_27
REMARK                            x       y       z     vdW  Elec       q    Type
REMARK                         _______ _______ _______ _____ _____    ______ ____
ROOT
ATOM      4  N   UNL     1      -6.597 -10.352  17.105  0.00  0.00    -0.297 NA
ATOM      8  C   UNL     1      -4.616 -12.022  16.839  0.00  0.00    +0.002 C 
ATOM      9  C   UNL     1      -4.252 -10.644  16.222  0.00  0.00    +0.055 C 
ATOM     10  C   UNL     1      -7.086 -11.632  16.530  0.00  0.00    +0.072 C 
ATOM     11  C   UNL     1      -5.902 -12.556  16.173  0.00  0.00    +0.024 C 
ATOM     12  C   UNL     1      -5.541  -9.774  16.237  0.00  0.00    +0.094 C 
ATOM     13  C   UNL     1      -4.947 -11.770  18.326  0.00  0.00    +0.019 C 
ATOM     14  C   UNL     1      -5.995 -10.649  18.429  0.00  0.00    +0.085 C 
ENDROOT
BRANCH   9  15
ATOM      5  N   UNL     1      -2.209 -10.481  14.724  0.00  0.00    -0.271 N 
ATOM      7  N   UNL     1      -1.796 -10.489  13.445  0.00  0.00    -0.176 NA
ATOM     15  C   UNL     1      -3.558 -10.624  14.867  0.00  0.00    +0.044 A 
ATOM     17  C   UNL     1      -4.062 -10.734  13.593  0.00  0.00    +0.048 A 
ATOM     19  C   UNL     1      -2.931 -10.644  12.759  0.00  0.00    +0.066 A 
ATOM     24  C   UNL     1      -1.236 -10.326  15.779  0.00  0.00    +0.172 C 
BRANCH  19  18
ATOM     18  C   UNL     1      -2.895 -10.704  11.248  0.00  0.00    +0.040 C 
ATOM     20  C   UNL     1      -4.238 -11.151  10.644  0.00  0.00    +0.010 C 
ATOM     21  C   UNL     1      -2.552  -9.366  10.563  0.00  0.00    +0.010 C 
ATOM     22  C   UNL     1      -4.362 -10.359   9.351  0.00  0.00    +0.001 C 
ATOM     23  C   UNL     1      -3.771  -9.009   9.718  0.00  0.00    +0.001 C 
ENDBRANCH  19  18
ENDBRANCH   9  15
BRANCH  10  16
ATOM     16  C   UNL     1      -8.020 -11.416  15.338  0.00  0.00    +0.124 C 
BRANCH  16   6
ATOM      6  N   UNL     1      -9.039 -10.416  15.696  0.00  0.00    -0.193 NA
ATOM     28  H   UNL     1      -8.690  -9.460  15.841  0.00  0.00    +0.148 HD
BRANCH   6   1
ATOM      1  S   UNL     1     -10.352 -10.878  16.686  0.00  0.00    +0.029 S 
ATOM      2  O   UNL     1     -10.069 -10.535  18.066  0.00  0.00    -0.158 OA
ATOM      3  O   UNL     1     -10.752 -12.225  16.323  0.00  0.00    -0.158 OA
BRANCH   1  25
ATOM     25  C   UNL     1     -11.612  -9.773  16.093  0.00  0.00    +0.185 C 
BRANCH  25  26
ATOM     26  C   UNL     1     -11.007  -8.574  15.383  0.00  0.00    +0.021 C 
ATOM     27  C   UNL     1     -11.624  -8.371  14.009  0.00  0.00    +0.005 C 
ENDBRANCH  25  26
ENDBRANCH   1  25
ENDBRANCH   6   1
ENDBRANCH  16   6
ENDBRANCH  10  16
TORSDOF 7
ENDMDL
MODEL 6
REMARK VINA RESULT:      -5.7      4.741      7.976
REMARK  Name = 40779427
REMARK  9 active torsions:
REMARK  status: ('A' for Active; 'I' for Inactive)
REMARK    1  A    between atoms: S_1  and  N_6
REMARK    2  A    between atoms: S_1  and  C_25
REMARK    3  A    between atoms: N_5  and  C_24
REMARK    4  A    between atoms: N_6  and  C_16
REMARK    5  A    between atoms: C_9  and  C_15
REMARK    6  A    between atoms: C_10  and  C_16
REMARK    7  A    between atoms: C_18  and  C_19
REMARK    8  A    between atoms: C_25  and  C_26
REMARK    9  A    between atoms: C_26  and  C_27
REMARK                            x       y       z     vdW  Elec       q    Type
REMARK                         _______ _______ _______ _____ _____    ______ ____
ROOT
ATOM      4  N   UNL     1      -5.248 -10.376  11.263  0.00  0.00    -0.297 NA
ATOM      8  C   UNL     1      -4.418  -8.914   9.274  0.00  0.00    +0.002 C 
ATOM      9  C   UNL     1      -5.476  -9.943   8.788  0.00  0.00    +0.055 C 
ATOM     10  C   UNL     1      -3.762 -10.347  11.239  0.00  0.00    +0.072 C 
ATOM     11  C   UNL     1      -3.252  -9.661   9.953  0.00  0.00    +0.024 C 
ATOM     12  C   UNL     1      -5.769 -10.902   9.978  0.00  0.00    +0.094 C 
ATOM     13  C   UNL     1      -5.101  -8.054  10.361  0.00  0.00    +0.019 C 
ATOM     14  C   UNL     1      -5.727  -8.980  11.419  0.00  0.00    +0.085 C 
ENDROOT
BRANCH   9  15
ATOM      5  N   UNL     1      -5.737 -10.329   6.293  0.00  0.00    -0.271 N 
ATOM      7  N   UNL     1      -5.374 -11.123   5.272  0.00  0.00    -0.176 NA
ATOM     15  C   UNL     1      -5.203 -10.696   7.494  0.00  0.00    +0.044 A 
ATOM     17  C   UNL     1      -4.437 -11.808   7.239  0.00  0.00    +0.048 A 
ATOM     19  C   UNL     1      -4.580 -12.025   5.856  0.00  0.00    +0.066 A 
ATOM     24  C   UNL     1      -6.619  -9.213   6.040  0.00  0.00    +0.172 C 
BRANCH  19  18
ATOM     18  C   UNL     1      -3.950 -13.121   5.026  0.00  0.00    +0.040 C 
ATOM     20  C   UNL     1      -3.070 -12.570   3.891  0.00  0.00    +0.010 C 
ATOM     21  C   UNL     1      -3.049 -14.088   5.822  0.00  0.00    +0.010 C 
ATOM     22  C   UNL     1      -1.919 -13.558   3.780  0.00  0.00    +0.001 C 
ATOM     23  C   UNL     1      -1.654 -13.938   5.226  0.00  0.00    +0.001 C 
ENDBRANCH  19  18
ENDBRANCH   9  15
BRANCH  10  16
ATOM     16  C   UNL     1      -3.150 -11.737  11.425  0.00  0.00    +0.124 C 
BRANCH  16   6
ATOM      6  N   UNL     1      -3.772 -12.389  12.589  0.00  0.00    -0.193 NA
ATOM     28  H   UNL     1      -4.731 -12.089  12.804  0.00  0.00    +0.148 HD
BRANCH   6   1
ATOM      1  S   UNL     1      -2.804 -12.786  13.940  0.00  0.00    +0.029 S 
ATOM      2  O   UNL     1      -1.420 -12.918  13.529  0.00  0.00    -0.158 OA
ATOM      3  O   UNL     1      -3.462 -13.844  14.683  0.00  0.00    -0.158 OA
BRANCH   1  25
ATOM     25  C   UNL     1      -2.952 -11.294  14.896  0.00  0.00    +0.185 C 
BRANCH  25  26
ATOM     26  C   UNL     1      -1.829 -10.321  14.580  0.00  0.00    +0.021 C 
ATOM     27  C   UNL     1      -0.875 -10.172  15.753  0.00  0.00    +0.005 C 
ENDBRANCH  25  26
ENDBRANCH   1  25
ENDBRANCH   6   1
ENDBRANCH  16   6
ENDBRANCH  10  16
TORSDOF 7
ENDMDL
MODEL 7
REMARK VINA RESULT:      -5.6      1.879      2.270
REMARK  Name = 40779427
REMARK  9 active torsions:
REMARK  status: ('A' for Active; 'I' for Inactive)
REMARK    1  A    between atoms: S_1  and  N_6
REMARK    2  A    between atoms: S_1  and  C_25
REMARK    3  A    between atoms: N_5  and  C_24
REMARK    4  A    between atoms: N_6  and  C_16
REMARK    5  A    between atoms: C_9  and  C_15
REMARK    6  A    between atoms: C_10  and  C_16
REMARK    7  A    between atoms: C_18  and  C_19
REMARK    8  A    between atoms: C_25  and  C_26
REMARK    9  A    between atoms: C_26  and  C_27
REMARK                            x       y       z     vdW  Elec       q    Type
REMARK                         _______ _______ _______ _____ _____    ______ ____
ROOT
ATOM      4  N   UNL     1      -4.781 -10.684  17.552  0.00  0.00    -0.297 NA
ATOM      8  C   UNL     1      -5.026 -12.934  16.263  0.00  0.00    +0.002 C 
ATOM      9  C   UNL     1      -3.775 -12.157  15.768  0.00  0.00    +0.055 C 
ATOM     10  C   UNL     1      -6.168 -10.825  17.035  0.00  0.00    +0.072 C 
ATOM     11  C   UNL     1      -6.278 -12.046  16.097  0.00  0.00    +0.024 C 
ATOM     12  C   UNL     1      -3.811 -10.750  16.432  0.00  0.00    +0.094 C 
ATOM     13  C   UNL     1      -4.834 -13.168  17.777  0.00  0.00    +0.019 C 
ATOM     14  C   UNL     1      -4.517 -11.827  18.461  0.00  0.00    +0.085 C 
ENDROOT
BRANCH   9  15
ATOM      5  N   UNL     1      -2.818 -13.027  13.585  0.00  0.00    -0.271 N 
ATOM      7  N   UNL     1      -2.707 -12.776  12.269  0.00  0.00    -0.176 NA
ATOM     15  C   UNL     1      -3.523 -12.081  14.269  0.00  0.00    +0.044 A 
ATOM     17  C   UNL     1      -3.901 -11.146  13.335  0.00  0.00    +0.048 A 
ATOM     19  C   UNL     1      -3.371 -11.626  12.123  0.00  0.00    +0.066 A 
ATOM     24  C   UNL     1      -2.206 -14.217  14.129  0.00  0.00    +0.172 C 
BRANCH  19  18
ATOM     18  C   UNL     1      -3.483 -10.991  10.754  0.00  0.00    +0.040 C 
ATOM     20  C   UNL     1      -4.936 -10.927  10.251  0.00  0.00    +0.010 C 
ATOM     21  C   UNL     1      -2.949  -9.547  10.674  0.00  0.00    +0.010 C 
ATOM     22  C   UNL     1      -5.019  -9.622   9.475  0.00  0.00    +0.001 C 
ATOM     23  C   UNL     1      -4.145  -8.684  10.288  0.00  0.00    +0.001 C 
ENDBRANCH  19  18
ENDBRANCH   9  15
BRANCH  10  16
ATOM     16  C   UNL     1      -6.673  -9.545  16.366  0.00  0.00    +0.124 C 
BRANCH  16   6
ATOM      6  N   UNL     1      -7.736  -8.952  17.195  0.00  0.00    -0.193 NA
ATOM     28  H   UNL     1      -7.666  -9.138  18.203  0.00  0.00    +0.148 HD
BRANCH   6   1
ATOM      1  S   UNL     1      -9.323  -8.852  16.572  0.00  0.00    +0.029 S 
ATOM      2  O   UNL     1      -9.304  -9.087  15.141  0.00  0.00    -0.158 OA
ATOM      3  O   UNL     1      -9.962  -7.672  17.122  0.00  0.00    -0.158 OA
BRANCH   1  25
ATOM     25  C   UNL     1     -10.067 -10.269  17.348  0.00  0.00    +0.185 C 
BRANCH  25  26
ATOM     26  C   UNL     1      -9.457 -10.535  18.714  0.00  0.00    +0.021 C 
ATOM     27  C   UNL     1     -10.494 -10.416  19.819  0.00  0.00    +0.005 C 
ENDBRANCH  25  26
ENDBRANCH   1  25
ENDBRANCH   6   1
ENDBRANCH  16   6
ENDBRANCH  10  16
TORSDOF 7
ENDMDL
MODEL 8
REMARK VINA RESULT:      -5.5     19.048     21.367
REMARK  Name = 40779427
REMARK  9 active torsions:
REMARK  status: ('A' for Active; 'I' for Inactive)
REMARK    1  A    between atoms: S_1  and  N_6
REMARK    2  A    between atoms: S_1  and  C_25
REMARK    3  A    between atoms: N_5  and  C_24
REMARK    4  A    between atoms: N_6  and  C_16
REMARK    5  A    between atoms: C_9  and  C_15
REMARK    6  A    between atoms: C_10  and  C_16
REMARK    7  A    between atoms: C_18  and  C_19
REMARK    8  A    between atoms: C_25  and  C_26
REMARK    9  A    between atoms: C_26  and  C_27
REMARK                            x       y       z     vdW  Elec       q    Type
REMARK                         _______ _______ _______ _____ _____    ______ ____
ROOT
ATOM      4  N   UNL     1      -9.812  10.176  17.030  0.00  0.00    -0.297 NA
ATOM      8  C   UNL     1     -11.987  11.189  18.043  0.00  0.00    +0.002 C 
ATOM      9  C   UNL     1     -11.247  10.323  19.100  0.00  0.00    +0.055 C 
ATOM     10  C   UNL     1     -10.962   9.921  16.123  0.00  0.00    +0.072 C 
ATOM     11  C   UNL     1     -12.289  10.328  16.798  0.00  0.00    +0.024 C 
ATOM     12  C   UNL     1     -10.081   9.596  18.369  0.00  0.00    +0.094 C 
ATOM     13  C   UNL     1     -11.001  12.293  17.603  0.00  0.00    +0.019 C 
ATOM     14  C   UNL     1      -9.671  11.645  17.182  0.00  0.00    +0.085 C 
ENDROOT
BRANCH   9  15
ATOM      5  N   UNL     1     -12.551   9.708  21.189  0.00  0.00    -0.271 N 
ATOM      7  N   UNL     1     -13.256   8.729  21.782  0.00  0.00    -0.176 NA
ATOM     15  C   UNL     1     -12.073   9.373  19.956  0.00  0.00    +0.044 A 
ATOM     17  C   UNL     1     -12.495   8.086  19.726  0.00  0.00    +0.048 A 
ATOM     19  C   UNL     1     -13.219   7.741  20.883  0.00  0.00    +0.066 A 
ATOM     24  C   UNL     1     -12.369  10.963  21.879  0.00  0.00    +0.172 C 
BRANCH  19  18
ATOM     18  C   UNL     1     -13.915   6.431  21.177  0.00  0.00    +0.040 C 
ATOM     20  C   UNL     1     -13.023   5.453  21.964  0.00  0.00    +0.010 C 
ATOM     21  C   UNL     1     -15.213   6.567  22.000  0.00  0.00    +0.010 C 
ATOM     22  C   UNL     1     -13.980   4.719  22.891  0.00  0.00    +0.001 C 
ATOM     23  C   UNL     1     -14.964   5.803  23.296  0.00  0.00    +0.001 C 
ENDBRANCH  19  18
ENDBRANCH   9  15
BRANCH  10  16
ATOM     16  C   UNL     1     -10.998   8.476  15.621  0.00  0.00    +0.124 C 
BRANCH  16   6
ATOM      6  N   UNL     1     -12.397   8.075  15.399  0.00  0.00    -0.193 NA
ATOM     28  H   UNL     1     -12.768   7.379  16.059  0.00  0.00    +0.148 HD
BRANCH   6   1
ATOM      1  S   UNL     1     -12.992   7.965  13.802  0.00  0.00    +0.029 S 
ATOM      2  O   UNL     1     -12.901   6.594  13.338  0.00  0.00    -0.158 OA
ATOM      3  O   UNL     1     -12.427   9.050  13.023  0.00  0.00    -0.158 OA
BRANCH   1  25
ATOM     25  C   UNL     1     -14.710   8.340  14.067  0.00  0.00    +0.185 C 
BRANCH  25  26
ATOM     26  C   UNL     1     -15.360   7.329  14.995  0.00  0.00    +0.021 C 
ATOM     27  C   UNL     1     -15.860   7.986  16.271  0.00  0.00    +0.005 C 
ENDBRANCH  25  26
ENDBRANCH   1  25
ENDBRANCH   6   1
ENDBRANCH  16   6
ENDBRANCH  10  16
TORSDOF 7
ENDMDL
MODEL 9
REMARK VINA RESULT:      -5.5     17.529     21.090
REMARK  Name = 40779427
REMARK  9 active torsions:
REMARK  status: ('A' for Active; 'I' for Inactive)
REMARK    1  A    between atoms: S_1  and  N_6
REMARK    2  A    between atoms: S_1  and  C_25
REMARK    3  A    between atoms: N_5  and  C_24
REMARK    4  A    between atoms: N_6  and  C_16
REMARK    5  A    between atoms: C_9  and  C_15
REMARK    6  A    between atoms: C_10  and  C_16
REMARK    7  A    between atoms: C_18  and  C_19
REMARK    8  A    between atoms: C_25  and  C_26
REMARK    9  A    between atoms: C_26  and  C_27
REMARK                            x       y       z     vdW  Elec       q    Type
REMARK                         _______ _______ _______ _____ _____    ______ ____
ROOT
ATOM      4  N   UNL     1      -0.155 -13.183  -6.962  0.00  0.00    -0.297 NA
ATOM      8  C   UNL     1       2.091 -12.390  -5.907  0.00  0.00    +0.002 C 
ATOM      9  C   UNL     1       2.048 -13.941  -5.992  0.00  0.00    +0.055 C 
ATOM     10  C   UNL     1      -0.422 -12.211  -5.869  0.00  0.00    +0.072 C 
ATOM     11  C   UNL     1       0.876 -11.889  -5.097  0.00  0.00    +0.024 C 
ATOM     12  C   UNL     1       0.611 -14.340  -6.438  0.00  0.00    +0.094 C 
ATOM     13  C   UNL     1       1.925 -11.861  -7.348  0.00  0.00    +0.019 C 
ATOM     14  C   UNL     1       0.678 -12.501  -7.983  0.00  0.00    +0.085 C 
ENDROOT
BRANCH   9  15
ATOM      5  N   UNL     1       2.832 -16.067  -4.849  0.00  0.00    -0.271 N 
ATOM      7  N   UNL     1       3.230 -16.587  -3.675  0.00  0.00    -0.176 NA
ATOM     15  C   UNL     1       2.521 -14.740  -4.787  0.00  0.00    +0.044 A 
ATOM     17  C   UNL     1       2.730 -14.366  -3.481  0.00  0.00    +0.048 A 
ATOM     19  C   UNL     1       3.165 -15.543  -2.844  0.00  0.00    +0.066 A 
ATOM     24  C   UNL     1       2.771 -16.919  -6.013  0.00  0.00    +0.172 C 
BRANCH  19  18
ATOM     18  C   UNL     1       3.544 -15.717  -1.389  0.00  0.00    +0.040 C 
ATOM     20  C   UNL     1       4.795 -16.594  -1.206  0.00  0.00    +0.010 C 
ATOM     21  C   UNL     1       3.844 -14.399  -0.645  0.00  0.00    +0.010 C 
ATOM     22  C   UNL     1       5.522 -15.986  -0.016  0.00  0.00    +0.001 C 
ATOM     23  C   UNL     1       5.301 -14.496  -0.204  0.00  0.00    +0.001 C 
ENDBRANCH  19  18
ENDBRANCH   9  15
BRANCH  10  16
ATOM     16  C   UNL     1      -1.539 -12.679  -4.934  0.00  0.00    +0.124 C 
BRANCH  16   6
ATOM      6  N   UNL     1      -0.975 -12.943  -3.600  0.00  0.00    -0.193 NA
ATOM     28  H   UNL     1       0.009 -12.674  -3.473  0.00  0.00    +0.148 HD
BRANCH   6   1
ATOM      1  S   UNL     1      -1.472 -14.336  -2.744  0.00  0.00    +0.029 S 
ATOM      2  O   UNL     1      -0.534 -15.416  -2.978  0.00  0.00    -0.158 OA
ATOM      3  O   UNL     1      -2.894 -14.527  -2.961  0.00  0.00    -0.158 OA
BRANCH   1  25
ATOM     25  C   UNL     1      -1.261 -13.780  -1.068  0.00  0.00    +0.185 C 
BRANCH  25  26
ATOM     26  C   UNL     1       0.184 -13.913  -0.619  0.00  0.00    +0.021 C 
ATOM     27  C   UNL     1       0.324 -14.915   0.514  0.00  0.00    +0.005 C 
ENDBRANCH  25  26
ENDBRANCH   1  25
ENDBRANCH   6   1
ENDBRANCH  16   6
ENDBRANCH  10  16
TORSDOF 7
ENDMDL
MODEL 10
REMARK VINA RESULT:      -5.4      3.545      6.431
REMARK  Name = 40779427
REMARK  9 active torsions:
REMARK  status: ('A' for Active; 'I' for Inactive)
REMARK    1  A    between atoms: S_1  and  N_6
REMARK    2  A    between atoms: S_1  and  C_25
REMARK    3  A    between atoms: N_5  and  C_24
REMARK    4  A    between atoms: N_6  and  C_16
REMARK    5  A    between atoms: C_9  and  C_15
REMARK    6  A    between atoms: C_10  and  C_16
REMARK    7  A    between atoms: C_18  and  C_19
REMARK    8  A    between atoms: C_25  and  C_26
REMARK    9  A    between atoms: C_26  and  C_27
REMARK                            x       y       z     vdW  Elec       q    Type
REMARK                         _______ _______ _______ _____ _____    ______ ____
ROOT
ATOM      4  N   UNL     1     -11.954  -9.030  16.087  0.00  0.00    -0.297 NA
ATOM      8  C   UNL     1      -9.879  -7.458  16.161  0.00  0.00    +0.002 C 
ATOM      9  C   UNL     1      -9.585  -8.706  15.283  0.00  0.00    +0.055 C 
ATOM     10  C   UNL     1     -11.638  -8.673  17.495  0.00  0.00    +0.072 C 
ATOM     11  C   UNL     1     -10.295  -7.915  17.575  0.00  0.00    +0.024 C 
ATOM     12  C   UNL     1     -10.784  -9.684  15.451  0.00  0.00    +0.094 C 
ATOM     13  C   UNL     1     -11.102  -6.752  15.535  0.00  0.00    +0.019 C 
ATOM     14  C   UNL     1     -12.238  -7.773  15.352  0.00  0.00    +0.085 C 
ENDROOT
BRANCH   9  15
ATOM      5  N   UNL     1      -7.572  -9.986  14.418  0.00  0.00    -0.271 N 
ATOM      7  N   UNL     1      -6.405 -10.549  14.777  0.00  0.00    -0.176 NA
ATOM     15  C   UNL     1      -8.243  -9.403  15.452  0.00  0.00    +0.044 A 
ATOM     17  C   UNL     1      -7.460  -9.598  16.565  0.00  0.00    +0.048 A 
ATOM     19  C   UNL     1      -6.343 -10.308  16.089  0.00  0.00    +0.066 A 
ATOM     24  C   UNL     1      -7.990 -10.049  13.037  0.00  0.00    +0.172 C 
BRANCH  19  18
ATOM     18  C   UNL     1      -5.151 -10.791  16.886  0.00  0.00    +0.040 C 
ATOM     20  C   UNL     1      -5.320 -10.560  18.398  0.00  0.00    +0.010 C 
ATOM     21  C   UNL     1      -4.839 -12.293  16.724  0.00  0.00    +0.010 C 
ATOM     22  C   UNL     1      -4.646 -11.758  19.049  0.00  0.00    +0.001 C 
ATOM     23  C   UNL     1      -4.999 -12.901  18.113  0.00  0.00    +0.001 C 
ENDBRANCH  19  18
ENDBRANCH   9  15
BRANCH  10  16
ATOM     16  C   UNL     1     -11.662  -9.889  18.424  0.00  0.00    +0.124 C 
BRANCH  16   6
ATOM      6  N   UNL     1     -10.479  -9.853  19.299  0.00  0.00    -0.193 NA
ATOM     28  H   UNL     1      -9.889  -9.015  19.213  0.00  0.00    +0.148 HD
BRANCH   6   1
ATOM      1  S   UNL     1      -9.648 -11.306  19.639  0.00  0.00    +0.029 S 
ATOM      2  O   UNL     1     -10.449 -12.134  20.520  0.00  0.00    -0.158 OA
ATOM      3  O   UNL     1      -8.273 -10.985  19.970  0.00  0.00    -0.158 OA
BRANCH   1  25
ATOM     25  C   UNL     1      -9.644 -12.063  18.030  0.00  0.00    +0.185 C 
BRANCH  25  26
ATOM     26  C   UNL     1      -9.836 -13.567  18.126  0.00  0.00    +0.021 C 
ATOM     27  C   UNL     1      -8.505 -14.293  18.230  0.00  0.00    +0.005 C 
ENDBRANCH  25  26
ENDBRANCH   1  25
ENDBRANCH   6   1
ENDBRANCH  16   6
ENDBRANCH  10  16
TORSDOF 7
ENDMDL
