MODEL 1
REMARK VINA RESULT:      -7.2      0.000      0.000
REMARK  Name = 40779229
REMARK  14 active torsions:
REMARK  status: ('A' for Active; 'I' for Inactive)
REMARK    1  A    between atoms: S_1  and  N_8
REMARK    2  A    between atoms: S_1  and  C_24
REMARK    3  A    between atoms: O_4  and  C_27
REMARK    4  A    between atoms: O_4  and  C_35
REMARK    5  A    between atoms: O_5  and  C_31
REMARK    6  A    between atoms: O_5  and  C_38
REMARK    7  A    between atoms: N_7  and  C_22
REMARK    8  A    between atoms: N_8  and  C_18
REMARK    9  A    between atoms: N_10  and  C_33
REMARK   10  A    between atoms: N_10  and  C_36
REMARK   11  A    between atoms: N_10  and  C_37
REMARK   12  A    between atoms: C_12  and  C_19
REMARK   13  A    between atoms: C_13  and  C_18
REMARK   14  A    between atoms: C_21  and  C_23
REMARK                            x       y       z     vdW  Elec       q    Type
REMARK                         _______ _______ _______ _____ _____    ______ ____
ROOT
ATOM      6  N   UNL     1      -5.498 -12.744  17.124  0.00  0.00    -0.297 NA
ATOM     11  C   UNL     1      -5.755 -10.494  18.411  0.00  0.00    +0.002 C 
ATOM     12  C   UNL     1      -7.121 -11.229  18.323  0.00  0.00    +0.055 C 
ATOM     13  C   UNL     1      -4.881 -11.640  16.345  0.00  0.00    +0.072 C 
ATOM     14  C   UNL     1      -5.202 -10.273  16.987  0.00  0.00    +0.024 C 
ATOM     15  C   UNL     1      -4.781 -11.450  19.132  0.00  0.00    +0.019 C 
ATOM     16  C   UNL     1      -6.931 -12.450  17.377  0.00  0.00    +0.094 C 
ATOM     17  C   UNL     1      -4.804 -12.820  18.433  0.00  0.00    +0.085 C 
ENDROOT
BRANCH  12  19
ATOM      7  N   UNL     1      -9.484 -10.402  18.736  0.00  0.00    -0.270 N 
ATOM      9  N   UNL     1     -10.463  -9.617  18.252  0.00  0.00    -0.171 NA
ATOM     19  C   UNL     1      -8.357 -10.413  17.970  0.00  0.00    +0.044 A 
ATOM     20  C   UNL     1      -8.613  -9.577  16.911  0.00  0.00    +0.053 A 
ATOM     21  C   UNL     1      -9.925  -9.116  17.136  0.00  0.00    +0.093 A 
ATOM     22  C   UNL     1      -9.707 -11.130  19.964  0.00  0.00    +0.172 C 
BRANCH  21  23
ATOM     23  C   UNL     1     -10.673  -8.208  16.307  0.00  0.00    +0.002 A 
ATOM     25  C   UNL     1     -10.865  -6.889  16.713  0.00  0.00    +0.012 A 
ATOM     26  C   UNL     1     -11.204  -8.650  15.094  0.00  0.00    +0.012 A 
ATOM     29  C   UNL     1     -11.589  -6.009  15.908  0.00  0.00    +0.024 A 
ATOM     30  C   UNL     1     -11.928  -7.770  14.289  0.00  0.00    +0.024 A 
ATOM     33  C   UNL     1     -12.121  -6.450  14.696  0.00  0.00    +0.029 A 
BRANCH  33  10
ATOM     10  N   UNL     1     -12.852  -5.560  13.882  0.00  0.00    -0.336 N 
ATOM     36  C   UNL     1     -12.165  -4.607  13.034  0.00  0.00    +0.129 C 
ATOM     37  C   UNL     1     -14.301  -5.593  13.877  0.00  0.00    +0.129 C 
ENDBRANCH  33  10
ENDBRANCH  21  23
ENDBRANCH  12  19
BRANCH  13  18
ATOM     18  C   UNL     1      -5.272 -11.682  14.866  0.00  0.00    +0.124 C 
BRANCH  18   8
ATOM      8  N   UNL     1      -4.600 -12.821  14.220  0.00  0.00    -0.188 NA
ATOM     39  H   UNL     1      -3.975 -13.410  14.782  0.00  0.00    +0.148 HD
BRANCH   8   1
ATOM      1  S   UNL     1      -4.665 -13.008  12.528  0.00  0.00    +0.062 S 
ATOM      2  O   UNL     1      -6.020 -12.767  12.072  0.00  0.00    -0.153 OA
ATOM      3  O   UNL     1      -3.976 -14.229  12.158  0.00  0.00    -0.153 OA
BRANCH   1  24
ATOM     24  C   UNL     1      -3.658 -11.661  11.980  0.00  0.00    +0.150 A 
ATOM     27  C   UNL     1      -2.425 -11.401  12.577  0.00  0.00    +0.147 A 
ATOM     28  C   UNL     1      -4.113 -10.854  10.937  0.00  0.00    +0.077 A 
ATOM     31  C   UNL     1      -3.333  -9.787  10.491  0.00  0.00    +0.122 A 
ATOM     32  C   UNL     1      -1.646 -10.333  12.131  0.00  0.00    +0.051 A 
ATOM     34  C   UNL     1      -2.100  -9.526  11.089  0.00  0.00    +0.049 A 
BRANCH  27   4
ATOM      4  O   UNL     1      -1.961 -12.175  13.597  0.00  0.00    -0.493 OA
ATOM     35  C   UNL     1      -1.457 -11.498  14.747  0.00  0.00    +0.277 C 
ENDBRANCH  27   4
BRANCH  31   5
ATOM      5  O   UNL     1      -3.776  -8.999   9.473  0.00  0.00    -0.495 OA
ATOM     38  C   UNL     1      -4.777  -9.547   8.615  0.00  0.00    +0.277 C 
ENDBRANCH  31   5
ENDBRANCH   1  24
ENDBRANCH   8   1
ENDBRANCH  18   8
ENDBRANCH  13  18
TORSDOF 9
ENDMDL
MODEL 2
REMARK VINA RESULT:      -7.1      2.718      5.030
REMARK  Name = 40779229
REMARK  14 active torsions:
REMARK  status: ('A' for Active; 'I' for Inactive)
REMARK    1  A    between atoms: S_1  and  N_8
REMARK    2  A    between atoms: S_1  and  C_24
REMARK    3  A    between atoms: O_4  and  C_27
REMARK    4  A    between atoms: O_4  and  C_35
REMARK    5  A    between atoms: O_5  and  C_31
REMARK    6  A    between atoms: O_5  and  C_38
REMARK    7  A    between atoms: N_7  and  C_22
REMARK    8  A    between atoms: N_8  and  C_18
REMARK    9  A    between atoms: N_10  and  C_33
REMARK   10  A    between atoms: N_10  and  C_36
REMARK   11  A    between atoms: N_10  and  C_37
REMARK   12  A    between atoms: C_12  and  C_19
REMARK   13  A    between atoms: C_13  and  C_18
REMARK   14  A    between atoms: C_21  and  C_23
REMARK                            x       y       z     vdW  Elec       q    Type
REMARK                         _______ _______ _______ _____ _____    ______ ____
ROOT
ATOM      6  N   UNL     1      -6.440 -12.716  18.599  0.00  0.00    -0.297 NA
ATOM     11  C   UNL     1      -5.560 -10.390  17.827  0.00  0.00    +0.002 C 
ATOM     12  C   UNL     1      -6.993 -10.638  17.279  0.00  0.00    +0.055 C 
ATOM     13  C   UNL     1      -5.083 -12.857  18.009  0.00  0.00    +0.072 C 
ATOM     14  C   UNL     1      -4.631 -11.531  17.361  0.00  0.00    +0.024 C 
ATOM     15  C   UNL     1      -5.650 -10.479  19.365  0.00  0.00    +0.019 C 
ATOM     16  C   UNL     1      -7.366 -12.112  17.608  0.00  0.00    +0.094 C 
ATOM     17  C   UNL     1      -6.339 -11.797  19.758  0.00  0.00    +0.085 C 
ENDROOT
BRANCH  12  19
ATOM      7  N   UNL     1      -8.435  -9.674  15.427  0.00  0.00    -0.270 N 
ATOM      9  N   UNL     1      -8.495  -9.443  14.104  0.00  0.00    -0.171 NA
ATOM     19  C   UNL     1      -7.281 -10.280  15.828  0.00  0.00    +0.044 A 
ATOM     20  C   UNL     1      -6.533 -10.455  14.689  0.00  0.00    +0.053 A 
ATOM     21  C   UNL     1      -7.331  -9.923  13.659  0.00  0.00    +0.093 A 
ATOM     22  C   UNL     1      -9.546  -9.283  16.263  0.00  0.00    +0.172 C 
BRANCH  21  23
ATOM     23  C   UNL     1      -7.002  -9.864  12.258  0.00  0.00    +0.002 A 
ATOM     25  C   UNL     1      -7.517 -10.817  11.380  0.00  0.00    +0.012 A 
ATOM     26  C   UNL     1      -6.169  -8.852  11.780  0.00  0.00    +0.012 A 
ATOM     29  C   UNL     1      -7.199 -10.759  10.023  0.00  0.00    +0.024 A 
ATOM     30  C   UNL     1      -5.851  -8.795  10.423  0.00  0.00    +0.024 A 
ATOM     33  C   UNL     1      -6.366  -9.748   9.544  0.00  0.00    +0.029 A 
BRANCH  33  10
ATOM     10  N   UNL     1      -6.045  -9.690   8.173  0.00  0.00    -0.336 N 
ATOM     36  C   UNL     1      -6.920  -9.006   7.242  0.00  0.00    +0.129 C 
ATOM     37  C   UNL     1      -4.831 -10.306   7.676  0.00  0.00    +0.129 C 
ENDBRANCH  33  10
ENDBRANCH  21  23
ENDBRANCH  12  19
BRANCH  13  18
ATOM     18  C   UNL     1      -4.991 -14.031  17.032  0.00  0.00    +0.124 C 
BRANCH  18   8
ATOM      8  N   UNL     1      -4.082 -13.674  15.930  0.00  0.00    -0.188 NA
ATOM     39  H   UNL     1      -3.242 -13.124  16.142  0.00  0.00    +0.148 HD
BRANCH   8   1
ATOM      1  S   UNL     1      -4.543 -13.951  14.314  0.00  0.00    +0.062 S 
ATOM      2  O   UNL     1      -5.977 -13.774  14.189  0.00  0.00    -0.153 OA
ATOM      3  O   UNL     1      -3.915 -15.170  13.844  0.00  0.00    -0.153 OA
BRANCH   1  24
ATOM     24  C   UNL     1      -3.754 -12.607  13.480  0.00  0.00    +0.150 A 
ATOM     27  C   UNL     1      -3.968 -12.384  12.120  0.00  0.00    +0.147 A 
ATOM     28  C   UNL     1      -2.906 -11.765  14.200  0.00  0.00    +0.077 A 
ATOM     31  C   UNL     1      -2.274 -10.699  13.559  0.00  0.00    +0.122 A 
ATOM     32  C   UNL     1      -3.335 -11.319  11.480  0.00  0.00    +0.051 A 
ATOM     34  C   UNL     1      -2.488 -10.477  12.199  0.00  0.00    +0.049 A 
BRANCH  27   4
ATOM      4  O   UNL     1      -4.790 -13.194  11.396  0.00  0.00    -0.493 OA
ATOM     35  C   UNL     1      -4.535 -13.293   9.997  0.00  0.00    +0.277 C 
ENDBRANCH  27   4
BRANCH  31   5
ATOM      5  O   UNL     1      -1.447  -9.877  14.262  0.00  0.00    -0.495 OA
ATOM     38  C   UNL     1      -1.106 -10.277  15.589  0.00  0.00    +0.277 C 
ENDBRANCH  31   5
ENDBRANCH   1  24
ENDBRANCH   8   1
ENDBRANCH  18   8
ENDBRANCH  13  18
TORSDOF 9
ENDMDL
MODEL 3
REMARK VINA RESULT:      -7.1      2.542      4.272
REMARK  Name = 40779229
REMARK  14 active torsions:
REMARK  status: ('A' for Active; 'I' for Inactive)
REMARK    1  A    between atoms: S_1  and  N_8
REMARK    2  A    between atoms: S_1  and  C_24
REMARK    3  A    between atoms: O_4  and  C_27
REMARK    4  A    between atoms: O_4  and  C_35
REMARK    5  A    between atoms: O_5  and  C_31
REMARK    6  A    between atoms: O_5  and  C_38
REMARK    7  A    between atoms: N_7  and  C_22
REMARK    8  A    between atoms: N_8  and  C_18
REMARK    9  A    between atoms: N_10  and  C_33
REMARK   10  A    between atoms: N_10  and  C_36
REMARK   11  A    between atoms: N_10  and  C_37
REMARK   12  A    between atoms: C_12  and  C_19
REMARK   13  A    between atoms: C_13  and  C_18
REMARK   14  A    between atoms: C_21  and  C_23
REMARK                            x       y       z     vdW  Elec       q    Type
REMARK                         _______ _______ _______ _____ _____    ______ ____
ROOT
ATOM      6  N   UNL     1      -6.478 -12.873  18.217  0.00  0.00    -0.297 NA
ATOM     11  C   UNL     1      -5.999 -10.346  17.806  0.00  0.00    +0.002 C 
ATOM     12  C   UNL     1      -7.371 -10.745  17.196  0.00  0.00    +0.055 C 
ATOM     13  C   UNL     1      -5.117 -12.700  17.645  0.00  0.00    +0.072 C 
ATOM     14  C   UNL     1      -4.893 -11.238  17.204  0.00  0.00    +0.024 C 
ATOM     15  C   UNL     1      -6.072 -10.671  19.314  0.00  0.00    +0.019 C 
ATOM     16  C   UNL     1      -7.493 -12.292  17.301  0.00  0.00    +0.094 C 
ATOM     17  C   UNL     1      -6.531 -12.127  19.497  0.00  0.00    +0.085 C 
ENDROOT
BRANCH  12  19
ATOM      7  N   UNL     1      -8.856  -9.536  15.531  0.00  0.00    -0.270 N 
ATOM      9  N   UNL     1      -8.974  -9.173  14.242  0.00  0.00    -0.171 NA
ATOM     19  C   UNL     1      -7.716 -10.233  15.805  0.00  0.00    +0.044 A 
ATOM     20  C   UNL     1      -7.041 -10.332  14.613  0.00  0.00    +0.053 A 
ATOM     21  C   UNL     1      -7.863  -9.663  13.686  0.00  0.00    +0.093 A 
ATOM     22  C   UNL     1      -9.898  -9.175  16.464  0.00  0.00    +0.172 C 
BRANCH  21  23
ATOM     23  C   UNL     1      -7.606  -9.483  12.281  0.00  0.00    +0.002 A 
ATOM     25  C   UNL     1      -8.587  -9.809  11.345  0.00  0.00    +0.012 A 
ATOM     26  C   UNL     1      -6.376  -8.980  11.856  0.00  0.00    +0.012 A 
ATOM     29  C   UNL     1      -8.339  -9.634   9.984  0.00  0.00    +0.024 A 
ATOM     30  C   UNL     1      -6.127  -8.805  10.495  0.00  0.00    +0.024 A 
ATOM     33  C   UNL     1      -7.109  -9.132   9.558  0.00  0.00    +0.029 A 
BRANCH  33  10
ATOM     10  N   UNL     1      -6.857  -8.955   8.182  0.00  0.00    -0.336 N 
ATOM     36  C   UNL     1      -5.774  -9.667   7.536  0.00  0.00    +0.129 C 
ATOM     37  C   UNL     1      -7.685  -8.063   7.394  0.00  0.00    +0.129 C 
ENDBRANCH  33  10
ENDBRANCH  21  23
ENDBRANCH  12  19
BRANCH  13  18
ATOM     18  C   UNL     1      -4.832 -13.688  16.512  0.00  0.00    +0.124 C 
BRANCH  18   8
ATOM      8  N   UNL     1      -3.724 -13.175  15.689  0.00  0.00    -0.188 NA
ATOM     39  H   UNL     1      -3.292 -12.280  15.946  0.00  0.00    +0.148 HD
BRANCH   8   1
ATOM      1  S   UNL     1      -3.338 -13.922  14.208  0.00  0.00    +0.062 S 
ATOM      2  O   UNL     1      -4.524 -14.562  13.672  0.00  0.00    -0.153 OA
ATOM      3  O   UNL     1      -2.110 -14.677  14.364  0.00  0.00    -0.153 OA
BRANCH   1  24
ATOM     24  C   UNL     1      -2.963 -12.527  13.189  0.00  0.00    +0.150 A 
ATOM     27  C   UNL     1      -2.124 -11.511  13.647  0.00  0.00    +0.147 A 
ATOM     28  C   UNL     1      -3.518 -12.451  11.912  0.00  0.00    +0.077 A 
ATOM     31  C   UNL     1      -3.234 -11.358  11.092  0.00  0.00    +0.122 A 
ATOM     32  C   UNL     1      -1.841 -10.419  12.829  0.00  0.00    +0.051 A 
ATOM     34  C   UNL     1      -2.396 -10.341  11.551  0.00  0.00    +0.049 A 
BRANCH  27   4
ATOM      4  O   UNL     1      -1.571 -11.564  14.891  0.00  0.00    -0.493 OA
ATOM     35  C   UNL     1      -1.417 -10.328  15.585  0.00  0.00    +0.277 C 
ENDBRANCH  27   4
BRANCH  31   5
ATOM      5  O   UNL     1      -3.776 -11.282   9.846  0.00  0.00    -0.495 OA
ATOM     38  C   UNL     1      -4.082 -12.515   9.195  0.00  0.00    +0.277 C 
ENDBRANCH  31   5
ENDBRANCH   1  24
ENDBRANCH   8   1
ENDBRANCH  18   8
ENDBRANCH  13  18
TORSDOF 9
ENDMDL
MODEL 4
REMARK VINA RESULT:      -7.1      3.174      3.715
REMARK  Name = 40779229
REMARK  14 active torsions:
REMARK  status: ('A' for Active; 'I' for Inactive)
REMARK    1  A    between atoms: S_1  and  N_8
REMARK    2  A    between atoms: S_1  and  C_24
REMARK    3  A    between atoms: O_4  and  C_27
REMARK    4  A    between atoms: O_4  and  C_35
REMARK    5  A    between atoms: O_5  and  C_31
REMARK    6  A    between atoms: O_5  and  C_38
REMARK    7  A    between atoms: N_7  and  C_22
REMARK    8  A    between atoms: N_8  and  C_18
REMARK    9  A    between atoms: N_10  and  C_33
REMARK   10  A    between atoms: N_10  and  C_36
REMARK   11  A    between atoms: N_10  and  C_37
REMARK   12  A    between atoms: C_12  and  C_19
REMARK   13  A    between atoms: C_13  and  C_18
REMARK   14  A    between atoms: C_21  and  C_23
REMARK                            x       y       z     vdW  Elec       q    Type
REMARK                         _______ _______ _______ _____ _____    ______ ____
ROOT
ATOM      6  N   UNL     1      -5.728 -11.922  17.387  0.00  0.00    -0.297 NA
ATOM     11  C   UNL     1      -6.283 -11.378  19.873  0.00  0.00    +0.002 C 
ATOM     12  C   UNL     1      -7.295 -12.410  19.303  0.00  0.00    +0.055 C 
ATOM     13  C   UNL     1      -5.773 -10.450  17.587  0.00  0.00    +0.072 C 
ATOM     14  C   UNL     1      -6.301 -10.107  18.996  0.00  0.00    +0.024 C 
ATOM     15  C   UNL     1      -4.880 -12.006  19.731  0.00  0.00    +0.019 C 
ATOM     16  C   UNL     1      -7.026 -12.529  17.776  0.00  0.00    +0.094 C 
ATOM     17  C   UNL     1      -4.676 -12.470  18.278  0.00  0.00    +0.085 C 
ENDROOT
BRANCH  12  19
ATOM      7  N   UNL     1      -9.500 -13.105  20.351  0.00  0.00    -0.270 N 
ATOM      9  N   UNL     1     -10.787 -12.751  20.513  0.00  0.00    -0.171 NA
ATOM     19  C   UNL     1      -8.773 -12.216  19.615  0.00  0.00    +0.044 A 
ATOM     20  C   UNL     1      -9.643 -11.211  19.273  0.00  0.00    +0.053 A 
ATOM     21  C   UNL     1     -10.868 -11.593  19.852  0.00  0.00    +0.093 A 
ATOM     22  C   UNL     1      -9.027 -14.337  20.939  0.00  0.00    +0.172 C 
BRANCH  21  23
ATOM     23  C   UNL     1     -12.114 -10.875  19.784  0.00  0.00    +0.002 A 
ATOM     25  C   UNL     1     -12.921 -10.770  20.916  0.00  0.00    +0.012 A 
ATOM     26  C   UNL     1     -12.512 -10.282  18.586  0.00  0.00    +0.012 A 
ATOM     29  C   UNL     1     -14.128 -10.073  20.851  0.00  0.00    +0.024 A 
ATOM     30  C   UNL     1     -13.718  -9.584  18.520  0.00  0.00    +0.024 A 
ATOM     33  C   UNL     1     -14.527  -9.480  19.653  0.00  0.00    +0.029 A 
BRANCH  33  10
ATOM     10  N   UNL     1     -15.746  -8.775  19.587  0.00  0.00    -0.336 N 
ATOM     36  C   UNL     1     -16.371  -8.275  20.795  0.00  0.00    +0.129 C 
ATOM     37  C   UNL     1     -16.386  -8.534  18.309  0.00  0.00    +0.129 C 
ENDBRANCH  33  10
ENDBRANCH  21  23
ENDBRANCH  12  19
BRANCH  13  18
ATOM     18  C   UNL     1      -6.569  -9.738  16.491  0.00  0.00    +0.124 C 
BRANCH  18   8
ATOM      8  N   UNL     1      -5.705  -9.545  15.314  0.00  0.00    -0.188 NA
ATOM     39  H   UNL     1      -4.975  -8.825  15.350  0.00  0.00    +0.148 HD
BRANCH   8   1
ATOM      1  S   UNL     1      -6.072 -10.324  13.844  0.00  0.00    +0.062 S 
ATOM      2  O   UNL     1      -6.987  -9.498  13.081  0.00  0.00    -0.153 OA
ATOM      3  O   UNL     1      -6.392 -11.713  14.110  0.00  0.00    -0.153 OA
BRANCH   1  24
ATOM     24  C   UNL     1      -4.505 -10.301  13.025  0.00  0.00    +0.150 A 
ATOM     27  C   UNL     1      -3.348 -10.717  13.683  0.00  0.00    +0.147 A 
ATOM     28  C   UNL     1      -4.436  -9.860  11.704  0.00  0.00    +0.077 A 
ATOM     31  C   UNL     1      -3.209  -9.835  11.040  0.00  0.00    +0.122 A 
ATOM     32  C   UNL     1      -2.121 -10.690  13.021  0.00  0.00    +0.051 A 
ATOM     34  C   UNL     1      -2.052 -10.250  11.699  0.00  0.00    +0.049 A 
BRANCH  27   4
ATOM      4  O   UNL     1      -3.391 -11.151  14.974  0.00  0.00    -0.493 OA
ATOM     35  C   UNL     1      -2.348 -10.710  15.841  0.00  0.00    +0.277 C 
ENDBRANCH  27   4
BRANCH  31   5
ATOM      5  O   UNL     1      -3.141  -9.403   9.751  0.00  0.00    -0.495 OA
ATOM     38  C   UNL     1      -4.357  -8.960   9.149  0.00  0.00    +0.277 C 
ENDBRANCH  31   5
ENDBRANCH   1  24
ENDBRANCH   8   1
ENDBRANCH  18   8
ENDBRANCH  13  18
TORSDOF 9
ENDMDL
MODEL 5
REMARK VINA RESULT:      -7.0      1.450      2.854
REMARK  Name = 40779229
REMARK  14 active torsions:
REMARK  status: ('A' for Active; 'I' for Inactive)
REMARK    1  A    between atoms: S_1  and  N_8
REMARK    2  A    between atoms: S_1  and  C_24
REMARK    3  A    between atoms: O_4  and  C_27
REMARK    4  A    between atoms: O_4  and  C_35
REMARK    5  A    between atoms: O_5  and  C_31
REMARK    6  A    between atoms: O_5  and  C_38
REMARK    7  A    between atoms: N_7  and  C_22
REMARK    8  A    between atoms: N_8  and  C_18
REMARK    9  A    between atoms: N_10  and  C_33
REMARK   10  A    between atoms: N_10  and  C_36
REMARK   11  A    between atoms: N_10  and  C_37
REMARK   12  A    between atoms: C_12  and  C_19
REMARK   13  A    between atoms: C_13  and  C_18
REMARK   14  A    between atoms: C_21  and  C_23
REMARK                            x       y       z     vdW  Elec       q    Type
REMARK                         _______ _______ _______ _____ _____    ______ ____
ROOT
ATOM      6  N   UNL     1      -5.131 -12.644  17.096  0.00  0.00    -0.297 NA
ATOM     11  C   UNL     1      -5.668 -10.676  18.716  0.00  0.00    +0.002 C 
ATOM     12  C   UNL     1      -6.966 -11.447  18.348  0.00  0.00    +0.055 C 
ATOM     13  C   UNL     1      -4.511 -11.390  16.595  0.00  0.00    +0.072 C 
ATOM     14  C   UNL     1      -4.987 -10.177  17.423  0.00  0.00    +0.024 C 
ATOM     15  C   UNL     1      -4.712 -11.699  19.366  0.00  0.00    +0.019 C 
ATOM     16  C   UNL     1      -6.598 -12.468  17.233  0.00  0.00    +0.094 C 
ATOM     17  C   UNL     1      -4.572 -12.921  18.442  0.00  0.00    +0.085 C 
ENDROOT
BRANCH  12  19
ATOM      7  N   UNL     1      -9.351 -10.679  18.749  0.00  0.00    -0.270 N 
ATOM      9  N   UNL     1     -10.335  -9.894  18.277  0.00  0.00    -0.171 NA
ATOM     19  C   UNL     1      -8.209 -10.639  18.004  0.00  0.00    +0.044 A 
ATOM     20  C   UNL     1      -8.462  -9.766  16.975  0.00  0.00    +0.053 A 
ATOM     21  C   UNL     1      -9.786  -9.338  17.193  0.00  0.00    +0.093 A 
ATOM     22  C   UNL     1      -9.582 -11.460  19.942  0.00  0.00    +0.172 C 
BRANCH  21  23
ATOM     23  C   UNL     1     -10.536  -8.411  16.386  0.00  0.00    +0.002 A 
ATOM     25  C   UNL     1     -10.616  -7.070  16.757  0.00  0.00    +0.012 A 
ATOM     26  C   UNL     1     -11.180  -8.856  15.231  0.00  0.00    +0.012 A 
ATOM     29  C   UNL     1     -11.342  -6.172  15.974  0.00  0.00    +0.024 A 
ATOM     30  C   UNL     1     -11.905  -7.958  14.448  0.00  0.00    +0.024 A 
ATOM     33  C   UNL     1     -11.987  -6.616  14.820  0.00  0.00    +0.029 A 
BRANCH  33  10
ATOM     10  N   UNL     1     -12.719  -5.708  14.029  0.00  0.00    -0.336 N 
ATOM     36  C   UNL     1     -14.165  -5.791  13.963  0.00  0.00    +0.129 C 
ATOM     37  C   UNL     1     -12.038  -4.674  13.276  0.00  0.00    +0.129 C 
ENDBRANCH  33  10
ENDBRANCH  21  23
ENDBRANCH  12  19
BRANCH  13  18
ATOM     18  C   UNL     1      -4.744 -11.185  15.096  0.00  0.00    +0.124 C 
BRANCH  18   8
ATOM      8  N   UNL     1      -3.699 -10.296  14.561  0.00  0.00    -0.188 NA
ATOM     39  H   UNL     1      -3.922  -9.305  14.414  0.00  0.00    +0.148 HD
BRANCH   8   1
ATOM      1  S   UNL     1      -2.240 -10.947  13.970  0.00  0.00    +0.062 S 
ATOM      2  O   UNL     1      -1.653 -11.802  14.983  0.00  0.00    -0.153 OA
ATOM      3  O   UNL     1      -1.458  -9.886  13.366  0.00  0.00    -0.153 OA
BRANCH   1  24
ATOM     24  C   UNL     1      -2.815 -11.978  12.654  0.00  0.00    +0.150 A 
ATOM     27  C   UNL     1      -3.515 -11.438  11.575  0.00  0.00    +0.147 A 
ATOM     28  C   UNL     1      -2.560 -13.349  12.704  0.00  0.00    +0.077 A 
ATOM     31  C   UNL     1      -3.006 -14.179  11.675  0.00  0.00    +0.122 A 
ATOM     32  C   UNL     1      -3.961 -12.268  10.547  0.00  0.00    +0.051 A 
ATOM     34  C   UNL     1      -3.707 -13.638  10.597  0.00  0.00    +0.049 A 
BRANCH  27   4
ATOM      4  O   UNL     1      -3.776 -10.103  11.505  0.00  0.00    -0.493 OA
ATOM     35  C   UNL     1      -3.332  -9.416  10.337  0.00  0.00    +0.277 C 
ENDBRANCH  27   4
BRANCH  31   5
ATOM      5  O   UNL     1      -2.758 -15.517  11.724  0.00  0.00    -0.495 OA
ATOM     38  C   UNL     1      -1.464 -15.922  12.168  0.00  0.00    +0.277 C 
ENDBRANCH  31   5
ENDBRANCH   1  24
ENDBRANCH   8   1
ENDBRANCH  18   8
ENDBRANCH  13  18
TORSDOF 9
ENDMDL
MODEL 6
REMARK VINA RESULT:      -7.0      1.589      2.831
REMARK  Name = 40779229
REMARK  14 active torsions:
REMARK  status: ('A' for Active; 'I' for Inactive)
REMARK    1  A    between atoms: S_1  and  N_8
REMARK    2  A    between atoms: S_1  and  C_24
REMARK    3  A    between atoms: O_4  and  C_27
REMARK    4  A    between atoms: O_4  and  C_35
REMARK    5  A    between atoms: O_5  and  C_31
REMARK    6  A    between atoms: O_5  and  C_38
REMARK    7  A    between atoms: N_7  and  C_22
REMARK    8  A    between atoms: N_8  and  C_18
REMARK    9  A    between atoms: N_10  and  C_33
REMARK   10  A    between atoms: N_10  and  C_36
REMARK   11  A    between atoms: N_10  and  C_37
REMARK   12  A    between atoms: C_12  and  C_19
REMARK   13  A    between atoms: C_13  and  C_18
REMARK   14  A    between atoms: C_21  and  C_23
REMARK                            x       y       z     vdW  Elec       q    Type
REMARK                         _______ _______ _______ _____ _____    ______ ____
ROOT
ATOM      6  N   UNL     1      -5.452 -12.800  17.031  0.00  0.00    -0.297 NA
ATOM     11  C   UNL     1      -5.668 -10.510  18.253  0.00  0.00    +0.002 C 
ATOM     12  C   UNL     1      -7.025 -11.267  18.273  0.00  0.00    +0.055 C 
ATOM     13  C   UNL     1      -4.900 -11.715  16.179  0.00  0.00    +0.072 C 
ATOM     14  C   UNL     1      -5.205 -10.331  16.792  0.00  0.00    +0.024 C 
ATOM     15  C   UNL     1      -4.637 -11.426  18.947  0.00  0.00    +0.019 C 
ATOM     16  C   UNL     1      -6.872 -12.517  17.360  0.00  0.00    +0.094 C 
ATOM     17  C   UNL     1      -4.680 -12.820  18.297  0.00  0.00    +0.085 C 
ENDROOT
BRANCH  12  19
ATOM      7  N   UNL     1      -9.403 -10.525  18.757  0.00  0.00    -0.270 N 
ATOM      9  N   UNL     1     -10.415  -9.759  18.314  0.00  0.00    -0.171 NA
ATOM     19  C   UNL     1      -8.292 -10.480  17.967  0.00  0.00    +0.044 A 
ATOM     20  C   UNL     1      -8.597  -9.626  16.937  0.00  0.00    +0.053 A 
ATOM     21  C   UNL     1      -9.917  -9.212  17.202  0.00  0.00    +0.093 A 
ATOM     22  C   UNL     1      -9.576 -11.291  19.969  0.00  0.00    +0.172 C 
BRANCH  21  23
ATOM     23  C   UNL     1     -10.710  -8.307  16.412  0.00  0.00    +0.002 A 
ATOM     25  C   UNL     1     -10.228  -7.033  16.117  0.00  0.00    +0.012 A 
ATOM     26  C   UNL     1     -11.961  -8.707  15.941  0.00  0.00    +0.012 A 
ATOM     29  C   UNL     1     -10.997  -6.156  15.350  0.00  0.00    +0.024 A 
ATOM     30  C   UNL     1     -12.730  -7.830  15.175  0.00  0.00    +0.024 A 
ATOM     33  C   UNL     1     -12.248  -6.555  14.880  0.00  0.00    +0.029 A 
BRANCH  33  10
ATOM     10  N   UNL     1     -13.025  -5.669  14.105  0.00  0.00    -0.336 N 
ATOM     36  C   UNL     1     -14.468  -5.796  14.070  0.00  0.00    +0.129 C 
ATOM     37  C   UNL     1     -12.391  -4.614  13.340  0.00  0.00    +0.129 C 
ENDBRANCH  33  10
ENDBRANCH  21  23
ENDBRANCH  12  19
BRANCH  13  18
ATOM     18  C   UNL     1      -5.378 -11.814  14.728  0.00  0.00    +0.124 C 
BRANCH  18   8
ATOM      8  N   UNL     1      -5.701 -10.466  14.232  0.00  0.00    -0.188 NA
ATOM     39  H   UNL     1      -5.351  -9.652  14.750  0.00  0.00    +0.148 HD
BRANCH   8   1
ATOM      1  S   UNL     1      -6.831 -10.263  12.974  0.00  0.00    +0.062 S 
ATOM      2  O   UNL     1      -7.736  -9.182  13.314  0.00  0.00    -0.153 OA
ATOM      3  O   UNL     1      -7.355 -11.560  12.593  0.00  0.00    -0.153 OA
BRANCH   1  24
ATOM     24  C   UNL     1      -5.799  -9.713  11.648  0.00  0.00    +0.150 A 
ATOM     27  C   UNL     1      -6.348  -9.114  10.515  0.00  0.00    +0.147 A 
ATOM     28  C   UNL     1      -4.418  -9.886  11.747  0.00  0.00    +0.077 A 
ATOM     31  C   UNL     1      -3.587  -9.459  10.711  0.00  0.00    +0.122 A 
ATOM     32  C   UNL     1      -5.517  -8.689   9.479  0.00  0.00    +0.051 A 
ATOM     34  C   UNL     1      -4.137  -8.861   9.577  0.00  0.00    +0.049 A 
BRANCH  27   4
ATOM      4  O   UNL     1      -7.693  -8.936  10.396  0.00  0.00    -0.493 OA
ATOM     35  C   UNL     1      -8.157  -8.254   9.233  0.00  0.00    +0.277 C 
ENDBRANCH  27   4
BRANCH  31   5
ATOM      5  O   UNL     1      -2.239  -9.628  10.806  0.00  0.00    -0.495 OA
ATOM     38  C   UNL     1      -1.749 -10.305  11.963  0.00  0.00    +0.277 C 
ENDBRANCH  31   5
ENDBRANCH   1  24
ENDBRANCH   8   1
ENDBRANCH  18   8
ENDBRANCH  13  18
TORSDOF 9
ENDMDL
MODEL 7
REMARK VINA RESULT:      -6.9      3.120      6.888
REMARK  Name = 40779229
REMARK  14 active torsions:
REMARK  status: ('A' for Active; 'I' for Inactive)
REMARK    1  A    between atoms: S_1  and  N_8
REMARK    2  A    between atoms: S_1  and  C_24
REMARK    3  A    between atoms: O_4  and  C_27
REMARK    4  A    between atoms: O_4  and  C_35
REMARK    5  A    between atoms: O_5  and  C_31
REMARK    6  A    between atoms: O_5  and  C_38
REMARK    7  A    between atoms: N_7  and  C_22
REMARK    8  A    between atoms: N_8  and  C_18
REMARK    9  A    between atoms: N_10  and  C_33
REMARK   10  A    between atoms: N_10  and  C_36
REMARK   11  A    between atoms: N_10  and  C_37
REMARK   12  A    between atoms: C_12  and  C_19
REMARK   13  A    between atoms: C_13  and  C_18
REMARK   14  A    between atoms: C_21  and  C_23
REMARK                            x       y       z     vdW  Elec       q    Type
REMARK                         _______ _______ _______ _____ _____    ______ ____
ROOT
ATOM      6  N   UNL     1      -4.009  -8.838   9.960  0.00  0.00    -0.297 NA
ATOM     11  C   UNL     1      -5.829 -10.685   9.715  0.00  0.00    +0.002 C 
ATOM     12  C   UNL     1      -6.388  -9.473  10.510  0.00  0.00    +0.055 C 
ATOM     13  C   UNL     1      -3.453 -10.156  10.365  0.00  0.00    +0.072 C 
ATOM     14  C   UNL     1      -4.568 -11.223  10.425  0.00  0.00    +0.024 C 
ATOM     15  C   UNL     1      -5.380 -10.147   8.340  0.00  0.00    +0.019 C 
ATOM     16  C   UNL     1      -5.197  -8.511  10.787  0.00  0.00    +0.094 C 
ATOM     17  C   UNL     1      -4.444  -8.944   8.547  0.00  0.00    +0.085 C 
ENDROOT
BRANCH  12  19
ATOM      7  N   UNL     1      -8.573  -9.718  11.777  0.00  0.00    -0.270 N 
ATOM      9  N   UNL     1      -9.109  -9.990  12.980  0.00  0.00    -0.171 NA
ATOM     19  C   UNL     1      -7.210  -9.749  11.761  0.00  0.00    +0.044 A 
ATOM     20  C   UNL     1      -6.826 -10.066  13.041  0.00  0.00    +0.053 A 
ATOM     21  C   UNL     1      -8.037 -10.202  13.748  0.00  0.00    +0.093 A 
ATOM     22  C   UNL     1      -9.448  -9.426  10.665  0.00  0.00    +0.172 C 
BRANCH  21  23
ATOM     23  C   UNL     1      -8.188 -10.529  15.142  0.00  0.00    +0.002 A 
ATOM     25  C   UNL     1      -7.610  -9.716  16.116  0.00  0.00    +0.012 A 
ATOM     26  C   UNL     1      -8.915 -11.659  15.517  0.00  0.00    +0.012 A 
ATOM     29  C   UNL     1      -7.757 -10.033  17.466  0.00  0.00    +0.024 A 
ATOM     30  C   UNL     1      -9.062 -11.976  16.867  0.00  0.00    +0.024 A 
ATOM     33  C   UNL     1      -8.483 -11.163  17.842  0.00  0.00    +0.029 A 
BRANCH  33  10
ATOM     10  N   UNL     1      -8.633 -11.483  19.207  0.00  0.00    -0.336 N 
ATOM     36  C   UNL     1      -7.670 -12.340  19.870  0.00  0.00    +0.129 C 
ATOM     37  C   UNL     1      -9.747 -10.953  19.968  0.00  0.00    +0.129 C 
ENDBRANCH  33  10
ENDBRANCH  21  23
ENDBRANCH  12  19
BRANCH  13  18
ATOM     18  C   UNL     1      -2.666 -10.079  11.675  0.00  0.00    +0.124 C 
BRANCH  18   8
ATOM      8  N   UNL     1      -3.066 -11.196  12.547  0.00  0.00    -0.188 NA
ATOM     39  H   UNL     1      -3.963 -11.664  12.370  0.00  0.00    +0.148 HD
BRANCH   8   1
ATOM      1  S   UNL     1      -2.182 -11.539  13.962  0.00  0.00    +0.062 S 
ATOM      2  O   UNL     1      -1.612 -10.310  14.478  0.00  0.00    -0.153 OA
ATOM      3  O   UNL     1      -1.337 -12.693  13.725  0.00  0.00    -0.153 OA
BRANCH   1  24
ATOM     24  C   UNL     1      -3.461 -12.053  15.068  0.00  0.00    +0.150 A 
ATOM     27  C   UNL     1      -4.433 -12.968  14.663  0.00  0.00    +0.147 A 
ATOM     28  C   UNL     1      -3.491 -11.531  16.362  0.00  0.00    +0.077 A 
ATOM     31  C   UNL     1      -4.492 -11.925  17.250  0.00  0.00    +0.122 A 
ATOM     32  C   UNL     1      -5.434 -13.361  15.550  0.00  0.00    +0.051 A 
ATOM     34  C   UNL     1      -5.464 -12.840  16.843  0.00  0.00    +0.049 A 
BRANCH  27   4
ATOM      4  O   UNL     1      -4.425 -13.491  13.405  0.00  0.00    -0.493 OA
ATOM     35  C   UNL     1      -4.685 -14.887  13.281  0.00  0.00    +0.277 C 
ENDBRANCH  27   4
BRANCH  31   5
ATOM      5  O   UNL     1      -4.522 -11.415  18.512  0.00  0.00    -0.495 OA
ATOM     38  C   UNL     1      -3.813 -12.135  19.520  0.00  0.00    +0.277 C 
ENDBRANCH  31   5
ENDBRANCH   1  24
ENDBRANCH   8   1
ENDBRANCH  18   8
ENDBRANCH  13  18
TORSDOF 9
ENDMDL
MODEL 8
REMARK VINA RESULT:      -6.8      3.342      6.897
REMARK  Name = 40779229
REMARK  14 active torsions:
REMARK  status: ('A' for Active; 'I' for Inactive)
REMARK    1  A    between atoms: S_1  and  N_8
REMARK    2  A    between atoms: S_1  and  C_24
REMARK    3  A    between atoms: O_4  and  C_27
REMARK    4  A    between atoms: O_4  and  C_35
REMARK    5  A    between atoms: O_5  and  C_31
REMARK    6  A    between atoms: O_5  and  C_38
REMARK    7  A    between atoms: N_7  and  C_22
REMARK    8  A    between atoms: N_8  and  C_18
REMARK    9  A    between atoms: N_10  and  C_33
REMARK   10  A    between atoms: N_10  and  C_36
REMARK   11  A    between atoms: N_10  and  C_37
REMARK   12  A    between atoms: C_12  and  C_19
REMARK   13  A    between atoms: C_13  and  C_18
REMARK   14  A    between atoms: C_21  and  C_23
REMARK                            x       y       z     vdW  Elec       q    Type
REMARK                         _______ _______ _______ _____ _____    ______ ____
ROOT
ATOM      6  N   UNL     1      -6.465 -10.547  18.084  0.00  0.00    -0.297 NA
ATOM     11  C   UNL     1      -4.390 -12.021  17.528  0.00  0.00    +0.002 C 
ATOM     12  C   UNL     1      -4.312 -10.666  16.772  0.00  0.00    +0.055 C 
ATOM     13  C   UNL     1      -6.902 -11.912  17.691  0.00  0.00    +0.072 C 
ATOM     14  C   UNL     1      -5.708 -12.735  17.161  0.00  0.00    +0.024 C 
ATOM     15  C   UNL     1      -4.461 -11.687  19.034  0.00  0.00    +0.019 C 
ATOM     16  C   UNL     1      -5.667  -9.934  16.992  0.00  0.00    +0.094 C 
ATOM     17  C   UNL     1      -5.593 -10.675  19.277  0.00  0.00    +0.085 C 
ENDROOT
BRANCH  12  19
ATOM      7  N   UNL     1      -2.596 -10.594  14.905  0.00  0.00    -0.270 N 
ATOM      9  N   UNL     1      -2.438 -10.626  13.570  0.00  0.00    -0.171 NA
ATOM     19  C   UNL     1      -3.895 -10.681  15.309  0.00  0.00    +0.044 A 
ATOM     20  C   UNL     1      -4.640 -10.778  14.159  0.00  0.00    +0.053 A 
ATOM     21  C   UNL     1      -3.691 -10.738  13.120  0.00  0.00    +0.093 A 
ATOM     22  C   UNL     1      -1.430 -10.473  15.750  0.00  0.00    +0.172 C 
BRANCH  21  23
ATOM     23  C   UNL     1      -3.958 -10.804  11.707  0.00  0.00    +0.002 A 
ATOM     25  C   UNL     1      -4.107  -9.630  10.970  0.00  0.00    +0.012 A 
ATOM     26  C   UNL     1      -4.065 -12.043  11.075  0.00  0.00    +0.012 A 
ATOM     29  C   UNL     1      -4.365  -9.694   9.600  0.00  0.00    +0.024 A 
ATOM     30  C   UNL     1      -4.322 -12.107   9.706  0.00  0.00    +0.024 A 
ATOM     33  C   UNL     1      -4.473 -10.932   8.968  0.00  0.00    +0.029 A 
BRANCH  33  10
ATOM     10  N   UNL     1      -4.733 -10.997   7.584  0.00  0.00    -0.336 N 
ATOM     36  C   UNL     1      -5.471  -9.938   6.925  0.00  0.00    +0.129 C 
ATOM     37  C   UNL     1      -4.259 -12.120   6.799  0.00  0.00    +0.129 C 
ENDBRANCH  33  10
ENDBRANCH  21  23
ENDBRANCH  12  19
BRANCH  13  18
ATOM     18  C   UNL     1      -8.064 -11.887  16.696  0.00  0.00    +0.124 C 
BRANCH  18   8
ATOM      8  N   UNL     1      -7.586 -12.346  15.381  0.00  0.00    -0.188 NA
ATOM     39  H   UNL     1      -6.612 -12.160  15.118  0.00  0.00    +0.148 HD
BRANCH   8   1
ATOM      1  S   UNL     1      -8.688 -12.947  14.230  0.00  0.00    +0.062 S 
ATOM      2  O   UNL     1     -10.041 -12.651  14.663  0.00  0.00    -0.153 OA
ATOM      3  O   UNL     1      -8.315 -14.303  13.879  0.00  0.00    -0.153 OA
BRANCH   1  24
ATOM     24  C   UNL     1      -8.331 -11.933  12.827  0.00  0.00    +0.150 A 
ATOM     27  C   UNL     1      -8.201 -10.550  12.958  0.00  0.00    +0.147 A 
ATOM     28  C   UNL     1      -8.180 -12.532  11.577  0.00  0.00    +0.077 A 
ATOM     31  C   UNL     1      -7.898 -11.748  10.457  0.00  0.00    +0.122 A 
ATOM     32  C   UNL     1      -7.921  -9.767  11.839  0.00  0.00    +0.051 A 
ATOM     34  C   UNL     1      -7.769 -10.366  10.589  0.00  0.00    +0.049 A 
BRANCH  27   4
ATOM      4  O   UNL     1      -8.346  -9.942  14.169  0.00  0.00    -0.493 OA
ATOM     35  C   UNL     1      -9.540  -9.193  14.379  0.00  0.00    +0.277 C 
ENDBRANCH  27   4
BRANCH  31   5
ATOM      5  O   UNL     1      -7.750 -12.333   9.237  0.00  0.00    -0.495 OA
ATOM     38  C   UNL     1      -8.408 -11.710   8.134  0.00  0.00    +0.277 C 
ENDBRANCH  31   5
ENDBRANCH   1  24
ENDBRANCH   8   1
ENDBRANCH  18   8
ENDBRANCH  13  18
TORSDOF 9
ENDMDL
MODEL 9
REMARK VINA RESULT:      -6.8      1.087      2.002
REMARK  Name = 40779229
REMARK  14 active torsions:
REMARK  status: ('A' for Active; 'I' for Inactive)
REMARK    1  A    between atoms: S_1  and  N_8
REMARK    2  A    between atoms: S_1  and  C_24
REMARK    3  A    between atoms: O_4  and  C_27
REMARK    4  A    between atoms: O_4  and  C_35
REMARK    5  A    between atoms: O_5  and  C_31
REMARK    6  A    between atoms: O_5  and  C_38
REMARK    7  A    between atoms: N_7  and  C_22
REMARK    8  A    between atoms: N_8  and  C_18
REMARK    9  A    between atoms: N_10  and  C_33
REMARK   10  A    between atoms: N_10  and  C_36
REMARK   11  A    between atoms: N_10  and  C_37
REMARK   12  A    between atoms: C_12  and  C_19
REMARK   13  A    between atoms: C_13  and  C_18
REMARK   14  A    between atoms: C_21  and  C_23
REMARK                            x       y       z     vdW  Elec       q    Type
REMARK                         _______ _______ _______ _____ _____    ______ ____
ROOT
ATOM      6  N   UNL     1      -5.066 -12.735  17.291  0.00  0.00    -0.297 NA
ATOM     11  C   UNL     1      -5.631 -10.683  18.793  0.00  0.00    +0.002 C 
ATOM     12  C   UNL     1      -6.910 -11.520  18.512  0.00  0.00    +0.055 C 
ATOM     13  C   UNL     1      -4.504 -11.497  16.692  0.00  0.00    +0.072 C 
ATOM     14  C   UNL     1      -5.001 -10.249  17.452  0.00  0.00    +0.024 C 
ATOM     15  C   UNL     1      -4.623 -11.628  19.481  0.00  0.00    +0.019 C 
ATOM     16  C   UNL     1      -6.535 -12.599  17.457  0.00  0.00    +0.094 C 
ATOM     17  C   UNL     1      -4.463 -12.903  18.636  0.00  0.00    +0.085 C 
ENDROOT
BRANCH  12  19
ATOM      7  N   UNL     1      -9.363 -10.951  18.824  0.00  0.00    -0.270 N 
ATOM      9  N   UNL     1     -10.376 -10.205  18.349  0.00  0.00    -0.171 NA
ATOM     19  C   UNL     1      -8.189 -10.779  18.151  0.00  0.00    +0.044 A 
ATOM     20  C   UNL     1      -8.451  -9.855  17.169  0.00  0.00    +0.053 A 
ATOM     21  C   UNL     1      -9.813  -9.538  17.339  0.00  0.00    +0.093 A 
ATOM     22  C   UNL     1      -9.599 -11.829  19.947  0.00  0.00    +0.172 C 
BRANCH  21  23
ATOM     23  C   UNL     1     -10.585  -8.611  16.553  0.00  0.00    +0.002 A 
ATOM     25  C   UNL     1     -11.588  -9.080  15.707  0.00  0.00    +0.012 A 
ATOM     26  C   UNL     1     -10.329  -7.242  16.640  0.00  0.00    +0.012 A 
ATOM     29  C   UNL     1     -12.337  -8.182  14.947  0.00  0.00    +0.024 A 
ATOM     30  C   UNL     1     -11.077  -6.344  15.880  0.00  0.00    +0.024 A 
ATOM     33  C   UNL     1     -12.081  -6.813  15.032  0.00  0.00    +0.029 A 
BRANCH  33  10
ATOM     10  N   UNL     1     -12.838  -5.905  14.264  0.00  0.00    -0.336 N 
ATOM     36  C   UNL     1     -12.178  -4.903  13.451  0.00  0.00    +0.129 C 
ATOM     37  C   UNL     1     -14.286  -5.966  14.271  0.00  0.00    +0.129 C 
ENDBRANCH  33  10
ENDBRANCH  21  23
ENDBRANCH  12  19
BRANCH  13  18
ATOM     18  C   UNL     1      -4.783 -11.399  15.190  0.00  0.00    +0.124 C 
BRANCH  18   8
ATOM      8  N   UNL     1      -3.860 -12.290  14.467  0.00  0.00    -0.188 NA
ATOM     39  H   UNL     1      -3.938 -13.304  14.611  0.00  0.00    +0.148 HD
BRANCH   8   1
ATOM      1  S   UNL     1      -2.538 -11.643  13.610  0.00  0.00    +0.062 S 
ATOM      2  O   UNL     1      -1.440 -12.590  13.638  0.00  0.00    -0.153 OA
ATOM      3  O   UNL     1      -2.328 -10.270  14.027  0.00  0.00    -0.153 OA
BRANCH   1  24
ATOM     24  C   UNL     1      -3.171 -11.591  11.960  0.00  0.00    +0.150 A 
ATOM     27  C   UNL     1      -3.638 -12.747  11.336  0.00  0.00    +0.147 A 
ATOM     28  C   UNL     1      -3.199 -10.372  11.282  0.00  0.00    +0.077 A 
ATOM     31  C   UNL     1      -3.695 -10.311   9.979  0.00  0.00    +0.122 A 
ATOM     32  C   UNL     1      -4.132 -12.686  10.034  0.00  0.00    +0.051 A 
ATOM     34  C   UNL     1      -4.161 -11.468   9.355  0.00  0.00    +0.049 A 
BRANCH  27   4
ATOM      4  O   UNL     1      -3.620 -13.948  11.979  0.00  0.00    -0.493 OA
ATOM     35  C   UNL     1      -2.936 -15.019  11.332  0.00  0.00    +0.277 C 
ENDBRANCH  27   4
BRANCH  31   5
ATOM      5  O   UNL     1      -3.721  -9.122   9.316  0.00  0.00    -0.495 OA
ATOM     38  C   UNL     1      -4.982  -8.460   9.219  0.00  0.00    +0.277 C 
ENDBRANCH  31   5
ENDBRANCH   1  24
ENDBRANCH   8   1
ENDBRANCH  18   8
ENDBRANCH  13  18
TORSDOF 9
ENDMDL
MODEL 10
REMARK VINA RESULT:      -6.6      3.558      8.747
REMARK  Name = 40779229
REMARK  14 active torsions:
REMARK  status: ('A' for Active; 'I' for Inactive)
REMARK    1  A    between atoms: S_1  and  N_8
REMARK    2  A    between atoms: S_1  and  C_24
REMARK    3  A    between atoms: O_4  and  C_27
REMARK    4  A    between atoms: O_4  and  C_35
REMARK    5  A    between atoms: O_5  and  C_31
REMARK    6  A    between atoms: O_5  and  C_38
REMARK    7  A    between atoms: N_7  and  C_22
REMARK    8  A    between atoms: N_8  and  C_18
REMARK    9  A    between atoms: N_10  and  C_33
REMARK   10  A    between atoms: N_10  and  C_36
REMARK   11  A    between atoms: N_10  and  C_37
REMARK   12  A    between atoms: C_12  and  C_19
REMARK   13  A    between atoms: C_13  and  C_18
REMARK   14  A    between atoms: C_21  and  C_23
REMARK                            x       y       z     vdW  Elec       q    Type
REMARK                         _______ _______ _______ _____ _____    ______ ____
ROOT
ATOM      6  N   UNL     1      -6.404 -10.441  17.920  0.00  0.00    -0.297 NA
ATOM     11  C   UNL     1      -4.431 -12.021  17.290  0.00  0.00    +0.002 C 
ATOM     12  C   UNL     1      -4.283 -10.652  16.570  0.00  0.00    +0.055 C 
ATOM     13  C   UNL     1      -6.929 -11.765  17.497  0.00  0.00    +0.072 C 
ATOM     14  C   UNL     1      -5.795 -12.644  16.925  0.00  0.00    +0.024 C 
ATOM     15  C   UNL     1      -4.459 -11.726  18.805  0.00  0.00    +0.019 C 
ATOM     16  C   UNL     1      -5.587  -9.846  16.832  0.00  0.00    +0.094 C 
ATOM     17  C   UNL     1      -5.524 -10.654  19.094  0.00  0.00    +0.085 C 
ENDROOT
BRANCH  12  19
ATOM      7  N   UNL     1      -2.597 -10.553  14.676  0.00  0.00    -0.270 N 
ATOM      9  N   UNL     1      -2.461 -10.571  13.338  0.00  0.00    -0.171 NA
ATOM     19  C   UNL     1      -3.890 -10.652  15.100  0.00  0.00    +0.044 A 
ATOM     20  C   UNL     1      -4.653 -10.742  13.961  0.00  0.00    +0.053 A 
ATOM     21  C   UNL     1      -3.720 -10.686  12.907  0.00  0.00    +0.093 A 
ATOM     22  C   UNL     1      -1.419 -10.432  15.503  0.00  0.00    +0.172 C 
BRANCH  21  23
ATOM     23  C   UNL     1      -4.010 -10.740  11.498  0.00  0.00    +0.002 A 
ATOM     25  C   UNL     1      -4.450 -11.931  10.921  0.00  0.00    +0.012 A 
ATOM     26  C   UNL     1      -3.852  -9.600  10.710  0.00  0.00    +0.012 A 
ATOM     29  C   UNL     1      -4.731 -11.983   9.556  0.00  0.00    +0.024 A 
ATOM     30  C   UNL     1      -4.134  -9.651   9.345  0.00  0.00    +0.024 A 
ATOM     33  C   UNL     1      -4.573 -10.843   8.768  0.00  0.00    +0.029 A 
BRANCH  33  10
ATOM     10  N   UNL     1      -4.858 -10.895   7.388  0.00  0.00    -0.336 N 
ATOM     36  C   UNL     1      -4.323 -11.963   6.567  0.00  0.00    +0.129 C 
ATOM     37  C   UNL     1      -5.696  -9.885   6.773  0.00  0.00    +0.129 C 
ENDBRANCH  33  10
ENDBRANCH  21  23
ENDBRANCH  12  19
BRANCH  13  18
ATOM     18  C   UNL     1      -8.103 -11.643  16.523  0.00  0.00    +0.124 C 
BRANCH  18   8
ATOM      8  N   UNL     1      -9.155 -10.815  17.135  0.00  0.00    -0.188 NA
ATOM     39  H   UNL     1      -9.751 -11.231  17.860  0.00  0.00    +0.148 HD
BRANCH   8   1
ATOM      1  S   UNL     1      -9.536  -9.289  16.480  0.00  0.00    +0.062 S 
ATOM      2  O   UNL     1      -9.241  -9.292  15.060  0.00  0.00    -0.153 OA
ATOM      3  O   UNL     1      -8.989  -8.256  17.337  0.00  0.00    -0.153 OA
BRANCH   1  24
ATOM     24  C   UNL     1     -11.292  -9.244  16.672  0.00  0.00    +0.150 A 
ATOM     27  C   UNL     1     -11.890  -9.614  17.877  0.00  0.00    +0.147 A 
ATOM     28  C   UNL     1     -12.082  -8.832  15.599  0.00  0.00    +0.077 A 
ATOM     31  C   UNL     1     -13.471  -8.790  15.731  0.00  0.00    +0.122 A 
ATOM     32  C   UNL     1     -13.278  -9.573  18.008  0.00  0.00    +0.051 A 
ATOM     34  C   UNL     1     -14.068  -9.161  16.936  0.00  0.00    +0.049 A 
BRANCH  27   4
ATOM      4  O   UNL     1     -11.139 -10.020  18.938  0.00  0.00    -0.493 OA
ATOM     35  C   UNL     1     -11.755  -9.973  20.223  0.00  0.00    +0.277 C 
ENDBRANCH  27   4
BRANCH  31   5
ATOM      5  O   UNL     1     -14.242  -8.388  14.683  0.00  0.00    -0.495 OA
ATOM     38  C   UNL     1     -13.706  -7.376  13.832  0.00  0.00    +0.277 C 
ENDBRANCH  31   5
ENDBRANCH   1  24
ENDBRANCH   8   1
ENDBRANCH  18   8
ENDBRANCH  13  18
TORSDOF 9
ENDMDL
