MODEL 1
REMARK VINA RESULT:      -7.5      0.000      0.000
REMARK  Name = 25390299
REMARK  9 active torsions:
REMARK  status: ('A' for Active; 'I' for Inactive)
REMARK    1  A    between atoms: O_3  and  C_8
REMARK    2  A    between atoms: O_4  and  C_10
REMARK    3  A    between atoms: N_6  and  C_12
REMARK    4  A    between atoms: N_6  and  C_15
REMARK    5  A    between atoms: N_7  and  C_17
REMARK    6  A    between atoms: C_9  and  C_12
REMARK    7  A    between atoms: C_11  and  C_13
REMARK    8  A    between atoms: C_13  and  C_14
REMARK    9  A    between atoms: C_15  and  C_16
REMARK                            x       y       z     vdW  Elec       q    Type
REMARK                         _______ _______ _______ _____ _____    ______ ____
ROOT
ATOM      2  O   UNL     1      11.666   9.048  20.052  0.00  0.00    -0.366 OA
ATOM      8  C   UNL     1      11.194   7.664  21.928  0.00  0.00    +0.175 C 
ATOM      9  C   UNL     1      11.534   9.084  21.491  0.00  0.00    +0.163 C 
ATOM     10  C   UNL     1      11.851   6.835  20.843  0.00  0.00    +0.175 C 
ATOM     11  C   UNL     1      11.586   7.682  19.609  0.00  0.00    +0.158 C 
ENDROOT
BRANCH   8   3
ATOM      3  O   UNL     1       9.775   7.512  21.875  0.00  0.00    -0.387 OA
ATOM     28  H   UNL     1       9.387   8.224  22.411  0.00  0.00    +0.210 HD
ENDBRANCH   8   3
BRANCH  10   4
ATOM      4  O   UNL     1      11.306   5.539  20.723  0.00  0.00    -0.387 OA
ATOM     29  H   UNL     1      11.008   5.431  19.804  0.00  0.00    +0.210 HD
ENDBRANCH  10   4
BRANCH   9  12
ATOM     12  C   UNL     1      12.851   9.585  22.067  0.00  0.00    +0.115 C 
BRANCH  12   6
ATOM      6  N   UNL     1      12.630  10.373  23.271  0.00  0.00    -0.309 NA
ATOM     30  H   UNL     1      11.648  10.312  23.540  0.00  0.00    +0.122 HD
BRANCH   6  15
ATOM     15  C   UNL     1      12.997  11.767  23.057  0.00  0.00    +0.116 C 
BRANCH  15  16
ATOM      1  F   UNL     1       8.550  15.201  23.428  0.00  0.00    -0.205 F 
ATOM     16  C   UNL     1      11.811  12.682  23.156  0.00  0.00    -0.033 A 
ATOM     18  C   UNL     1      11.347  13.090  24.407  0.00  0.00    +0.008 A 
ATOM     19  C   UNL     1      11.174  13.126  21.996  0.00  0.00    +0.008 A 
ATOM     22  C   UNL     1      10.245  13.940  24.498  0.00  0.00    +0.038 A 
ATOM     23  C   UNL     1      10.072  13.977  22.089  0.00  0.00    +0.038 A 
ATOM     24  C   UNL     1       9.608  14.384  23.340  0.00  0.00    +0.123 A 
ENDBRANCH  15  16
ENDBRANCH   6  15
ENDBRANCH  12   6
ENDBRANCH   9  12
BRANCH  11  13
ATOM     13  C   UNL     1      12.585   7.447  18.492  0.00  0.00    +0.130 C 
BRANCH  13  14
ATOM      5  O   UNL     1      14.464   8.889  18.921  0.00  0.00    -0.275 OA
ATOM      7  N   UNL     1      14.682   6.573  19.251  0.00  0.00    -0.285 N 
ATOM     14  C   UNL     1      14.017   7.747  18.909  0.00  0.00    +0.220 C 
ATOM     31  H   UNL     1      14.160   5.702  19.183  0.00  0.00    +0.155 HD
BRANCH   7  17
ATOM     17  C   UNL     1      16.021   6.437  19.688  0.00  0.00    +0.033 A 
ATOM     20  C   UNL     1      16.959   5.803  18.872  0.00  0.00    +0.023 A 
ATOM     21  C   UNL     1      16.403   6.934  20.934  0.00  0.00    +0.023 A 
ATOM     25  C   UNL     1      18.278   5.668  19.302  0.00  0.00    +0.002 A 
ATOM     26  C   UNL     1      17.723   6.799  21.364  0.00  0.00    +0.002 A 
ATOM     27  C   UNL     1      18.661   6.165  20.548  0.00  0.00    +0.000 A 
ENDBRANCH   7  17
ENDBRANCH  13  14
ENDBRANCH  11  13
TORSDOF 9
ENDMDL
MODEL 2
REMARK VINA RESULT:      -7.1      3.663      8.156
REMARK  Name = 25390299
REMARK  9 active torsions:
REMARK  status: ('A' for Active; 'I' for Inactive)
REMARK    1  A    between atoms: O_3  and  C_8
REMARK    2  A    between atoms: O_4  and  C_10
REMARK    3  A    between atoms: N_6  and  C_12
REMARK    4  A    between atoms: N_6  and  C_15
REMARK    5  A    between atoms: N_7  and  C_17
REMARK    6  A    between atoms: C_9  and  C_12
REMARK    7  A    between atoms: C_11  and  C_13
REMARK    8  A    between atoms: C_13  and  C_14
REMARK    9  A    between atoms: C_15  and  C_16
REMARK                            x       y       z     vdW  Elec       q    Type
REMARK                         _______ _______ _______ _____ _____    ______ ____
ROOT
ATOM      2  O   UNL     1      13.295   8.456  22.280  0.00  0.00    -0.366 OA
ATOM      8  C   UNL     1      14.117   7.198  20.436  0.00  0.00    +0.175 C 
ATOM      9  C   UNL     1      14.492   8.217  21.506  0.00  0.00    +0.163 C 
ATOM     10  C   UNL     1      12.642   7.482  20.235  0.00  0.00    +0.175 C 
ATOM     11  C   UNL     1      12.191   7.777  21.656  0.00  0.00    +0.158 C 
ENDROOT
BRANCH   8   3
ATOM      3  O   UNL     1      14.299   5.893  20.985  0.00  0.00    -0.387 OA
ATOM     28  H   UNL     1      13.563   5.730  21.599  0.00  0.00    +0.210 HD
ENDBRANCH   8   3
BRANCH  10   4
ATOM      4  O   UNL     1      11.937   6.398  19.670  0.00  0.00    -0.387 OA
ATOM     29  H   UNL     1      12.486   5.603  19.778  0.00  0.00    +0.210 HD
ENDBRANCH  10   4
BRANCH   9  12
ATOM     12  C   UNL     1      14.945   9.550  20.926  0.00  0.00    +0.115 C 
BRANCH  12   6
ATOM      6  N   UNL     1      16.300   9.458  20.399  0.00  0.00    -0.309 NA
ATOM     30  H   UNL     1      16.336   8.730  19.685  0.00  0.00    +0.122 HD
BRANCH   6  15
ATOM     15  C   UNL     1      17.253   9.156  21.458  0.00  0.00    +0.116 C 
BRANCH  15  16
ATOM      1  F   UNL     1      20.382   4.632  20.258  0.00  0.00    -0.205 F 
ATOM     16  C   UNL     1      18.087   7.950  21.138  0.00  0.00    -0.033 A 
ATOM     18  C   UNL     1      19.318   7.765  21.770  0.00  0.00    +0.008 A 
ATOM     19  C   UNL     1      17.632   7.013  20.210  0.00  0.00    +0.008 A 
ATOM     22  C   UNL     1      20.093   6.645  21.472  0.00  0.00    +0.038 A 
ATOM     23  C   UNL     1      18.408   5.893  19.913  0.00  0.00    +0.038 A 
ATOM     24  C   UNL     1      19.638   5.708  20.544  0.00  0.00    +0.123 A 
ENDBRANCH  15  16
ENDBRANCH   6  15
ENDBRANCH  12   6
ENDBRANCH   9  12
BRANCH  11  13
ATOM     13  C   UNL     1      10.949   8.645  21.726  0.00  0.00    +0.130 C 
BRANCH  13  14
ATOM      5  O   UNL     1      11.460  10.959  21.299  0.00  0.00    -0.275 OA
ATOM      7  N   UNL     1      11.263  10.206  23.516  0.00  0.00    -0.285 N 
ATOM     14  C   UNL     1      11.256  10.080  22.130  0.00  0.00    +0.220 C 
ATOM     31  H   UNL     1      11.075   9.369  24.064  0.00  0.00    +0.155 HD
BRANCH   7  17
ATOM     17  C   UNL     1      11.507  11.376  24.274  0.00  0.00    +0.033 A 
ATOM     20  C   UNL     1      10.462  12.256  24.553  0.00  0.00    +0.023 A 
ATOM     21  C   UNL     1      12.793  11.649  24.743  0.00  0.00    +0.023 A 
ATOM     25  C   UNL     1      10.702  13.409  25.300  0.00  0.00    +0.002 A 
ATOM     26  C   UNL     1      13.033  12.802  25.490  0.00  0.00    +0.002 A 
ATOM     27  C   UNL     1      11.987  13.682  25.768  0.00  0.00    +0.000 A 
ENDBRANCH   7  17
ENDBRANCH  13  14
ENDBRANCH  11  13
TORSDOF 9
ENDMDL
MODEL 3
REMARK VINA RESULT:      -7.0     15.547     18.050
REMARK  Name = 25390299
REMARK  9 active torsions:
REMARK  status: ('A' for Active; 'I' for Inactive)
REMARK    1  A    between atoms: O_3  and  C_8
REMARK    2  A    between atoms: O_4  and  C_10
REMARK    3  A    between atoms: N_6  and  C_12
REMARK    4  A    between atoms: N_6  and  C_15
REMARK    5  A    between atoms: N_7  and  C_17
REMARK    6  A    between atoms: C_9  and  C_12
REMARK    7  A    between atoms: C_11  and  C_13
REMARK    8  A    between atoms: C_13  and  C_14
REMARK    9  A    between atoms: C_15  and  C_16
REMARK                            x       y       z     vdW  Elec       q    Type
REMARK                         _______ _______ _______ _____ _____    ______ ____
ROOT
ATOM      2  O   UNL     1      10.025   6.284   5.858  0.00  0.00    -0.366 OA
ATOM      8  C   UNL     1      10.436   5.590   8.096  0.00  0.00    +0.175 C 
ATOM      9  C   UNL     1       9.353   6.007   7.108  0.00  0.00    +0.163 C 
ATOM     10  C   UNL     1      11.646   6.334   7.570  0.00  0.00    +0.175 C 
ATOM     11  C   UNL     1      11.447   6.217   6.068  0.00  0.00    +0.158 C 
ENDROOT
BRANCH   8   3
ATOM      3  O   UNL     1      10.630   4.181   7.973  0.00  0.00    -0.387 OA
ATOM     28  H   UNL     1      10.564   3.961   7.029  0.00  0.00    +0.210 HD
ENDBRANCH   8   3
BRANCH  10   4
ATOM      4  O   UNL     1      12.872   5.774   7.987  0.00  0.00    -0.387 OA
ATOM     29  H   UNL     1      12.681   5.163   8.718  0.00  0.00    +0.210 HD
ENDBRANCH  10   4
BRANCH   9  12
ATOM     12  C   UNL     1       8.616   7.270   7.530  0.00  0.00    +0.115 C 
BRANCH  12   6
ATOM      6  N   UNL     1       7.706   7.720   6.486  0.00  0.00    -0.309 NA
ATOM     30  H   UNL     1       7.657   7.012   5.753  0.00  0.00    +0.122 HD
BRANCH   6  15
ATOM     15  C   UNL     1       8.148   8.987   5.918  0.00  0.00    +0.116 C 
BRANCH  15  16
ATOM      1  F   UNL     1       7.225   9.247   0.370  0.00  0.00    -0.205 F 
ATOM     16  C   UNL     1       7.902   9.057   4.439  0.00  0.00    -0.033 A 
ATOM     18  C   UNL     1       8.757   8.394   3.558  0.00  0.00    +0.008 A 
ATOM     19  C   UNL     1       6.817   9.783   3.946  0.00  0.00    +0.008 A 
ATOM     22  C   UNL     1       8.528   8.459   2.183  0.00  0.00    +0.038 A 
ATOM     23  C   UNL     1       6.589   9.847   2.571  0.00  0.00    +0.038 A 
ATOM     24  C   UNL     1       7.444   9.186   1.690  0.00  0.00    +0.123 A 
ENDBRANCH  15  16
ENDBRANCH   6  15
ENDBRANCH  12   6
ENDBRANCH   9  12
BRANCH  11  13
ATOM     13  C   UNL     1      12.132   7.318   5.281  0.00  0.00    +0.130 C 
BRANCH  13  14
ATOM      5  O   UNL     1      12.726   7.795   2.996  0.00  0.00    -0.275 OA
ATOM      7  N   UNL     1      11.733   5.734   3.530  0.00  0.00    -0.285 N 
ATOM     14  C   UNL     1      12.243   7.001   3.797  0.00  0.00    +0.220 C 
ATOM     31  H   UNL     1      11.366   5.200   4.315  0.00  0.00    +0.155 HD
BRANCH   7  17
ATOM     17  C   UNL     1      11.658   5.080   2.276  0.00  0.00    +0.033 A 
ATOM     20  C   UNL     1      10.518   5.221   1.485  0.00  0.00    +0.023 A 
ATOM     21  C   UNL     1      12.723   4.296   1.832  0.00  0.00    +0.023 A 
ATOM     25  C   UNL     1      10.443   4.577   0.250  0.00  0.00    +0.002 A 
ATOM     26  C   UNL     1      12.648   3.653   0.597  0.00  0.00    +0.002 A 
ATOM     27  C   UNL     1      11.508   3.793  -0.194  0.00  0.00    +0.000 A 
ENDBRANCH   7  17
ENDBRANCH  13  14
ENDBRANCH  11  13
TORSDOF 9
ENDMDL
MODEL 4
REMARK VINA RESULT:      -7.0     26.378     27.977
REMARK  Name = 25390299
REMARK  9 active torsions:
REMARK  status: ('A' for Active; 'I' for Inactive)
REMARK    1  A    between atoms: O_3  and  C_8
REMARK    2  A    between atoms: O_4  and  C_10
REMARK    3  A    between atoms: N_6  and  C_12
REMARK    4  A    between atoms: N_6  and  C_15
REMARK    5  A    between atoms: N_7  and  C_17
REMARK    6  A    between atoms: C_9  and  C_12
REMARK    7  A    between atoms: C_11  and  C_13
REMARK    8  A    between atoms: C_13  and  C_14
REMARK    9  A    between atoms: C_15  and  C_16
REMARK                            x       y       z     vdW  Elec       q    Type
REMARK                         _______ _______ _______ _____ _____    ______ ____
ROOT
ATOM      2  O   UNL     1      -3.935 -12.223  14.800  0.00  0.00    -0.366 OA
ATOM      8  C   UNL     1      -3.514 -10.952  16.766  0.00  0.00    +0.175 C 
ATOM      9  C   UNL     1      -4.600 -11.427  15.807  0.00  0.00    +0.163 C 
ATOM     10  C   UNL     1      -2.297 -10.904  15.865  0.00  0.00    +0.175 C 
ATOM     11  C   UNL     1      -2.513 -12.130  14.994  0.00  0.00    +0.158 C 
ENDROOT
BRANCH   8   3
ATOM      3  O   UNL     1      -3.344 -11.951  17.772  0.00  0.00    -0.387 OA
ATOM     28  H   UNL     1      -4.231 -12.247  18.039  0.00  0.00    +0.210 HD
ENDBRANCH   8   3
BRANCH  10   4
ATOM      4  O   UNL     1      -1.076 -10.963  16.570  0.00  0.00    -0.387 OA
ATOM     29  H   UNL     1      -0.574 -11.719  16.222  0.00  0.00    +0.210 HD
ENDBRANCH  10   4
BRANCH   9  12
ATOM     12  C   UNL     1      -5.312 -10.282  15.100  0.00  0.00    +0.115 C 
BRANCH  12   6
ATOM      6  N   UNL     1      -5.755  -9.273  16.053  0.00  0.00    -0.309 NA
ATOM     30  H   UNL     1      -5.194  -9.341  16.902  0.00  0.00    +0.122 HD
BRANCH   6  15
ATOM     15  C   UNL     1      -7.165  -9.447  16.379  0.00  0.00    +0.116 C 
BRANCH  15  16
ATOM      1  F   UNL     1      -7.927 -13.179  20.525  0.00  0.00    -0.205 F 
ATOM     16  C   UNL     1      -7.368 -10.442  17.485  0.00  0.00    -0.033 A 
ATOM     18  C   UNL     1      -8.304 -11.466  17.337  0.00  0.00    +0.008 A 
ATOM     19  C   UNL     1      -6.620 -10.343  18.658  0.00  0.00    +0.008 A 
ATOM     22  C   UNL     1      -8.493 -12.390  18.365  0.00  0.00    +0.038 A 
ATOM     23  C   UNL     1      -6.810 -11.268  19.685  0.00  0.00    +0.038 A 
ATOM     24  C   UNL     1      -7.746 -12.291  19.539  0.00  0.00    +0.123 A 
ENDBRANCH  15  16
ENDBRANCH   6  15
ENDBRANCH  12   6
ENDBRANCH   9  12
BRANCH  11  13
ATOM     13  C   UNL     1      -1.817 -12.045  13.649  0.00  0.00    +0.130 C 
BRANCH  13  14
ATOM      5  O   UNL     1      -1.530  -9.770  12.913  0.00  0.00    -0.275 OA
ATOM      7  N   UNL     1      -3.365 -11.016  12.138  0.00  0.00    -0.285 N 
ATOM     14  C   UNL     1      -2.200 -10.797  12.866  0.00  0.00    +0.220 C 
ATOM     31  H   UNL     1      -3.800 -11.933  12.213  0.00  0.00    +0.155 HD
BRANCH   7  17
ATOM     17  C   UNL     1      -4.038 -10.103  11.290  0.00  0.00    +0.033 A 
ATOM     20  C   UNL     1      -3.469  -9.737  10.071  0.00  0.00    +0.023 A 
ATOM     21  C   UNL     1      -5.268  -9.569  11.675  0.00  0.00    +0.023 A 
ATOM     25  C   UNL     1      -4.130  -8.837   9.235  0.00  0.00    +0.002 A 
ATOM     26  C   UNL     1      -5.929  -8.669  10.840  0.00  0.00    +0.002 A 
ATOM     27  C   UNL     1      -5.360  -8.303   9.620  0.00  0.00    +0.000 A 
ENDBRANCH   7  17
ENDBRANCH  13  14
ENDBRANCH  11  13
TORSDOF 9
ENDMDL
MODEL 5
REMARK VINA RESULT:      -6.9      2.679      5.559
REMARK  Name = 25390299
REMARK  9 active torsions:
REMARK  status: ('A' for Active; 'I' for Inactive)
REMARK    1  A    between atoms: O_3  and  C_8
REMARK    2  A    between atoms: O_4  and  C_10
REMARK    3  A    between atoms: N_6  and  C_12
REMARK    4  A    between atoms: N_6  and  C_15
REMARK    5  A    between atoms: N_7  and  C_17
REMARK    6  A    between atoms: C_9  and  C_12
REMARK    7  A    between atoms: C_11  and  C_13
REMARK    8  A    between atoms: C_13  and  C_14
REMARK    9  A    between atoms: C_15  and  C_16
REMARK                            x       y       z     vdW  Elec       q    Type
REMARK                         _______ _______ _______ _____ _____    ______ ____
ROOT
ATOM      2  O   UNL     1      16.700   7.665  21.391  0.00  0.00    -0.366 OA
ATOM      8  C   UNL     1      19.074   7.527  21.359  0.00  0.00    +0.175 C 
ATOM      9  C   UNL     1      17.890   8.409  21.736  0.00  0.00    +0.163 C 
ATOM     10  C   UNL     1      18.507   6.710  20.216  0.00  0.00    +0.175 C 
ATOM     11  C   UNL     1      17.084   6.469  20.690  0.00  0.00    +0.158 C 
ENDROOT
BRANCH   8   3
ATOM      3  O   UNL     1      19.369   6.682  22.472  0.00  0.00    -0.387 OA
ATOM     28  H   UNL     1      20.124   6.123  22.220  0.00  0.00    +0.210 HD
ENDBRANCH   8   3
BRANCH  10   4
ATOM      4  O   UNL     1      19.203   5.503  19.992  0.00  0.00    -0.387 OA
ATOM     29  H   UNL     1      18.758   5.041  19.262  0.00  0.00    +0.210 HD
ENDBRANCH  10   4
BRANCH   9  12
ATOM     12  C   UNL     1      17.857   9.723  20.966  0.00  0.00    +0.115 C 
BRANCH  12   6
ATOM      6  N   UNL     1      16.522   9.998  20.455  0.00  0.00    -0.309 NA
ATOM     30  H   UNL     1      16.445   9.644  19.502  0.00  0.00    +0.122 HD
BRANCH   6  15
ATOM     15  C   UNL     1      16.239  11.427  20.475  0.00  0.00    +0.116 C 
BRANCH  15  16
ATOM      1  F   UNL     1      10.965  12.512  22.119  0.00  0.00    -0.205 F 
ATOM     16  C   UNL     1      14.833  11.717  20.913  0.00  0.00    -0.033 A 
ATOM     18  C   UNL     1      13.798  11.721  19.978  0.00  0.00    +0.008 A 
ATOM     19  C   UNL     1      14.562  11.980  22.256  0.00  0.00    +0.008 A 
ATOM     22  C   UNL     1      12.491  11.990  20.386  0.00  0.00    +0.038 A 
ATOM     23  C   UNL     1      13.255  12.249  22.663  0.00  0.00    +0.038 A 
ATOM     24  C   UNL     1      12.220  12.255  21.728  0.00  0.00    +0.123 A 
ENDBRANCH  15  16
ENDBRANCH   6  15
ENDBRANCH  12   6
ENDBRANCH   9  12
BRANCH  11  13
ATOM     13  C   UNL     1      16.109   6.203  19.558  0.00  0.00    +0.130 C 
BRANCH  13  14
ATOM      5  O   UNL     1      14.468   7.826  18.872  0.00  0.00    -0.275 OA
ATOM      7  N   UNL     1      14.140   6.615  20.857  0.00  0.00    -0.285 N 
ATOM     14  C   UNL     1      14.814   6.990  19.700  0.00  0.00    +0.220 C 
ATOM     31  H   UNL     1      14.570   5.900  21.441  0.00  0.00    +0.155 HD
BRANCH   7  17
ATOM     17  C   UNL     1      12.905   7.115  21.337  0.00  0.00    +0.033 A 
ATOM     20  C   UNL     1      12.840   8.393  21.894  0.00  0.00    +0.023 A 
ATOM     21  C   UNL     1      11.754   6.331  21.254  0.00  0.00    +0.023 A 
ATOM     25  C   UNL     1      11.625   8.886  22.367  0.00  0.00    +0.002 A 
ATOM     26  C   UNL     1      10.539   6.824  21.728  0.00  0.00    +0.002 A 
ATOM     27  C   UNL     1      10.474   8.102  22.284  0.00  0.00    +0.000 A 
ENDBRANCH   7  17
ENDBRANCH  13  14
ENDBRANCH  11  13
TORSDOF 9
ENDMDL
MODEL 6
REMARK VINA RESULT:      -6.9     26.481     28.685
REMARK  Name = 25390299
REMARK  9 active torsions:
REMARK  status: ('A' for Active; 'I' for Inactive)
REMARK    1  A    between atoms: O_3  and  C_8
REMARK    2  A    between atoms: O_4  and  C_10
REMARK    3  A    between atoms: N_6  and  C_12
REMARK    4  A    between atoms: N_6  and  C_15
REMARK    5  A    between atoms: N_7  and  C_17
REMARK    6  A    between atoms: C_9  and  C_12
REMARK    7  A    between atoms: C_11  and  C_13
REMARK    8  A    between atoms: C_13  and  C_14
REMARK    9  A    between atoms: C_15  and  C_16
REMARK                            x       y       z     vdW  Elec       q    Type
REMARK                         _______ _______ _______ _____ _____    ______ ____
ROOT
ATOM      2  O   UNL     1      -5.293  -9.914  16.846  0.00  0.00    -0.366 OA
ATOM      8  C   UNL     1      -4.054 -11.886  16.364  0.00  0.00    +0.175 C 
ATOM      9  C   UNL     1      -4.764 -10.687  15.746  0.00  0.00    +0.163 C 
ATOM     10  C   UNL     1      -4.827 -12.080  17.653  0.00  0.00    +0.175 C 
ATOM     11  C   UNL     1      -5.090 -10.643  18.070  0.00  0.00    +0.158 C 
ENDROOT
BRANCH   8   3
ATOM      3  O   UNL     1      -2.707 -11.505  16.648  0.00  0.00    -0.387 OA
ATOM     28  H   UNL     1      -2.719 -10.568  16.907  0.00  0.00    +0.210 HD
ENDBRANCH   8   3
BRANCH  10   4
ATOM      4  O   UNL     1      -4.107 -12.794  18.635  0.00  0.00    -0.387 OA
ATOM     29  H   UNL     1      -3.970 -13.695  18.298  0.00  0.00    +0.210 HD
ENDBRANCH  10   4
BRANCH   9  12
ATOM     12  C   UNL     1      -5.930 -11.083  14.851  0.00  0.00    +0.115 C 
BRANCH  12   6
ATOM      6  N   UNL     1      -5.944 -10.293  13.628  0.00  0.00    -0.309 NA
ATOM     30  H   UNL     1      -6.900 -10.002  13.424  0.00  0.00    +0.122 HD
BRANCH   6  15
ATOM     15  C   UNL     1      -5.412 -11.058  12.507  0.00  0.00    +0.116 C 
BRANCH  15  16
ATOM      1  F   UNL     1      -0.649  -8.825  10.498  0.00  0.00    -0.205 F 
ATOM     16  C   UNL     1      -4.142 -10.462  11.971  0.00  0.00    -0.033 A 
ATOM     18  C   UNL     1      -2.931 -10.704  12.620  0.00  0.00    +0.008 A 
ATOM     19  C   UNL     1      -4.173  -9.668  10.824  0.00  0.00    +0.008 A 
ATOM     22  C   UNL     1      -1.751 -10.151  12.122  0.00  0.00    +0.038 A 
ATOM     23  C   UNL     1      -2.993  -9.115  10.328  0.00  0.00    +0.038 A 
ATOM     24  C   UNL     1      -1.782  -9.356  10.976  0.00  0.00    +0.123 A 
ENDBRANCH  15  16
ENDBRANCH   6  15
ENDBRANCH  12   6
ENDBRANCH   9  12
BRANCH  11  13
ATOM     13  C   UNL     1      -6.305 -10.488  18.966  0.00  0.00    +0.130 C 
BRANCH  13  14
ATOM      5  O   UNL     1      -8.309 -11.456  18.047  0.00  0.00    -0.275 OA
ATOM      7  N   UNL     1      -7.855  -9.178  17.694  0.00  0.00    -0.285 N 
ATOM     14  C   UNL     1      -7.611 -10.456  18.186  0.00  0.00    +0.220 C 
ATOM     31  H   UNL     1      -7.167  -8.456  17.901  0.00  0.00    +0.155 HD
BRANCH   7  17
ATOM     17  C   UNL     1      -8.961  -8.746  16.924  0.00  0.00    +0.033 A 
ATOM     20  C   UNL     1      -9.069  -9.126  15.586  0.00  0.00    +0.023 A 
ATOM     21  C   UNL     1      -9.943  -7.941  17.502  0.00  0.00    +0.023 A 
ATOM     25  C   UNL     1     -10.158  -8.701  14.826  0.00  0.00    +0.002 A 
ATOM     26  C   UNL     1     -11.032  -7.516  16.742  0.00  0.00    +0.002 A 
ATOM     27  C   UNL     1     -11.140  -7.896  15.404  0.00  0.00    +0.000 A 
ENDBRANCH   7  17
ENDBRANCH  13  14
ENDBRANCH  11  13
TORSDOF 9
ENDMDL
MODEL 7
REMARK VINA RESULT:      -6.9     26.367     28.579
REMARK  Name = 25390299
REMARK  9 active torsions:
REMARK  status: ('A' for Active; 'I' for Inactive)
REMARK    1  A    between atoms: O_3  and  C_8
REMARK    2  A    between atoms: O_4  and  C_10
REMARK    3  A    between atoms: N_6  and  C_12
REMARK    4  A    between atoms: N_6  and  C_15
REMARK    5  A    between atoms: N_7  and  C_17
REMARK    6  A    between atoms: C_9  and  C_12
REMARK    7  A    between atoms: C_11  and  C_13
REMARK    8  A    between atoms: C_13  and  C_14
REMARK    9  A    between atoms: C_15  and  C_16
REMARK                            x       y       z     vdW  Elec       q    Type
REMARK                         _______ _______ _______ _____ _____    ______ ____
ROOT
ATOM      2  O   UNL     1      -5.563 -13.013  17.588  0.00  0.00    -0.366 OA
ATOM      8  C   UNL     1      -7.520 -12.272  18.719  0.00  0.00    +0.175 C 
ATOM      9  C   UNL     1      -7.002 -12.954  17.458  0.00  0.00    +0.163 C 
ATOM     10  C   UNL     1      -6.352 -11.386  19.102  0.00  0.00    +0.175 C 
ATOM     11  C   UNL     1      -5.169 -12.276  18.759  0.00  0.00    +0.158 C 
ENDROOT
BRANCH   8   3
ATOM      3  O   UNL     1      -7.725 -13.277  19.713  0.00  0.00    -0.387 OA
ATOM     28  H   UNL     1      -8.641 -13.588  19.626  0.00  0.00    +0.210 HD
ENDBRANCH   8   3
BRANCH  10   4
ATOM      4  O   UNL     1      -6.357 -11.011  20.462  0.00  0.00    -0.387 OA
ATOM     29  H   UNL     1      -6.989 -11.589  20.922  0.00  0.00    +0.210 HD
ENDBRANCH  10   4
BRANCH   9  12
ATOM     12  C   UNL     1      -7.323 -12.178  16.188  0.00  0.00    +0.115 C 
BRANCH  12   6
ATOM      6  N   UNL     1      -6.181 -12.155  15.285  0.00  0.00    -0.309 NA
ATOM     30  H   UNL     1      -5.814 -11.205  15.228  0.00  0.00    +0.122 HD
BRANCH   6  15
ATOM     15  C   UNL     1      -6.558 -12.618  13.955  0.00  0.00    +0.116 C 
BRANCH  15  16
ATOM      1  F   UNL     1      -4.789  -9.108   9.923  0.00  0.00    -0.205 F 
ATOM     16  C   UNL     1      -6.087 -11.682  12.880  0.00  0.00    -0.033 A 
ATOM     18  C   UNL     1      -5.723 -10.374  13.203  0.00  0.00    +0.008 A 
ATOM     19  C   UNL     1      -6.010 -12.121  11.557  0.00  0.00    +0.008 A 
ATOM     22  C   UNL     1      -5.285  -9.505  12.204  0.00  0.00    +0.038 A 
ATOM     23  C   UNL     1      -5.572 -11.251  10.559  0.00  0.00    +0.038 A 
ATOM     24  C   UNL     1      -5.210  -9.943  10.882  0.00  0.00    +0.123 A 
ENDBRANCH  15  16
ENDBRANCH   6  15
ENDBRANCH  12   6
ENDBRANCH   9  12
BRANCH  11  13
ATOM     13  C   UNL     1      -3.896 -11.502  18.473  0.00  0.00    +0.130 C 
BRANCH  13  14
ATOM      5  O   UNL     1      -4.453 -10.012  16.666  0.00  0.00    -0.275 OA
ATOM      7  N   UNL     1      -2.974 -11.795  16.282  0.00  0.00    -0.285 N 
ATOM     14  C   UNL     1      -3.824 -10.996  17.040  0.00  0.00    +0.220 C 
ATOM     31  H   UNL     1      -2.527 -12.582  16.750  0.00  0.00    +0.155 HD
BRANCH   7  17
ATOM     17  C   UNL     1      -2.647 -11.651  14.912  0.00  0.00    +0.033 A 
ATOM     20  C   UNL     1      -2.818 -12.725  14.038  0.00  0.00    +0.023 A 
ATOM     21  C   UNL     1      -2.153 -10.436  14.436  0.00  0.00    +0.023 A 
ATOM     25  C   UNL     1      -2.496 -12.583  12.689  0.00  0.00    +0.002 A 
ATOM     26  C   UNL     1      -1.831 -10.295  13.087  0.00  0.00    +0.002 A 
ATOM     27  C   UNL     1      -2.003 -11.368  12.213  0.00  0.00    +0.000 A 
ENDBRANCH   7  17
ENDBRANCH  13  14
ENDBRANCH  11  13
TORSDOF 9
ENDMDL
MODEL 8
REMARK VINA RESULT:      -6.8      3.888      8.914
REMARK  Name = 25390299
REMARK  9 active torsions:
REMARK  status: ('A' for Active; 'I' for Inactive)
REMARK    1  A    between atoms: O_3  and  C_8
REMARK    2  A    between atoms: O_4  and  C_10
REMARK    3  A    between atoms: N_6  and  C_12
REMARK    4  A    between atoms: N_6  and  C_15
REMARK    5  A    between atoms: N_7  and  C_17
REMARK    6  A    between atoms: C_9  and  C_12
REMARK    7  A    between atoms: C_11  and  C_13
REMARK    8  A    between atoms: C_13  and  C_14
REMARK    9  A    between atoms: C_15  and  C_16
REMARK                            x       y       z     vdW  Elec       q    Type
REMARK                         _______ _______ _______ _____ _____    ______ ____
ROOT
ATOM      2  O   UNL     1      13.575   8.942  21.743  0.00  0.00    -0.366 OA
ATOM      8  C   UNL     1      13.673   6.816  20.682  0.00  0.00    +0.175 C 
ATOM      9  C   UNL     1      14.341   7.717  21.715  0.00  0.00    +0.163 C 
ATOM     10  C   UNL     1      13.063   7.825  19.731  0.00  0.00    +0.175 C 
ATOM     11  C   UNL     1      12.594   8.905  20.692  0.00  0.00    +0.158 C 
ENDROOT
BRANCH   8   3
ATOM      3  O   UNL     1      12.647   6.073  21.340  0.00  0.00    -0.387 OA
ATOM     28  H   UNL     1      12.775   5.137  21.113  0.00  0.00    +0.210 HD
ENDBRANCH   8   3
BRANCH  10   4
ATOM      4  O   UNL     1      12.001   7.300  18.965  0.00  0.00    -0.387 OA
ATOM     29  H   UNL     1      12.181   6.355  18.824  0.00  0.00    +0.210 HD
ENDBRANCH  10   4
BRANCH   9  12
ATOM     12  C   UNL     1      15.777   8.072  21.354  0.00  0.00    +0.115 C 
BRANCH  12   6
ATOM      6  N   UNL     1      16.670   6.947  21.591  0.00  0.00    -0.309 NA
ATOM     30  H   UNL     1      17.183   7.100  22.460  0.00  0.00    +0.122 HD
BRANCH   6  15
ATOM     15  C   UNL     1      17.608   6.784  20.488  0.00  0.00    +0.116 C 
BRANCH  15  16
ATOM      1  F   UNL     1      22.592   4.825  22.226  0.00  0.00    -0.205 F 
ATOM     16  C   UNL     1      18.937   6.262  20.952  0.00  0.00    -0.033 A 
ATOM     18  C   UNL     1      19.635   5.340  20.170  0.00  0.00    +0.008 A 
ATOM     19  C   UNL     1      19.474   6.699  22.163  0.00  0.00    +0.008 A 
ATOM     22  C   UNL     1      20.870   4.855  20.602  0.00  0.00    +0.038 A 
ATOM     23  C   UNL     1      20.709   6.213  22.593  0.00  0.00    +0.038 A 
ATOM     24  C   UNL     1      21.407   5.291  21.813  0.00  0.00    +0.123 A 
ENDBRANCH  15  16
ENDBRANCH   6  15
ENDBRANCH  12   6
ENDBRANCH   9  12
BRANCH  11  13
ATOM     13  C   UNL     1      12.479  10.274  20.049  0.00  0.00    +0.130 C 
BRANCH  13  14
ATOM      5  O   UNL     1      13.314  12.294  21.060  0.00  0.00    -0.275 OA
ATOM      7  N   UNL     1      11.404  11.257  21.950  0.00  0.00    -0.285 N 
ATOM     14  C   UNL     1      12.470  11.404  21.068  0.00  0.00    +0.220 C 
ATOM     31  H   UNL     1      10.792  10.454  21.817  0.00  0.00    +0.155 HD
BRANCH   7  17
ATOM     17  C   UNL     1      11.057  12.100  23.034  0.00  0.00    +0.033 A 
ATOM     20  C   UNL     1      10.548  13.375  22.789  0.00  0.00    +0.023 A 
ATOM     21  C   UNL     1      11.226  11.656  24.345  0.00  0.00    +0.023 A 
ATOM     25  C   UNL     1      10.207  14.206  23.855  0.00  0.00    +0.002 A 
ATOM     26  C   UNL     1      10.885  12.487  25.412  0.00  0.00    +0.002 A 
ATOM     27  C   UNL     1      10.376  13.762  25.167  0.00  0.00    +0.000 A 
ENDBRANCH   7  17
ENDBRANCH  13  14
ENDBRANCH  11  13
TORSDOF 9
ENDMDL
MODEL 9
REMARK VINA RESULT:      -6.8     27.587     30.122
REMARK  Name = 25390299
REMARK  9 active torsions:
REMARK  status: ('A' for Active; 'I' for Inactive)
REMARK    1  A    between atoms: O_3  and  C_8
REMARK    2  A    between atoms: O_4  and  C_10
REMARK    3  A    between atoms: N_6  and  C_12
REMARK    4  A    between atoms: N_6  and  C_15
REMARK    5  A    between atoms: N_7  and  C_17
REMARK    6  A    between atoms: C_9  and  C_12
REMARK    7  A    between atoms: C_11  and  C_13
REMARK    8  A    between atoms: C_13  and  C_14
REMARK    9  A    between atoms: C_15  and  C_16
REMARK                            x       y       z     vdW  Elec       q    Type
REMARK                         _______ _______ _______ _____ _____    ______ ____
ROOT
ATOM      2  O   UNL     1      -6.525 -11.716  17.609  0.00  0.00    -0.366 OA
ATOM      8  C   UNL     1      -4.617 -12.445  18.828  0.00  0.00    +0.175 C 
ATOM      9  C   UNL     1      -6.135 -12.308  18.869  0.00  0.00    +0.163 C 
ATOM     10  C   UNL     1      -4.223 -11.307  17.910  0.00  0.00    +0.175 C 
ATOM     11  C   UNL     1      -5.341 -11.342  16.882  0.00  0.00    +0.158 C 
ENDROOT
BRANCH   8   3
ATOM      3  O   UNL     1      -4.302 -13.700  18.224  0.00  0.00    -0.387 OA
ATOM     28  H   UNL     1      -3.334 -13.748  18.146  0.00  0.00    +0.210 HD
ENDBRANCH   8   3
BRANCH  10   4
ATOM      4  O   UNL     1      -2.954 -11.480  17.318  0.00  0.00    -0.387 OA
ATOM     29  H   UNL     1      -2.389 -11.935  17.966  0.00  0.00    +0.210 HD
ENDBRANCH  10   4
BRANCH   9  12
ATOM     12  C   UNL     1      -6.621 -11.394  19.984  0.00  0.00    +0.115 C 
BRANCH  12   6
ATOM      6  N   UNL     1      -7.972 -10.917  19.721  0.00  0.00    -0.309 NA
ATOM     30  H   UNL     1      -8.227 -10.220  20.420  0.00  0.00    +0.122 HD
BRANCH   6  15
ATOM     15  C   UNL     1      -8.928 -12.017  19.750  0.00  0.00    +0.116 C 
BRANCH  15  16
ATOM      1  F   UNL     1     -14.252 -10.187  19.685  0.00  0.00    -0.205 F 
ATOM     16  C   UNL     1     -10.347 -11.528  19.732  0.00  0.00    -0.033 A 
ATOM     18  C   UNL     1     -11.368 -12.367  19.283  0.00  0.00    +0.008 A 
ATOM     19  C   UNL     1     -10.646 -10.237  20.167  0.00  0.00    +0.008 A 
ATOM     22  C   UNL     1     -12.687 -11.914  19.266  0.00  0.00    +0.038 A 
ATOM     23  C   UNL     1     -11.966  -9.784  20.150  0.00  0.00    +0.038 A 
ATOM     24  C   UNL     1     -12.986 -10.622  19.700  0.00  0.00    +0.123 A 
ENDBRANCH  15  16
ENDBRANCH   6  15
ENDBRANCH  12   6
ENDBRANCH   9  12
BRANCH  11  13
ATOM     13  C   UNL     1      -5.565 -10.011  16.190  0.00  0.00    +0.130 C 
BRANCH  13  14
ATOM      5  O   UNL     1      -7.319  -9.996  14.540  0.00  0.00    -0.275 OA
ATOM      7  N   UNL     1      -7.824  -9.466  16.772  0.00  0.00    -0.285 N 
ATOM     14  C   UNL     1      -6.998  -9.829  15.712  0.00  0.00    +0.220 C 
ATOM     31  H   UNL     1      -7.394  -9.368  17.690  0.00  0.00    +0.155 HD
BRANCH   7  17
ATOM     17  C   UNL     1      -9.215  -9.207  16.733  0.00  0.00    +0.033 A 
ATOM     20  C   UNL     1     -10.100 -10.211  16.340  0.00  0.00    +0.023 A 
ATOM     21  C   UNL     1      -9.701  -7.949  17.088  0.00  0.00    +0.023 A 
ATOM     25  C   UNL     1     -11.470  -9.957  16.301  0.00  0.00    +0.002 A 
ATOM     26  C   UNL     1     -11.072  -7.694  17.049  0.00  0.00    +0.002 A 
ATOM     27  C   UNL     1     -11.956  -8.698  16.655  0.00  0.00    +0.000 A 
ENDBRANCH   7  17
ENDBRANCH  13  14
ENDBRANCH  11  13
TORSDOF 9
ENDMDL
MODEL 10
REMARK VINA RESULT:      -6.8      2.127      2.799
REMARK  Name = 25390299
REMARK  9 active torsions:
REMARK  status: ('A' for Active; 'I' for Inactive)
REMARK    1  A    between atoms: O_3  and  C_8
REMARK    2  A    between atoms: O_4  and  C_10
REMARK    3  A    between atoms: N_6  and  C_12
REMARK    4  A    between atoms: N_6  and  C_15
REMARK    5  A    between atoms: N_7  and  C_17
REMARK    6  A    between atoms: C_9  and  C_12
REMARK    7  A    between atoms: C_11  and  C_13
REMARK    8  A    between atoms: C_13  and  C_14
REMARK    9  A    between atoms: C_15  and  C_16
REMARK                            x       y       z     vdW  Elec       q    Type
REMARK                         _______ _______ _______ _____ _____    ______ ____
ROOT
ATOM      2  O   UNL     1      12.529   9.299  20.386  0.00  0.00    -0.366 OA
ATOM      8  C   UNL     1      11.334   8.769  22.373  0.00  0.00    +0.175 C 
ATOM      9  C   UNL     1      12.495   9.577  21.804  0.00  0.00    +0.163 C 
ATOM     10  C   UNL     1      11.271   7.594  21.419  0.00  0.00    +0.175 C 
ATOM     11  C   UNL     1      11.576   8.263  20.090  0.00  0.00    +0.158 C 
ENDROOT
BRANCH   8   3
ATOM      3  O   UNL     1      10.150   9.559  22.265  0.00  0.00    -0.387 OA
ATOM     28  H   UNL     1      10.426  10.472  22.078  0.00  0.00    +0.210 HD
ENDBRANCH   8   3
BRANCH  10   4
ATOM      4  O   UNL     1      10.016   6.947  21.412  0.00  0.00    -0.387 OA
ATOM     29  H   UNL     1      10.124   6.097  21.870  0.00  0.00    +0.210 HD
ENDBRANCH  10   4
BRANCH   9  12
ATOM     12  C   UNL     1      13.842   9.176  22.390  0.00  0.00    +0.115 C 
BRANCH  12   6
ATOM      6  N   UNL     1      14.601  10.347  22.807  0.00  0.00    -0.309 NA
ATOM     30  H   UNL     1      15.054  10.156  23.701  0.00  0.00    +0.122 HD
BRANCH   6  15
ATOM     15  C   UNL     1      13.734  11.512  22.934  0.00  0.00    +0.116 C 
BRANCH  15  16
ATOM      1  F   UNL     1      13.875  13.688  28.125  0.00  0.00    -0.205 F 
ATOM     16  C   UNL     1      13.771  12.092  24.318  0.00  0.00    -0.033 A 
ATOM     18  C   UNL     1      14.752  11.680  25.222  0.00  0.00    +0.008 A 
ATOM     19  C   UNL     1      12.827  13.046  24.701  0.00  0.00    +0.008 A 
ATOM     22  C   UNL     1      14.786  12.218  26.508  0.00  0.00    +0.038 A 
ATOM     23  C   UNL     1      12.862  13.584  25.987  0.00  0.00    +0.038 A 
ATOM     24  C   UNL     1      13.841  13.171  26.891  0.00  0.00    +0.123 A 
ENDBRANCH  15  16
ENDBRANCH   6  15
ENDBRANCH  12   6
ENDBRANCH   9  12
BRANCH  11  13
ATOM     13  C   UNL     1      12.154   7.315  19.056  0.00  0.00    +0.130 C 
BRANCH  13  14
ATOM      5  O   UNL     1      14.160   8.213  18.072  0.00  0.00    -0.275 OA
ATOM      7  N   UNL     1      14.326   6.643  19.811  0.00  0.00    -0.285 N 
ATOM     14  C   UNL     1      13.661   7.460  18.902  0.00  0.00    +0.220 C 
ATOM     31  H   UNL     1      13.756   6.074  20.435  0.00  0.00    +0.155 HD
BRANCH   7  17
ATOM     17  C   UNL     1      15.724   6.497  19.979  0.00  0.00    +0.033 A 
ATOM     20  C   UNL     1      16.329   6.905  21.168  0.00  0.00    +0.023 A 
ATOM     21  C   UNL     1      16.496   5.946  18.956  0.00  0.00    +0.023 A 
ATOM     25  C   UNL     1      17.706   6.762  21.333  0.00  0.00    +0.002 A 
ATOM     26  C   UNL     1      17.873   5.803  19.122  0.00  0.00    +0.002 A 
ATOM     27  C   UNL     1      18.478   6.211  20.310  0.00  0.00    +0.000 A 
ENDBRANCH   7  17
ENDBRANCH  13  14
ENDBRANCH  11  13
TORSDOF 9
ENDMDL
