MODEL 1
REMARK VINA RESULT:      -7.7      0.000      0.000
REMARK  Name = 45784060
REMARK  3 active torsions:
REMARK  status: ('A' for Active; 'I' for Inactive)
REMARK    1  A    between atoms: C_8  and  C_15
REMARK    2  A    between atoms: C_9  and  C_19
REMARK    3  A    between atoms: C_24  and  C_26
REMARK                            x       y       z     vdW  Elec       q    Type
REMARK                         _______ _______ _______ _____ _____    ______ ____
ROOT
ATOM      6  N   UNL     1      14.038   7.551  21.282  0.00  0.00    -0.342 N 
ATOM      7  N   UNL     1      13.689   6.957  19.169  0.00  0.00    -0.232 NA
ATOM     19  C   UNL     1      13.133   7.420  20.266  0.00  0.00    +0.113 A 
ATOM     20  C   UNL     1      15.259   7.146  20.810  0.00  0.00    +0.067 A 
ATOM     21  C   UNL     1      15.016   6.779  19.490  0.00  0.00    +0.089 A 
ATOM     22  C   UNL     1      16.518   7.071  21.406  0.00  0.00    +0.040 A 
ATOM     23  C   UNL     1      16.079   6.308  18.702  0.00  0.00    +0.030 A 
ATOM     24  C   UNL     1      17.565   6.598  20.608  0.00  0.00    +0.057 A 
ATOM     25  C   UNL     1      17.352   6.223  19.280  0.00  0.00    +0.014 A 
ATOM     27  H   UNL     1      13.843   7.889  22.216  0.00  0.00    +0.167 HD
ENDROOT
BRANCH  19   9
ATOM      4  O   UNL     1      11.362  12.002  21.261  0.00  0.00    -0.275 OA
ATOM      5  N   UNL     1      11.402   9.749  21.772  0.00  0.00    -0.301 N 
ATOM      9  C   UNL     1      11.671   7.787  20.457  0.00  0.00    +0.074 C 
ATOM     10  C   UNL     1      11.324   9.279  20.394  0.00  0.00    +0.119 C 
ATOM     11  C   UNL     1      11.169   7.402  21.857  0.00  0.00    +0.032 C 
ATOM     12  C   UNL     1      11.467   8.631  22.707  0.00  0.00    +0.108 C 
ATOM     15  C   UNL     1      11.420  11.094  22.093  0.00  0.00    +0.219 C 
BRANCH  15   8
ATOM      8  C   UNL     1      11.509  11.408  23.555  0.00  0.00    +0.075 C 
ATOM     13  C   UNL     1      10.545  12.550  23.885  0.00  0.00    +0.013 C 
ATOM     14  C   UNL     1      12.950  11.767  23.922  0.00  0.00    +0.013 C 
ATOM     16  C   UNL     1      10.665  12.979  25.345  0.00  0.00    +0.001 C 
ATOM     17  C   UNL     1      13.065  12.194  25.383  0.00  0.00    +0.001 C 
ATOM     18  C   UNL     1      12.104  13.333  25.712  0.00  0.00    +0.000 C 
ENDBRANCH  15   8
ENDBRANCH  19   9
BRANCH  24  26
ATOM      1  F   UNL     1      18.920   6.315  22.542  0.00  0.00    -0.166 F 
ATOM      2  F   UNL     1      19.665   5.454  20.690  0.00  0.00    -0.166 F 
ATOM      3  F   UNL     1      19.704   7.604  20.976  0.00  0.00    -0.166 F 
ATOM     26  C   UNL     1      18.938   6.495  21.190  0.00  0.00    +0.417 C 
ENDBRANCH  24  26
TORSDOF 3
ENDMDL
MODEL 2
REMARK VINA RESULT:      -7.6      4.285      5.973
REMARK  Name = 45784060
REMARK  3 active torsions:
REMARK  status: ('A' for Active; 'I' for Inactive)
REMARK    1  A    between atoms: C_8  and  C_15
REMARK    2  A    between atoms: C_9  and  C_19
REMARK    3  A    between atoms: C_24  and  C_26
REMARK                            x       y       z     vdW  Elec       q    Type
REMARK                         _______ _______ _______ _____ _____    ______ ____
ROOT
ATOM      6  N   UNL     1      16.261   6.248  18.940  0.00  0.00    -0.342 N 
ATOM      7  N   UNL     1      15.978   8.025  20.244  0.00  0.00    -0.232 NA
ATOM     19  C   UNL     1      15.442   7.281  19.303  0.00  0.00    +0.113 A 
ATOM     20  C   UNL     1      17.401   6.330  19.697  0.00  0.00    +0.067 A 
ATOM     21  C   UNL     1      17.200   7.448  20.503  0.00  0.00    +0.089 A 
ATOM     22  C   UNL     1      18.555   5.548  19.745  0.00  0.00    +0.040 A 
ATOM     23  C   UNL     1      18.199   7.821  21.418  0.00  0.00    +0.030 A 
ATOM     24  C   UNL     1      19.540   5.935  20.660  0.00  0.00    +0.057 A 
ATOM     25  C   UNL     1      19.368   7.051  21.482  0.00  0.00    +0.014 A 
ATOM     27  H   UNL     1      16.062   5.546  18.239  0.00  0.00    +0.167 HD
ENDROOT
BRANCH  19   9
ATOM      4  O   UNL     1      14.639   9.130  14.714  0.00  0.00    -0.275 OA
ATOM      5  N   UNL     1      14.137   9.162  16.970  0.00  0.00    -0.301 N 
ATOM      9  C   UNL     1      14.086   7.481  18.649  0.00  0.00    +0.074 C 
ATOM     10  C   UNL     1      14.081   7.715  17.134  0.00  0.00    +0.119 C 
ATOM     11  C   UNL     1      13.388   8.747  19.169  0.00  0.00    +0.032 C 
ATOM     12  C   UNL     1      13.871   9.846  18.230  0.00  0.00    +0.108 C 
ATOM     15  C   UNL     1      14.421   9.756  15.753  0.00  0.00    +0.219 C 
BRANCH  15   8
ATOM      8  C   UNL     1      14.446  11.254  15.756  0.00  0.00    +0.075 C 
ATOM     13  C   UNL     1      13.796  11.771  14.471  0.00  0.00    +0.013 C 
ATOM     14  C   UNL     1      15.886  11.750  15.895  0.00  0.00    +0.013 C 
ATOM     16  C   UNL     1      13.881  13.292  14.374  0.00  0.00    +0.001 C 
ATOM     17  C   UNL     1      15.966  13.271  15.798  0.00  0.00    +0.001 C 
ATOM     18  C   UNL     1      15.318  13.787  14.517  0.00  0.00    +0.000 C 
ENDBRANCH  15   8
ENDBRANCH  19   9
BRANCH  24  26
ATOM      1  F   UNL     1      21.338   5.164  22.011  0.00  0.00    -0.166 F 
ATOM      2  F   UNL     1      20.633   3.816  20.458  0.00  0.00    -0.166 F 
ATOM      3  F   UNL     1      21.787   5.574  19.923  0.00  0.00    -0.166 F 
ATOM     26  C   UNL     1      20.799   5.137  20.759  0.00  0.00    +0.417 C 
ENDBRANCH  24  26
TORSDOF 3
ENDMDL
MODEL 3
REMARK VINA RESULT:      -7.5     16.453     19.563
REMARK  Name = 45784060
REMARK  3 active torsions:
REMARK  status: ('A' for Active; 'I' for Inactive)
REMARK    1  A    between atoms: C_8  and  C_15
REMARK    2  A    between atoms: C_9  and  C_19
REMARK    3  A    between atoms: C_24  and  C_26
REMARK                            x       y       z     vdW  Elec       q    Type
REMARK                         _______ _______ _______ _____ _____    ______ ____
ROOT
ATOM      6  N   UNL     1       9.596   6.069   4.558  0.00  0.00    -0.342 N 
ATOM      7  N   UNL     1       9.091   8.212   4.868  0.00  0.00    -0.232 NA
ATOM     19  C   UNL     1       9.393   7.291   3.980  0.00  0.00    +0.113 A 
ATOM     20  C   UNL     1       9.412   6.210   5.909  0.00  0.00    +0.067 A 
ATOM     21  C   UNL     1       9.099   7.555   6.078  0.00  0.00    +0.089 A 
ATOM     22  C   UNL     1       9.492   5.303   6.966  0.00  0.00    +0.040 A 
ATOM     23  C   UNL     1       8.846   8.043   7.371  0.00  0.00    +0.030 A 
ATOM     24  C   UNL     1       9.238   5.806   8.247  0.00  0.00    +0.057 A 
ATOM     25  C   UNL     1       8.921   7.151   8.448  0.00  0.00    +0.014 A 
ATOM     27  H   UNL     1       9.836   5.213   4.076  0.00  0.00    +0.167 HD
ENDROOT
BRANCH  19   9
ATOM      4  O   UNL     1      11.204   3.935   0.727  0.00  0.00    -0.275 OA
ATOM      5  N   UNL     1      11.204   6.101   1.533  0.00  0.00    -0.301 N 
ATOM      9  C   UNL     1       9.520   7.486   2.479  0.00  0.00    +0.074 C 
ATOM     10  C   UNL     1       9.756   6.224   1.640  0.00  0.00    +0.119 C 
ATOM     11  C   UNL     1      10.745   8.340   2.120  0.00  0.00    +0.032 C 
ATOM     12  C   UNL     1      11.871   7.325   1.964  0.00  0.00    +0.108 C 
ATOM     15  C   UNL     1      11.816   4.945   1.082  0.00  0.00    +0.219 C 
BRANCH  15   8
ATOM      8  C   UNL     1      13.312   4.981   1.037  0.00  0.00    +0.075 C 
ATOM     13  C   UNL     1      13.766   5.336  -0.381  0.00  0.00    +0.013 C 
ATOM     14  C   UNL     1      13.879   3.633   1.486  0.00  0.00    +0.013 C 
ATOM     16  C   UNL     1      15.286   5.291  -0.510  0.00  0.00    +0.001 C 
ATOM     17  C   UNL     1      15.399   3.594   1.356  0.00  0.00    +0.001 C 
ATOM     18  C   UNL     1      15.851   3.947  -0.058  0.00  0.00    +0.000 C 
ENDBRANCH  15   8
ENDBRANCH  19   9
BRANCH  24  26
ATOM      1  F   UNL     1       9.450   3.578   9.052  0.00  0.00    -0.166 F 
ATOM      2  F   UNL     1      10.353   5.145  10.258  0.00  0.00    -0.166 F 
ATOM      3  F   UNL     1       8.195   4.924  10.211  0.00  0.00    -0.166 F 
ATOM     26  C   UNL     1       9.308   4.883   9.421  0.00  0.00    +0.417 C 
ENDBRANCH  24  26
TORSDOF 3
ENDMDL
MODEL 4
REMARK VINA RESULT:      -7.5     27.262     28.944
REMARK  Name = 45784060
REMARK  3 active torsions:
REMARK  status: ('A' for Active; 'I' for Inactive)
REMARK    1  A    between atoms: C_8  and  C_15
REMARK    2  A    between atoms: C_9  and  C_19
REMARK    3  A    between atoms: C_24  and  C_26
REMARK                            x       y       z     vdW  Elec       q    Type
REMARK                         _______ _______ _______ _____ _____    ______ ____
ROOT
ATOM      6  N   UNL     1      -3.048 -12.158  11.664  0.00  0.00    -0.342 N 
ATOM      7  N   UNL     1      -2.432 -10.105  12.254  0.00  0.00    -0.232 NA
ATOM     19  C   UNL     1      -2.425 -11.374  12.595  0.00  0.00    +0.113 A 
ATOM     20  C   UNL     1      -3.487 -11.340  10.655  0.00  0.00    +0.067 A 
ATOM     21  C   UNL     1      -3.091 -10.064  11.047  0.00  0.00    +0.089 A 
ATOM     22  C   UNL     1      -4.176 -11.598   9.470  0.00  0.00    +0.040 A 
ATOM     23  C   UNL     1      -3.390  -8.969  10.218  0.00  0.00    +0.030 A 
ATOM     24  C   UNL     1      -4.466 -10.497   8.658  0.00  0.00    +0.057 A 
ATOM     25  C   UNL     1      -4.082  -9.205   9.023  0.00  0.00    +0.014 A 
ATOM     27  H   UNL     1      -3.164 -13.162  11.709  0.00  0.00    +0.167 HD
ENDROOT
BRANCH  19   9
ATOM      4  O   UNL     1      -4.960 -13.583  16.312  0.00  0.00    -0.275 OA
ATOM      5  N   UNL     1      -3.369 -12.042  15.653  0.00  0.00    -0.301 N 
ATOM      9  C   UNL     1      -1.819 -11.973  13.852  0.00  0.00    +0.074 C 
ATOM     10  C   UNL     1      -2.719 -12.904  14.673  0.00  0.00    +0.119 C 
ATOM     11  C   UNL     1      -1.460 -10.889  14.880  0.00  0.00    +0.032 C 
ATOM     12  C   UNL     1      -2.730 -10.732  15.709  0.00  0.00    +0.108 C 
ATOM     15  C   UNL     1      -4.457 -12.461  16.398  0.00  0.00    +0.219 C 
BRANCH  15   8
ATOM      8  C   UNL     1      -5.011 -11.451  17.356  0.00  0.00    +0.075 C 
ATOM     13  C   UNL     1      -5.023 -12.047  18.765  0.00  0.00    +0.013 C 
ATOM     14  C   UNL     1      -6.412 -11.029  16.913  0.00  0.00    +0.013 C 
ATOM     16  C   UNL     1      -5.669 -11.097  19.769  0.00  0.00    +0.001 C 
ATOM     17  C   UNL     1      -7.055 -10.078  17.920  0.00  0.00    +0.001 C 
ATOM     18  C   UNL     1      -7.067 -10.673  19.325  0.00  0.00    +0.000 C 
ENDBRANCH  15   8
ENDBRANCH  19   9
BRANCH  24  26
ATOM      1  F   UNL     1      -4.457 -11.381   6.451  0.00  0.00    -0.166 F 
ATOM      2  F   UNL     1      -6.351 -11.432   7.518  0.00  0.00    -0.166 F 
ATOM      3  F   UNL     1      -5.582  -9.547   6.767  0.00  0.00    -0.166 F 
ATOM     26  C   UNL     1      -5.202 -10.709   7.375  0.00  0.00    +0.417 C 
ENDBRANCH  24  26
TORSDOF 3
ENDMDL
MODEL 5
REMARK VINA RESULT:      -7.5     26.517     28.639
REMARK  Name = 45784060
REMARK  3 active torsions:
REMARK  status: ('A' for Active; 'I' for Inactive)
REMARK    1  A    between atoms: C_8  and  C_15
REMARK    2  A    between atoms: C_9  and  C_19
REMARK    3  A    between atoms: C_24  and  C_26
REMARK                            x       y       z     vdW  Elec       q    Type
REMARK                         _______ _______ _______ _____ _____    ______ ____
ROOT
ATOM      6  N   UNL     1      -4.808 -11.818  16.155  0.00  0.00    -0.342 N 
ATOM      7  N   UNL     1      -3.225 -11.231  17.601  0.00  0.00    -0.232 NA
ATOM     19  C   UNL     1      -4.421 -11.759  17.465  0.00  0.00    +0.113 A 
ATOM     20  C   UNL     1      -3.795 -11.292  15.395  0.00  0.00    +0.067 A 
ATOM     21  C   UNL     1      -2.819 -10.932  16.320  0.00  0.00    +0.089 A 
ATOM     22  C   UNL     1      -3.654 -11.105  14.020  0.00  0.00    +0.040 A 
ATOM     23  C   UNL     1      -1.624 -10.352  15.864  0.00  0.00    +0.030 A 
ATOM     24  C   UNL     1      -2.458 -10.525  13.583  0.00  0.00    +0.057 A 
ATOM     25  C   UNL     1      -1.460 -10.154  14.487  0.00  0.00    +0.014 A 
ATOM     27  H   UNL     1      -5.684 -12.184  15.807  0.00  0.00    +0.167 HD
ENDROOT
BRANCH  19   9
ATOM      4  O   UNL     1      -9.383 -12.399  17.165  0.00  0.00    -0.275 OA
ATOM      5  N   UNL     1      -7.570 -11.542  18.314  0.00  0.00    -0.301 N 
ATOM      9  C   UNL     1      -5.321 -12.266  18.578  0.00  0.00    +0.074 C 
ATOM     10  C   UNL     1      -6.727 -12.723  18.171  0.00  0.00    +0.119 C 
ATOM     11  C   UNL     1      -5.630 -11.163  19.603  0.00  0.00    +0.032 C 
ATOM     12  C   UNL     1      -6.883 -10.491  19.056  0.00  0.00    +0.108 C 
ATOM     15  C   UNL     1      -8.847 -11.479  17.785  0.00  0.00    +0.219 C 
BRANCH  15   8
ATOM      8  C   UNL     1      -9.578 -10.192  18.017  0.00  0.00    +0.075 C 
ATOM     13  C   UNL     1     -11.083 -10.464  18.033  0.00  0.00    +0.013 C 
ATOM     14  C   UNL     1      -9.203  -9.179  16.934  0.00  0.00    +0.013 C 
ATOM     16  C   UNL     1     -11.884  -9.171  18.168  0.00  0.00    +0.001 C 
ATOM     17  C   UNL     1     -10.005  -7.888  17.073  0.00  0.00    +0.001 C 
ATOM     18  C   UNL     1     -11.507  -8.159  17.089  0.00  0.00    +0.000 C 
ENDBRANCH  15   8
ENDBRANCH  19   9
BRANCH  24  26
ATOM      1  F   UNL     1      -3.236  -9.546  11.561  0.00  0.00    -0.166 F 
ATOM      2  F   UNL     1      -1.082  -9.650  11.833  0.00  0.00    -0.166 F 
ATOM      3  F   UNL     1      -2.205 -11.453  11.393  0.00  0.00    -0.166 F 
ATOM     26  C   UNL     1      -2.247 -10.299  12.121  0.00  0.00    +0.417 C 
ENDBRANCH  24  26
TORSDOF 3
ENDMDL
MODEL 6
REMARK VINA RESULT:      -7.2      2.018      3.010
REMARK  Name = 45784060
REMARK  3 active torsions:
REMARK  status: ('A' for Active; 'I' for Inactive)
REMARK    1  A    between atoms: C_8  and  C_15
REMARK    2  A    between atoms: C_9  and  C_19
REMARK    3  A    between atoms: C_24  and  C_26
REMARK                            x       y       z     vdW  Elec       q    Type
REMARK                         _______ _______ _______ _____ _____    ______ ____
ROOT
ATOM      6  N   UNL     1      16.630   6.150  19.081  0.00  0.00    -0.342 N 
ATOM      7  N   UNL     1      16.497   7.956  20.370  0.00  0.00    -0.232 NA
ATOM     19  C   UNL     1      15.891   7.239  19.450  0.00  0.00    +0.113 A 
ATOM     20  C   UNL     1      17.791   6.165  19.811  0.00  0.00    +0.067 A 
ATOM     21  C   UNL     1      17.684   7.301  20.607  0.00  0.00    +0.089 A 
ATOM     22  C   UNL     1      18.891   5.308  19.842  0.00  0.00    +0.040 A 
ATOM     23  C   UNL     1      18.727   7.617  21.494  0.00  0.00    +0.030 A 
ATOM     24  C   UNL     1      19.921   5.638  20.730  0.00  0.00    +0.057 A 
ATOM     25  C   UNL     1      19.843   6.771  21.542  0.00  0.00    +0.014 A 
ATOM     27  H   UNL     1      16.369   5.455  18.393  0.00  0.00    +0.167 HD
ENDROOT
BRANCH  19   9
ATOM      4  O   UNL     1      13.586  11.688  19.331  0.00  0.00    -0.275 OA
ATOM      5  N   UNL     1      13.484   9.425  19.787  0.00  0.00    -0.301 N 
ATOM      9  C   UNL     1      14.536   7.523  18.825  0.00  0.00    +0.074 C 
ATOM     10  C   UNL     1      14.186   8.996  18.583  0.00  0.00    +0.119 C 
ATOM     11  C   UNL     1      13.386   7.068  19.736  0.00  0.00    +0.032 C 
ATOM     12  C   UNL     1      13.105   8.283  20.611  0.00  0.00    +0.108 C 
ATOM     15  C   UNL     1      13.244  10.759  20.065  0.00  0.00    +0.219 C 
BRANCH  15   8
ATOM      8  C   UNL     1      12.516  11.031  21.345  0.00  0.00    +0.075 C 
ATOM     13  C   UNL     1      11.662  12.290  21.182  0.00  0.00    +0.013 C 
ATOM     14  C   UNL     1      13.518  11.176  22.492  0.00  0.00    +0.013 C 
ATOM     16  C   UNL     1      10.972  12.671  22.489  0.00  0.00    +0.001 C 
ATOM     17  C   UNL     1      12.822  11.557  23.797  0.00  0.00    +0.001 C 
ATOM     18  C   UNL     1      11.971  12.813  23.634  0.00  0.00    +0.000 C 
ENDBRANCH  15   8
ENDBRANCH  19   9
BRANCH  24  26
ATOM      1  F   UNL     1      20.827   3.443  20.609  0.00  0.00    -0.166 F 
ATOM      2  F   UNL     1      22.085   5.063  19.887  0.00  0.00    -0.166 F 
ATOM      3  F   UNL     1      21.760   4.812  22.017  0.00  0.00    -0.166 F 
ATOM     26  C   UNL     1      21.126   4.758  20.809  0.00  0.00    +0.417 C 
ENDBRANCH  24  26
TORSDOF 3
ENDMDL
MODEL 7
REMARK VINA RESULT:      -7.2     27.859     30.051
REMARK  Name = 45784060
REMARK  3 active torsions:
REMARK  status: ('A' for Active; 'I' for Inactive)
REMARK    1  A    between atoms: C_8  and  C_15
REMARK    2  A    between atoms: C_9  and  C_19
REMARK    3  A    between atoms: C_24  and  C_26
REMARK                            x       y       z     vdW  Elec       q    Type
REMARK                         _______ _______ _______ _____ _____    ______ ____
ROOT
ATOM      6  N   UNL     1     -15.402   4.529  22.759  0.00  0.00    -0.342 N 
ATOM      7  N   UNL     1     -16.517   6.219  23.678  0.00  0.00    -0.232 NA
ATOM     19  C   UNL     1     -16.460   4.913  23.535  0.00  0.00    +0.113 A 
ATOM     20  C   UNL     1     -14.732   5.662  22.375  0.00  0.00    +0.067 A 
ATOM     21  C   UNL     1     -15.447   6.703  22.960  0.00  0.00    +0.089 A 
ATOM     22  C   UNL     1     -13.597   5.859  21.589  0.00  0.00    +0.040 A 
ATOM     23  C   UNL     1     -15.018   8.026  22.761  0.00  0.00    +0.030 A 
ATOM     24  C   UNL     1     -13.184   7.182  21.400  0.00  0.00    +0.057 A 
ATOM     25  C   UNL     1     -13.881   8.248  21.974  0.00  0.00    +0.014 A 
ATOM     27  H   UNL     1     -15.156   3.579  22.513  0.00  0.00    +0.167 HD
ENDROOT
BRANCH  19   9
ATOM      4  O   UNL     1     -17.435   4.298  28.413  0.00  0.00    -0.275 OA
ATOM      5  N   UNL     1     -16.869   3.356  26.380  0.00  0.00    -0.301 N 
ATOM      9  C   UNL     1     -17.415   3.893  24.130  0.00  0.00    +0.074 C 
ATOM     10  C   UNL     1     -17.833   4.111  25.589  0.00  0.00    +0.119 C 
ATOM     11  C   UNL     1     -16.786   2.492  24.185  0.00  0.00    +0.032 C 
ATOM     12  C   UNL     1     -16.089   2.454  25.540  0.00  0.00    +0.108 C 
ATOM     15  C   UNL     1     -16.747   3.520  27.748  0.00  0.00    +0.219 C 
BRANCH  15   8
ATOM      8  C   UNL     1     -15.705   2.671  28.410  0.00  0.00    +0.075 C 
ATOM     13  C   UNL     1     -16.374   1.441  29.027  0.00  0.00    +0.013 C 
ATOM     14  C   UNL     1     -14.959   3.492  29.464  0.00  0.00    +0.013 C 
ATOM     16  C   UNL     1     -15.373   0.589  29.801  0.00  0.00    +0.001 C 
ATOM     17  C   UNL     1     -13.958   2.635  30.234  0.00  0.00    +0.001 C 
ATOM     18  C   UNL     1     -14.626   1.408  30.850  0.00  0.00    +0.000 C 
ENDBRANCH  15   8
ENDBRANCH  19   9
BRANCH  24  26
ATOM      1  F   UNL     1     -11.712   8.792  20.453  0.00  0.00    -0.166 F 
ATOM      2  F   UNL     1     -10.832   6.900  21.064  0.00  0.00    -0.166 F 
ATOM      3  F   UNL     1     -12.076   6.991  19.289  0.00  0.00    -0.166 F 
ATOM     26  C   UNL     1     -11.974   7.458  20.568  0.00  0.00    +0.417 C 
ENDBRANCH  24  26
TORSDOF 3
ENDMDL
MODEL 8
REMARK VINA RESULT:      -7.2     26.715     29.153
REMARK  Name = 45784060
REMARK  3 active torsions:
REMARK  status: ('A' for Active; 'I' for Inactive)
REMARK    1  A    between atoms: C_8  and  C_15
REMARK    2  A    between atoms: C_9  and  C_19
REMARK    3  A    between atoms: C_24  and  C_26
REMARK                            x       y       z     vdW  Elec       q    Type
REMARK                         _______ _______ _______ _____ _____    ______ ____
ROOT
ATOM      6  N   UNL     1       4.339   4.392  -5.495  0.00  0.00    -0.342 N 
ATOM      7  N   UNL     1       3.084   5.884  -4.429  0.00  0.00    -0.232 NA
ATOM     19  C   UNL     1       4.254   5.656  -4.981  0.00  0.00    +0.113 A 
ATOM     20  C   UNL     1       3.144   3.763  -5.259  0.00  0.00    +0.067 A 
ATOM     21  C   UNL     1       2.378   4.714  -4.592  0.00  0.00    +0.089 A 
ATOM     22  C   UNL     1       2.682   2.482  -5.562  0.00  0.00    +0.040 A 
ATOM     23  C   UNL     1       1.070   4.386  -4.197  0.00  0.00    +0.030 A 
ATOM     24  C   UNL     1       1.378   2.172  -5.160  0.00  0.00    +0.057 A 
ATOM     25  C   UNL     1       0.585   3.105  -4.490  0.00  0.00    +0.014 A 
ATOM     27  H   UNL     1       5.139   3.991  -5.968  0.00  0.00    +0.167 HD
ENDROOT
BRANCH  19   9
ATOM      4  O   UNL     1       8.957   4.485  -6.261  0.00  0.00    -0.275 OA
ATOM      5  N   UNL     1       7.516   5.544  -4.797  0.00  0.00    -0.301 N 
ATOM      9  C   UNL     1       5.418   6.627  -5.075  0.00  0.00    +0.074 C 
ATOM     10  C   UNL     1       6.665   6.135  -5.821  0.00  0.00    +0.119 C 
ATOM     11  C   UNL     1       5.990   6.963  -3.689  0.00  0.00    +0.032 C 
ATOM     12  C   UNL     1       7.053   5.895  -3.459  0.00  0.00    +0.108 C 
ATOM     15  C   UNL     1       8.606   4.751  -5.110  0.00  0.00    +0.219 C 
BRANCH  15   8
ATOM      8  C   UNL     1       9.373   4.217  -3.940  0.00  0.00    +0.075 C 
ATOM     13  C   UNL     1      10.759   4.864  -3.907  0.00  0.00    +0.013 C 
ATOM     14  C   UNL     1       9.468   2.693  -4.032  0.00  0.00    +0.013 C 
ATOM     16  C   UNL     1      11.623   4.284  -2.791  0.00  0.00    +0.001 C 
ATOM     17  C   UNL     1      10.332   2.117  -2.913  0.00  0.00    +0.001 C 
ATOM     18  C   UNL     1      11.714   2.763  -2.881  0.00  0.00    +0.000 C 
ENDBRANCH  15   8
ENDBRANCH  19   9
BRANCH  24  26
ATOM      1  F   UNL     1       1.668  -0.187  -5.072  0.00  0.00    -0.166 F 
ATOM      2  F   UNL     1      -0.359   0.561  -4.830  0.00  0.00    -0.166 F 
ATOM      3  F   UNL     1       0.584   0.604  -6.783  0.00  0.00    -0.166 F 
ATOM     26  C   UNL     1       0.826   0.815  -5.456  0.00  0.00    +0.417 C 
ENDBRANCH  24  26
TORSDOF 3
ENDMDL
MODEL 9
REMARK VINA RESULT:      -7.2      5.799     10.728
REMARK  Name = 45784060
REMARK  3 active torsions:
REMARK  status: ('A' for Active; 'I' for Inactive)
REMARK    1  A    between atoms: C_8  and  C_15
REMARK    2  A    between atoms: C_9  and  C_19
REMARK    3  A    between atoms: C_24  and  C_26
REMARK                            x       y       z     vdW  Elec       q    Type
REMARK                         _______ _______ _______ _____ _____    ______ ____
ROOT
ATOM      6  N   UNL     1      18.800   7.622  22.080  0.00  0.00    -0.342 N 
ATOM      7  N   UNL     1      19.782   6.417  20.491  0.00  0.00    -0.232 NA
ATOM     19  C   UNL     1      19.970   7.107  21.594  0.00  0.00    +0.113 A 
ATOM     20  C   UNL     1      17.791   7.239  21.236  0.00  0.00    +0.067 A 
ATOM     21  C   UNL     1      18.428   6.489  20.252  0.00  0.00    +0.089 A 
ATOM     22  C   UNL     1      16.416   7.478  21.247  0.00  0.00    +0.040 A 
ATOM     23  C   UNL     1      17.665   5.935  19.210  0.00  0.00    +0.030 A 
ATOM     24  C   UNL     1      15.672   6.921  20.202  0.00  0.00    +0.057 A 
ATOM     25  C   UNL     1      16.283   6.163  19.201  0.00  0.00    +0.014 A 
ATOM     27  H   UNL     1      18.697   8.184  22.915  0.00  0.00    +0.167 HD
ENDROOT
BRANCH  19   9
ATOM      4  O   UNL     1      24.378   5.084  20.334  0.00  0.00    -0.275 OA
ATOM      5  N   UNL     1      22.821   5.556  21.975  0.00  0.00    -0.301 N 
ATOM      9  C   UNL     1      21.292   7.347  22.300  0.00  0.00    +0.074 C 
ATOM     10  C   UNL     1      22.560   6.925  21.547  0.00  0.00    +0.119 C 
ATOM     11  C   UNL     1      21.402   6.524  23.593  0.00  0.00    +0.032 C 
ATOM     12  C   UNL     1      22.017   5.205  23.140  0.00  0.00    +0.108 C 
ATOM     15  C   UNL     1      23.721   4.736  21.317  0.00  0.00    +0.219 C 
BRANCH  15   8
ATOM      8  C   UNL     1      23.869   3.357  21.881  0.00  0.00    +0.075 C 
ATOM     13  C   UNL     1      25.055   3.332  22.847  0.00  0.00    +0.013 C 
ATOM     14  C   UNL     1      24.050   2.348  20.745  0.00  0.00    +0.013 C 
ATOM     16  C   UNL     1      25.315   1.925  23.379  0.00  0.00    +0.001 C 
ATOM     17  C   UNL     1      24.309   0.942  21.282  0.00  0.00    +0.001 C 
ATOM     18  C   UNL     1      25.492   0.918  22.246  0.00  0.00    +0.000 C 
ENDBRANCH  15   8
ENDBRANCH  19   9
BRANCH  24  26
ATOM      1  F   UNL     1      13.854   8.442  20.385  0.00  0.00    -0.166 F 
ATOM      2  F   UNL     1      13.630   6.815  18.960  0.00  0.00    -0.166 F 
ATOM      3  F   UNL     1      13.509   6.413  21.089  0.00  0.00    -0.166 F 
ATOM     26  C   UNL     1      14.195   7.141  20.159  0.00  0.00    +0.417 C 
ENDBRANCH  24  26
TORSDOF 3
ENDMDL
MODEL 10
REMARK VINA RESULT:      -7.1      4.547      8.162
REMARK  Name = 45784060
REMARK  3 active torsions:
REMARK  status: ('A' for Active; 'I' for Inactive)
REMARK    1  A    between atoms: C_8  and  C_15
REMARK    2  A    between atoms: C_9  and  C_19
REMARK    3  A    between atoms: C_24  and  C_26
REMARK                            x       y       z     vdW  Elec       q    Type
REMARK                         _______ _______ _______ _____ _____    ______ ____
ROOT
ATOM      6  N   UNL     1      12.435  11.782  20.730  0.00  0.00    -0.342 N 
ATOM      7  N   UNL     1      11.894   9.740  21.420  0.00  0.00    -0.232 NA
ATOM     19  C   UNL     1      12.417  10.446  20.443  0.00  0.00    +0.113 A 
ATOM     20  C   UNL     1      11.888  11.950  21.976  0.00  0.00    +0.067 A 
ATOM     21  C   UNL     1      11.557  10.662  22.385  0.00  0.00    +0.089 A 
ATOM     22  C   UNL     1      11.659  13.084  22.755  0.00  0.00    +0.040 A 
ATOM     23  C   UNL     1      10.963  10.474  23.645  0.00  0.00    +0.030 A 
ATOM     24  C   UNL     1      11.066  12.879  24.006  0.00  0.00    +0.057 A 
ATOM     25  C   UNL     1      10.724  11.598  24.445  0.00  0.00    +0.014 A 
ATOM     27  H   UNL     1      12.791  12.517  20.133  0.00  0.00    +0.167 HD
ENDROOT
BRANCH  19   9
ATOM      4  O   UNL     1      15.011   6.201  19.836  0.00  0.00    -0.275 OA
ATOM      5  N   UNL     1      14.818   8.469  19.438  0.00  0.00    -0.301 N 
ATOM      9  C   UNL     1      12.957   9.914  19.127  0.00  0.00    +0.074 C 
ATOM     10  C   UNL     1      13.399   8.445  19.109  0.00  0.00    +0.119 C 
ATOM     11  C   UNL     1      14.245  10.638  18.708  0.00  0.00    +0.032 C 
ATOM     12  C   UNL     1      15.356   9.822  19.358  0.00  0.00    +0.108 C 
ATOM     15  C   UNL     1      15.515   7.324  19.784  0.00  0.00    +0.219 C 
BRANCH  15   8
ATOM      8  C   UNL     1      16.966   7.522  20.099  0.00  0.00    +0.075 C 
ATOM     13  C   UNL     1      17.692   6.180  19.988  0.00  0.00    +0.013 C 
ATOM     14  C   UNL     1      17.117   8.128  21.495  0.00  0.00    +0.013 C 
ATOM     16  C   UNL     1      19.159   6.302  20.394  0.00  0.00    +0.001 C 
ATOM     17  C   UNL     1      18.585   8.250  21.896  0.00  0.00    +0.001 C 
ATOM     18  C   UNL     1      19.310   6.911  21.785  0.00  0.00    +0.000 C 
ENDBRANCH  15   8
ENDBRANCH  19   9
BRANCH  24  26
ATOM      1  F   UNL     1      10.267  13.694  26.092  0.00  0.00    -0.166 F 
ATOM      2  F   UNL     1      11.912  14.785  25.179  0.00  0.00    -0.166 F 
ATOM      3  F   UNL     1       9.913  14.947  24.350  0.00  0.00    -0.166 F 
ATOM     26  C   UNL     1      10.796  14.055  24.888  0.00  0.00    +0.417 C 
ENDBRANCH  24  26
TORSDOF 3
ENDMDL
