REMARK  Name = 11913294
REMARK  9 active torsions:
REMARK  status: ('A' for Active; 'I' for Inactive)
REMARK    1  A    between atoms: S_1  and  N_6
REMARK    2  A    between atoms: S_1  and  C_18
REMARK    3  A    between atoms: N_6  and  C_13
REMARK    4  A    between atoms: N_7  and  C_14
REMARK    5  A    between atoms: C_19  and  C_20
REMARK    6  A    between atoms: C_19  and  C_25
REMARK    7  A    between atoms: C_19  and  C_26
REMARK    8  A    between atoms: C_19  and  C_27
REMARK    9  A    between atoms: C_21  and  C_31
REMARK                            x       y       z     vdW  Elec       q    Type
REMARK                         _______ _______ _______ _____ _____    ______ ____
ROOT
ATOM      2  O   UNL     1       0.487  -2.282   0.722  0.00  0.00    -0.370 OA
ATOM      3  O   UNL     1      -0.874  -0.034   2.414  0.00  0.00    -0.370 OA
ATOM     11  C   UNL     1      -0.839  -0.326   1.007  0.00  0.00    +0.170 C 
ATOM     12  C   UNL     1       0.550  -0.846   0.689  0.00  0.00    +0.171 C 
ATOM     13  C   UNL     1      -1.749  -1.488   0.692  0.00  0.00    +0.133 C 
ATOM     14  C   UNL     1       1.406  -0.334   1.822  0.00  0.00    +0.130 C 
ATOM     15  C   UNL     1      -0.867  -2.690   0.968  0.00  0.00    +0.183 C 
ATOM     16  C   UNL     1       0.425  -0.269   2.978  0.00  0.00    +0.185 C 
ENDROOT
BRANCH  14   7
ATOM      7  N   UNL     1       1.900   0.990   1.510  0.00  0.00    -0.306 N 
ATOM      8  N   UNL     1       3.732   0.145   0.313  0.00  0.00    -0.219 NA
ATOM      9  N   UNL     1       3.394   2.520   0.546  0.00  0.00    -0.223 NA
ATOM     17  C   UNL     1       3.043   1.226   0.768  0.00  0.00    +0.216 A 
ATOM     20  C   UNL     1       4.841   0.411  -0.408  0.00  0.00    +0.052 A 
ATOM     23  C   UNL     1       5.285   1.688  -0.690  0.00  0.00    +0.043 A 
ATOM     24  C   UNL     1       4.514   2.713  -0.182  0.00  0.00    +0.116 A 
ATOM     33  H   UNL     1       1.365   1.802   1.799  0.00  0.00    +0.149 HD
BRANCH  20  19
ATOM     19  C   UNL     1       5.610  -0.762  -0.915  0.00  0.00    +0.005 C 
ATOM     25  C   UNL     1       7.069  -0.764  -0.362  0.00  0.00    +0.017 C 
ATOM     26  C   UNL     1       5.696  -0.752  -2.472  0.00  0.00    +0.017 C 
ATOM     27  C   UNL     1       5.021  -2.163  -0.540  0.00  0.00    +0.017 C 
ENDBRANCH  20  19
ENDBRANCH  14   7
BRANCH  13   6
ATOM      6  N   UNL     1      -2.115  -1.459  -0.745  0.00  0.00    -0.182 NA
ATOM     32  H   UNL     1      -1.385  -1.198  -1.419  0.00  0.00    +0.148 HD
BRANCH   6   1
ATOM      1  S   UNL     1      -3.751  -1.468  -1.200  0.00  0.00    +0.060 S 
ATOM      4  O   UNL     1      -4.418  -2.598  -0.584  0.00  0.00    -0.153 OA
ATOM      5  O   UNL     1      -3.838  -1.262  -2.634  0.00  0.00    -0.153 OA
BRANCH   1  18
ATOM     18  C   UNL     1      -4.351   0.006  -0.431  0.00  0.00    +0.123 A 
ATOM     21  C   UNL     1      -3.975   1.261  -0.886  0.00  0.00    +0.078 A 
ATOM     22  C   UNL     1      -5.216  -0.136   0.645  0.00  0.00    +0.030 A 
ATOM     28  C   UNL     1      -4.473   2.399  -0.251  0.00  0.00    +0.021 A 
ATOM     29  C   UNL     1      -5.713   1.002   1.280  0.00  0.00    +0.002 A 
ATOM     30  C   UNL     1      -5.342   2.269   0.832  0.00  0.00    +0.001 A 
BRANCH  21  31
ATOM     10  N   UNL     1      -2.365   1.570  -2.892  0.00  0.00    -0.191 NA
ATOM     31  C   UNL     1      -3.085   1.432  -1.995  0.00  0.00    +0.101 C 
ENDBRANCH  21  31
ENDBRANCH   1  18
ENDBRANCH   6   1
ENDBRANCH  13   6
TORSDOF 6
