REMARK  Name = 45783677
REMARK  6 active torsions:
REMARK  status: ('A' for Active; 'I' for Inactive)
REMARK    1  A    between atoms: N_2  and  C_13
REMARK    2  A    between atoms: N_3  and  C_22
REMARK    3  A    between atoms: N_7  and  C_29
REMARK    4  A    between atoms: C_9  and  C_14
REMARK    5  A    between atoms: C_13  and  C_15
REMARK    6  A    between atoms: C_20  and  C_25
REMARK                            x       y       z     vdW  Elec       q    Type
REMARK                         _______ _______ _______ _____ _____    ______ ____
ROOT
ATOM      2  N   UNL     1      -4.057  -0.450  -0.792  0.00  0.00    -0.287 NA
ATOM      9  C   UNL     1      -3.740  -1.638   0.026  0.00  0.00    +0.146 C 
ATOM     10  C   UNL     1      -4.175  -2.836  -0.839  0.00  0.00    +0.030 C 
ATOM     11  C   UNL     1      -5.178  -0.829  -1.653  0.00  0.00    +0.085 C 
ATOM     12  C   UNL     1      -4.778  -2.222  -2.094  0.00  0.00    +0.017 C 
ENDROOT
BRANCH   9  14
ATOM      1  O   UNL     1      -1.990  -2.359   1.573  0.00  0.00    -0.336 OA
ATOM      4  N   UNL     1      -1.233  -1.207  -0.193  0.00  0.00    -0.190 NA
ATOM      5  N   UNL     1      -0.600  -2.284   1.724  0.00  0.00    -0.056 NA
ATOM     14  C   UNL     1      -2.279  -1.701   0.419  0.00  0.00    +0.245 A 
ATOM     20  C   UNL     1      -0.226  -1.590   0.645  0.00  0.00    +0.204 A 
BRANCH  20  25
ATOM      6  N   UNL     1       3.466  -1.384   1.040  0.00  0.00    -0.237 NA
ATOM     25  C   UNL     1       1.145  -1.265   0.374  0.00  0.00    +0.041 A 
ATOM     26  C   UNL     1       1.499  -0.542  -0.760  0.00  0.00    +0.017 A 
ATOM     27  C   UNL     1       2.156  -1.659   1.235  0.00  0.00    +0.124 A 
ATOM     28  C   UNL     1       2.836  -0.240  -0.995  0.00  0.00    +0.047 A 
ATOM     29  C   UNL     1       3.772  -0.680  -0.073  0.00  0.00    +0.139 A 
BRANCH  29   7
ATOM      7  N   UNL     1       5.106  -0.382  -0.303  0.00  0.00    -0.290 N 
ATOM      8  N   UNL     1       7.304  -0.301   0.006  0.00  0.00    -0.244 NA
ATOM     30  C   UNL     1       5.609   0.316  -1.365  0.00  0.00    +0.114 A 
ATOM     31  C   UNL     1       6.161  -0.731   0.493  0.00  0.00    +0.205 A 
ATOM     32  C   UNL     1       6.966   0.352  -1.152  0.00  0.00    +0.130 A 
ENDBRANCH  29   7
ENDBRANCH  20  25
ENDBRANCH   9  14
BRANCH   2  13
ATOM     13  C   UNL     1      -4.353   0.733   0.005  0.00  0.00    +0.122 C 
BRANCH  13  15
ATOM      3  N   UNL     1      -1.562   2.249   1.864  0.00  0.00    -0.349 N 
ATOM     15  C   UNL     1      -3.099   1.399   0.506  0.00  0.00    -0.008 A 
ATOM     16  C   UNL     1      -2.035   1.909  -0.290  0.00  0.00    +0.004 A 
ATOM     17  C   UNL     1      -2.780   1.623   1.825  0.00  0.00    +0.091 A 
ATOM     18  C   UNL     1      -1.084   2.436   0.587  0.00  0.00    +0.049 A 
ATOM     19  C   UNL     1      -1.789   1.972  -1.675  0.00  0.00    +0.010 A 
ATOM     21  C   UNL     1       0.105   3.026   0.145  0.00  0.00    +0.026 A 
ATOM     22  C   UNL     1      -0.889   2.649   3.081  0.00  0.00    +0.149 C 
ATOM     23  C   UNL     1      -0.603   2.559  -2.132  0.00  0.00    +0.001 A 
ATOM     24  C   UNL     1       0.328   3.077  -1.234  0.00  0.00    +0.002 A 
ENDBRANCH  13  15
ENDBRANCH   2  13
TORSDOF 5
