MODEL 1
REMARK VINA RESULT:      -6.7      0.000      0.000
REMARK  Name = 11885051
REMARK  13 active torsions:
REMARK  status: ('A' for Active; 'I' for Inactive)
REMARK    1  A    between atoms: O_2  and  C_14
REMARK    2  A    between atoms: O_3  and  C_19
REMARK    3  A    between atoms: O_4  and  C_23
REMARK    4  A    between atoms: C_9  and  C_17
REMARK    5  A    between atoms: C_11  and  C_19
REMARK    6  A    between atoms: C_11  and  C_20
REMARK    7  A    between atoms: C_12  and  C_22
REMARK    8  A    between atoms: C_22  and  C_23
REMARK    9  A    between atoms: C_25  and  C_26
REMARK   10  A    between atoms: C_26  and  C_27
REMARK   11  A    between atoms: C_27  and  C_28
REMARK   12  A    between atoms: C_27  and  C_29
REMARK   13  A    between atoms: C_27  and  C_30
REMARK                            x       y       z     vdW  Elec       q    Type
REMARK                         _______ _______ _______ _____ _____    ______ ____
ROOT
ATOM      1  S   UNL     1      17.497   5.754  19.356  0.00  0.00    -0.057 S 
ATOM      6  O   UNL     1      21.200   7.725  21.385  0.00  0.00    -0.275 OA
ATOM      7  N   UNL     1      18.313   7.798  20.716  0.00  0.00    -0.229 NA
ATOM      8  N   UNL     1      19.961   6.126  20.171  0.00  0.00    -0.265 N 
ATOM      9  C   UNL     1      14.808   9.338  20.260  0.00  0.00    -0.019 C 
ATOM     10  C   UNL     1      14.099   7.912  20.225  0.00  0.00    +0.011 C 
ATOM     11  C   UNL     1      12.551   7.888  19.923  0.00  0.00    +0.021 C 
ATOM     12  C   UNL     1      16.216   9.172  20.996  0.00  0.00    +0.055 C 
ATOM     13  C   UNL     1      13.939  10.325  21.081  0.00  0.00    +0.010 C 
ATOM     14  C   UNL     1      11.843   8.965  20.793  0.00  0.00    +0.123 C 
ATOM     15  C   UNL     1      14.918   6.890  19.384  0.00  0.00    +0.049 C 
ATOM     16  C   UNL     1      12.473  10.348  20.670  0.00  0.00    +0.032 C 
ATOM     17  C   UNL     1      15.032   9.930  18.847  0.00  0.00    +0.012 C 
ATOM     18  C   UNL     1      16.963   7.972  20.473  0.00  0.00    +0.058 A 
ATOM     20  C   UNL     1      11.975   6.505  20.337  0.00  0.00    +0.016 C 
ATOM     21  C   UNL     1      16.358   6.951  19.767  0.00  0.00    +0.015 A 
ATOM     24  C   UNL     1      18.703   6.667  20.169  0.00  0.00    +0.165 A 
ATOM     25  C   UNL     1      21.113   6.670  20.763  0.00  0.00    +0.219 C 
ATOM     33  H   UNL     1      20.045   5.239  19.683  0.00  0.00    +0.157 HD
ENDROOT
BRANCH  14   2
ATOM      2  O   UNL     1      10.460   9.059  20.450  0.00  0.00    -0.391 OA
ATOM     31  H   UNL     1      10.033   8.221  20.692  0.00  0.00    +0.210 HD
ENDBRANCH  14   2
BRANCH  11  19
ATOM     19  C   UNL     1      12.187   8.059  18.431  0.00  0.00    +0.165 C 
BRANCH  19   3
ATOM      3  O   UNL     1      11.955   6.776  17.894  0.00  0.00    -0.394 OA
ATOM     32  H   UNL     1      12.813   6.397  17.638  0.00  0.00    +0.209 HD
ENDBRANCH  19   3
ENDBRANCH  11  19
BRANCH  12  22
ATOM     22  C   UNL     1      17.094  10.430  20.986  0.00  0.00    +0.130 C 
BRANCH  22  23
ATOM      5  O   UNL     1      16.888  11.731  23.037  0.00  0.00    -0.251 OA
ATOM     23  C   UNL     1      17.445  10.865  22.378  0.00  0.00    +0.305 C 
BRANCH  23   4
ATOM      4  O   UNL     1      18.506  10.143  22.825  0.00  0.00    -0.481 OA
ATOM     34  H   UNL     1      19.212  10.074  22.149  0.00  0.00    +0.295 HD
ENDBRANCH  23   4
ENDBRANCH  22  23
ENDBRANCH  12  22
BRANCH  25  26
ATOM     26  C   UNL     1      22.347   5.797  20.562  0.00  0.00    +0.102 C 
BRANCH  26  27
ATOM     27  C   UNL     1      22.506   4.653  21.591  0.00  0.00    -0.029 C 
ATOM     28  C   UNL     1      22.101   5.103  23.004  0.00  0.00    +0.011 C 
ATOM     29  C   UNL     1      23.992   4.242  21.620  0.00  0.00    +0.011 C 
ATOM     30  C   UNL     1      21.670   3.427  21.189  0.00  0.00    +0.011 C 
ENDBRANCH  26  27
ENDBRANCH  25  26
TORSDOF 8
ENDMDL
MODEL 2
REMARK VINA RESULT:      -6.2     28.108     30.374
REMARK  Name = 11885051
REMARK  13 active torsions:
REMARK  status: ('A' for Active; 'I' for Inactive)
REMARK    1  A    between atoms: O_2  and  C_14
REMARK    2  A    between atoms: O_3  and  C_19
REMARK    3  A    between atoms: O_4  and  C_23
REMARK    4  A    between atoms: C_9  and  C_17
REMARK    5  A    between atoms: C_11  and  C_19
REMARK    6  A    between atoms: C_11  and  C_20
REMARK    7  A    between atoms: C_12  and  C_22
REMARK    8  A    between atoms: C_22  and  C_23
REMARK    9  A    between atoms: C_25  and  C_26
REMARK   10  A    between atoms: C_26  and  C_27
REMARK   11  A    between atoms: C_27  and  C_28
REMARK   12  A    between atoms: C_27  and  C_29
REMARK   13  A    between atoms: C_27  and  C_30
REMARK                            x       y       z     vdW  Elec       q    Type
REMARK                         _______ _______ _______ _____ _____    ______ ____
ROOT
ATOM      1  S   UNL     1      -7.577  -9.930  13.910  0.00  0.00    -0.057 S 
ATOM      6  O   UNL     1      -3.671 -10.446  16.398  0.00  0.00    -0.275 OA
ATOM      7  N   UNL     1      -5.008 -10.195  13.764  0.00  0.00    -0.229 NA
ATOM      8  N   UNL     1      -5.976 -10.188  15.971  0.00  0.00    -0.265 N 
ATOM      9  C   UNL     1      -5.376 -10.395   9.931  0.00  0.00    -0.019 C 
ATOM     10  C   UNL     1      -6.657  -9.448   9.926  0.00  0.00    +0.011 C 
ATOM     11  C   UNL     1      -7.384  -9.234   8.542  0.00  0.00    +0.021 C 
ATOM     12  C   UNL     1      -4.566 -10.123  11.281  0.00  0.00    +0.055 C 
ATOM     13  C   UNL     1      -4.463 -10.034   8.731  0.00  0.00    +0.010 C 
ATOM     14  C   UNL     1      -6.323  -8.929   7.447  0.00  0.00    +0.123 C 
ATOM     15  C   UNL     1      -7.624  -9.792  11.096  0.00  0.00    +0.049 C 
ATOM     16  C   UNL     1      -5.196  -9.955   7.399  0.00  0.00    +0.032 C 
ATOM     17  C   UNL     1      -5.741 -11.898   9.844  0.00  0.00    +0.012 C 
ATOM     18  C   UNL     1      -5.490 -10.098  12.472  0.00  0.00    +0.058 A 
ATOM     20  C   UNL     1      -8.314  -7.993   8.645  0.00  0.00    +0.016 C 
ATOM     21  C   UNL     1      -6.856  -9.931  12.367  0.00  0.00    +0.015 A 
ATOM     24  C   UNL     1      -6.018 -10.125  14.603  0.00  0.00    +0.165 A 
ATOM     25  C   UNL     1      -4.834 -10.341  16.775  0.00  0.00    +0.219 C 
ATOM     33  H   UNL     1      -6.881 -10.116  16.429  0.00  0.00    +0.157 HD
ENDROOT
BRANCH  14   2
ATOM      2  O   UNL     1      -6.934  -8.859   6.160  0.00  0.00    -0.391 OA
ATOM     31  H   UNL     1      -6.340  -9.285   5.521  0.00  0.00    +0.210 HD
ENDBRANCH  14   2
BRANCH  11  19
ATOM     19  C   UNL     1      -8.298 -10.403   8.112  0.00  0.00    +0.165 C 
BRANCH  19   3
ATOM      3  O   UNL     1      -9.380  -9.862   7.388  0.00  0.00    -0.394 OA
ATOM     32  H   UNL     1      -9.236 -10.050   6.445  0.00  0.00    +0.209 HD
ENDBRANCH  19   3
ENDBRANCH  11  19
BRANCH  12  22
ATOM     22  C   UNL     1      -3.376 -11.063  11.512  0.00  0.00    +0.130 C 
BRANCH  22  23
ATOM      5  O   UNL     1      -1.449  -9.598  11.228  0.00  0.00    -0.251 OA
ATOM     23  C   UNL     1      -2.152 -10.304  11.935  0.00  0.00    +0.305 C 
BRANCH  23   4
ATOM      4  O   UNL     1      -1.921 -10.516  13.257  0.00  0.00    -0.481 OA
ATOM     34  H   UNL     1      -2.749 -10.488  13.781  0.00  0.00    +0.295 HD
ENDBRANCH  23   4
ENDBRANCH  22  23
ENDBRANCH  12  22
BRANCH  25  26
ATOM     26  C   UNL     1      -5.162 -10.378  18.263  0.00  0.00    +0.102 C 
BRANCH  26  27
ATOM     27  C   UNL     1      -5.138 -11.789  18.897  0.00  0.00    -0.029 C 
ATOM     28  C   UNL     1      -5.602 -12.864  17.901  0.00  0.00    +0.011 C 
ATOM     29  C   UNL     1      -6.108 -11.789  20.096  0.00  0.00    +0.011 C 
ATOM     30  C   UNL     1      -3.732 -12.143  19.408  0.00  0.00    +0.011 C 
ENDBRANCH  26  27
ENDBRANCH  25  26
TORSDOF 8
ENDMDL
MODEL 3
REMARK VINA RESULT:      -5.9     28.072     30.852
REMARK  Name = 11885051
REMARK  13 active torsions:
REMARK  status: ('A' for Active; 'I' for Inactive)
REMARK    1  A    between atoms: O_2  and  C_14
REMARK    2  A    between atoms: O_3  and  C_19
REMARK    3  A    between atoms: O_4  and  C_23
REMARK    4  A    between atoms: C_9  and  C_17
REMARK    5  A    between atoms: C_11  and  C_19
REMARK    6  A    between atoms: C_11  and  C_20
REMARK    7  A    between atoms: C_12  and  C_22
REMARK    8  A    between atoms: C_22  and  C_23
REMARK    9  A    between atoms: C_25  and  C_26
REMARK   10  A    between atoms: C_26  and  C_27
REMARK   11  A    between atoms: C_27  and  C_28
REMARK   12  A    between atoms: C_27  and  C_29
REMARK   13  A    between atoms: C_27  and  C_30
REMARK                            x       y       z     vdW  Elec       q    Type
REMARK                         _______ _______ _______ _____ _____    ______ ____
ROOT
ATOM      1  S   UNL     1      -7.347 -12.214  12.585  0.00  0.00    -0.057 S 
ATOM      6  O   UNL     1      -3.340 -12.170  10.206  0.00  0.00    -0.275 OA
ATOM      7  N   UNL     1      -4.782 -11.949  12.787  0.00  0.00    -0.229 NA
ATOM      8  N   UNL     1      -5.664 -12.332  10.577  0.00  0.00    -0.265 N 
ATOM      9  C   UNL     1      -5.296 -11.081  16.509  0.00  0.00    -0.019 C 
ATOM     10  C   UNL     1      -6.589 -12.003  16.626  0.00  0.00    +0.011 C 
ATOM     11  C   UNL     1      -7.372 -11.966  17.996  0.00  0.00    +0.021 C 
ATOM     12  C   UNL     1      -4.438 -11.591  15.260  0.00  0.00    +0.055 C 
ATOM     13  C   UNL     1      -4.435 -11.235  17.789  0.00  0.00    +0.010 C 
ATOM     14  C   UNL     1      -6.359 -12.085  19.169  0.00  0.00    +0.123 C 
ATOM     15  C   UNL     1      -7.505 -11.860  15.376  0.00  0.00    +0.049 C 
ATOM     16  C   UNL     1      -5.219 -11.075  19.084  0.00  0.00    +0.032 C 
ATOM     17  C   UNL     1      -5.641  -9.583  16.319  0.00  0.00    +0.012 C 
ATOM     18  C   UNL     1      -5.316 -11.815  14.056  0.00  0.00    +0.058 A 
ATOM     20  C   UNL     1      -8.317 -13.199  18.072  0.00  0.00    +0.016 C 
ATOM     21  C   UNL     1      -6.687 -11.951  14.132  0.00  0.00    +0.015 A 
ATOM     24  C   UNL     1      -5.760 -12.155  11.933  0.00  0.00    +0.165 A 
ATOM     25  C   UNL     1      -4.490 -12.330   9.806  0.00  0.00    +0.219 C 
ATOM     33  H   UNL     1      -6.551 -12.475  10.102  0.00  0.00    +0.157 HD
ENDROOT
BRANCH  14   2
ATOM      2  O   UNL     1      -7.021 -11.925  20.423  0.00  0.00    -0.391 OA
ATOM     31  H   UNL     1      -7.356 -11.015  20.473  0.00  0.00    +0.210 HD
ENDBRANCH  14   2
BRANCH  11  19
ATOM     19  C   UNL     1      -8.285 -10.733  18.178  0.00  0.00    +0.165 C 
BRANCH  19   3
ATOM      3  O   UNL     1      -9.320 -11.090  19.067  0.00  0.00    -0.394 OA
ATOM     32  H   UNL     1      -8.974 -11.761  19.679  0.00  0.00    +0.209 HD
ENDBRANCH  19   3
ENDBRANCH  11  19
BRANCH  12  22
ATOM     22  C   UNL     1      -3.226 -10.715  14.919  0.00  0.00    +0.130 C 
BRANCH  22  23
ATOM      5  O   UNL     1      -1.487 -12.284  14.243  0.00  0.00    -0.251 OA
ATOM     23  C   UNL     1      -1.942 -11.482  15.045  0.00  0.00    +0.305 C 
BRANCH  23   4
ATOM      4  O   UNL     1      -1.331 -11.154  16.213  0.00  0.00    -0.481 OA
ATOM     34  H   UNL     1      -1.103 -11.948  16.741  0.00  0.00    +0.295 HD
ENDBRANCH  23   4
ENDBRANCH  22  23
ENDBRANCH  12  22
BRANCH  25  26
ATOM     26  C   UNL     1      -4.759 -12.550   8.322  0.00  0.00    +0.102 C 
BRANCH  26  27
ATOM     27  C   UNL     1      -5.300 -11.310   7.571  0.00  0.00    -0.029 C 
ATOM     28  C   UNL     1      -6.837 -11.288   7.549  0.00  0.00    +0.011 C 
ATOM     29  C   UNL     1      -4.795 -11.377   6.116  0.00  0.00    +0.011 C 
ATOM     30  C   UNL     1      -4.783 -10.009   8.206  0.00  0.00    +0.011 C 
ENDBRANCH  26  27
ENDBRANCH  25  26
TORSDOF 8
ENDMDL
MODEL 4
REMARK VINA RESULT:      -5.9     28.723     32.612
REMARK  Name = 11885051
REMARK  13 active torsions:
REMARK  status: ('A' for Active; 'I' for Inactive)
REMARK    1  A    between atoms: O_2  and  C_14
REMARK    2  A    between atoms: O_3  and  C_19
REMARK    3  A    between atoms: O_4  and  C_23
REMARK    4  A    between atoms: C_9  and  C_17
REMARK    5  A    between atoms: C_11  and  C_19
REMARK    6  A    between atoms: C_11  and  C_20
REMARK    7  A    between atoms: C_12  and  C_22
REMARK    8  A    between atoms: C_22  and  C_23
REMARK    9  A    between atoms: C_25  and  C_26
REMARK   10  A    between atoms: C_26  and  C_27
REMARK   11  A    between atoms: C_27  and  C_28
REMARK   12  A    between atoms: C_27  and  C_29
REMARK   13  A    between atoms: C_27  and  C_30
REMARK                            x       y       z     vdW  Elec       q    Type
REMARK                         _______ _______ _______ _____ _____    ______ ____
ROOT
ATOM      1  S   UNL     1      -8.811  -9.598  13.875  0.00  0.00    -0.057 S 
ATOM      6  O   UNL     1     -13.003  -8.494  15.586  0.00  0.00    -0.275 OA
ATOM      7  N   UNL     1     -10.280  -9.591  16.004  0.00  0.00    -0.229 NA
ATOM      8  N   UNL     1     -11.282  -8.728  13.989  0.00  0.00    -0.265 N 
ATOM      9  C   UNL     1      -7.455 -11.502  17.803  0.00  0.00    -0.019 C 
ATOM     10  C   UNL     1      -6.321 -10.815  16.920  0.00  0.00    +0.011 C 
ATOM     11  C   UNL     1      -4.843 -11.321  17.134  0.00  0.00    +0.021 C 
ATOM     12  C   UNL     1      -8.751 -10.568  17.756  0.00  0.00    +0.055 C 
ATOM     13  C   UNL     1      -6.975 -11.600  19.274  0.00  0.00    +0.010 C 
ATOM     14  C   UNL     1      -4.544 -11.405  18.657  0.00  0.00    +0.123 C 
ATOM     15  C   UNL     1      -6.743 -10.721  15.425  0.00  0.00    +0.049 C 
ATOM     16  C   UNL     1      -5.587 -12.204  19.431  0.00  0.00    +0.032 C 
ATOM     17  C   UNL     1      -7.826 -12.921  17.304  0.00  0.00    +0.012 C 
ATOM     18  C   UNL     1      -9.054 -10.132  16.346  0.00  0.00    +0.058 A 
ATOM     20  C   UNL     1      -3.859 -10.283  16.525  0.00  0.00    +0.016 C 
ATOM     21  C   UNL     1      -8.133 -10.192  15.320  0.00  0.00    +0.015 A 
ATOM     24  C   UNL     1     -10.268  -9.280  14.727  0.00  0.00    +0.165 A 
ATOM     25  C   UNL     1     -12.562  -8.374  14.446  0.00  0.00    +0.219 C 
ATOM     33  H   UNL     1     -11.061  -8.570  13.010  0.00  0.00    +0.157 HD
ENDROOT
BRANCH  14   2
ATOM      2  O   UNL     1      -3.259 -11.983  18.887  0.00  0.00    -0.391 OA
ATOM     31  H   UNL     1      -2.591 -11.288  18.765  0.00  0.00    +0.210 HD
ENDBRANCH  14   2
BRANCH  11  19
ATOM     19  C   UNL     1      -4.517 -12.660  16.434  0.00  0.00    +0.165 C 
BRANCH  19   3
ATOM      3  O   UNL     1      -3.236 -12.545  15.856  0.00  0.00    -0.394 OA
ATOM     32  H   UNL     1      -3.251 -11.795  15.238  0.00  0.00    +0.209 HD
ENDBRANCH  19   3
ENDBRANCH  11  19
BRANCH  12  22
ATOM     22  C   UNL     1      -9.989 -11.160  18.441  0.00  0.00    +0.130 C 
BRANCH  22  23
ATOM      5  O   UNL     1     -11.546  -9.456  19.223  0.00  0.00    -0.251 OA
ATOM     23  C   UNL     1     -10.591 -10.193  19.418  0.00  0.00    +0.305 C 
BRANCH  23   4
ATOM      4  O   UNL     1      -9.907 -10.248  20.590  0.00  0.00    -0.481 OA
ATOM     34  H   UNL     1      -9.241 -10.967  20.592  0.00  0.00    +0.295 HD
ENDBRANCH  23   4
ENDBRANCH  22  23
ENDBRANCH  12  22
BRANCH  25  26
ATOM     26  C   UNL     1     -13.441  -7.790  13.346  0.00  0.00    +0.102 C 
BRANCH  26  27
ATOM     27  C   UNL     1     -13.637  -6.257  13.419  0.00  0.00    -0.029 C 
ATOM     28  C   UNL     1     -12.528  -5.583  14.243  0.00  0.00    +0.011 C 
ATOM     29  C   UNL     1     -14.989  -5.983  14.109  0.00  0.00    +0.011 C 
ATOM     30  C   UNL     1     -13.674  -5.636  12.014  0.00  0.00    +0.011 C 
ENDBRANCH  26  27
ENDBRANCH  25  26
TORSDOF 8
ENDMDL
MODEL 5
REMARK VINA RESULT:      -5.7     27.361     31.175
REMARK  Name = 11885051
REMARK  13 active torsions:
REMARK  status: ('A' for Active; 'I' for Inactive)
REMARK    1  A    between atoms: O_2  and  C_14
REMARK    2  A    between atoms: O_3  and  C_19
REMARK    3  A    between atoms: O_4  and  C_23
REMARK    4  A    between atoms: C_9  and  C_17
REMARK    5  A    between atoms: C_11  and  C_19
REMARK    6  A    between atoms: C_11  and  C_20
REMARK    7  A    between atoms: C_12  and  C_22
REMARK    8  A    between atoms: C_22  and  C_23
REMARK    9  A    between atoms: C_25  and  C_26
REMARK   10  A    between atoms: C_26  and  C_27
REMARK   11  A    between atoms: C_27  and  C_28
REMARK   12  A    between atoms: C_27  and  C_29
REMARK   13  A    between atoms: C_27  and  C_30
REMARK                            x       y       z     vdW  Elec       q    Type
REMARK                         _______ _______ _______ _____ _____    ______ ____
ROOT
ATOM      1  S   UNL     1      -5.521 -10.097  10.209  0.00  0.00    -0.057 S 
ATOM      6  O   UNL     1      -9.927  -8.588  10.377  0.00  0.00    -0.275 OA
ATOM      7  N   UNL     1      -7.502  -9.554  11.782  0.00  0.00    -0.229 NA
ATOM      8  N   UNL     1      -7.864  -9.218   9.423  0.00  0.00    -0.265 N 
ATOM      9  C   UNL     1      -5.406 -10.967  14.694  0.00  0.00    -0.019 C 
ATOM     10  C   UNL     1      -4.031 -10.525  14.022  0.00  0.00    +0.011 C 
ATOM     11  C   UNL     1      -2.703 -10.967  14.751  0.00  0.00    +0.021 C 
ATOM     12  C   UNL     1      -6.571 -10.070  14.069  0.00  0.00    +0.055 C 
ATOM     13  C   UNL     1      -5.345 -10.697  16.219  0.00  0.00    +0.010 C 
ATOM     14  C   UNL     1      -2.830 -10.670  16.272  0.00  0.00    +0.123 C 
ATOM     15  C   UNL     1      -4.029 -10.805  12.492  0.00  0.00    +0.049 C 
ATOM     16  C   UNL     1      -4.096 -11.248  16.895  0.00  0.00    +0.032 C 
ATOM     17  C   UNL     1      -5.731 -12.464  14.466  0.00  0.00    +0.012 C 
ATOM     18  C   UNL     1      -6.454  -9.998  12.568  0.00  0.00    +0.058 A 
ATOM     20  C   UNL     1      -1.520 -10.116  14.209  0.00  0.00    +0.016 C 
ATOM     21  C   UNL     1      -5.299 -10.315  11.882  0.00  0.00    +0.015 A 
ATOM     24  C   UNL     1      -7.126  -9.572  10.522  0.00  0.00    +0.165 A 
ATOM     25  C   UNL     1      -9.190  -8.756   9.410  0.00  0.00    +0.219 C 
ATOM     33  H   UNL     1      -7.378  -9.310   8.535  0.00  0.00    +0.157 HD
ENDROOT
BRANCH  14   2
ATOM      2  O   UNL     1      -1.699 -11.176  16.979  0.00  0.00    -0.391 OA
ATOM     31  H   UNL     1      -1.123 -11.628  16.341  0.00  0.00    +0.210 HD
ENDBRANCH  14   2
BRANCH  11  19
ATOM     19  C   UNL     1      -2.300 -12.439  14.509  0.00  0.00    +0.165 C 
BRANCH  19   3
ATOM      3  O   UNL     1      -1.187 -12.445  13.644  0.00  0.00    -0.394 OA
ATOM     32  H   UNL     1      -1.334 -11.772  12.959  0.00  0.00    +0.209 HD
ENDBRANCH  19   3
ENDBRANCH  11  19
BRANCH  12  22
ATOM     22  C   UNL     1      -7.987 -10.469  14.505  0.00  0.00    +0.130 C 
BRANCH  22  23
ATOM      5  O   UNL     1      -8.576  -9.148  16.467  0.00  0.00    -0.251 OA
ATOM     23  C   UNL     1      -8.658  -9.364  15.267  0.00  0.00    +0.305 C 
BRANCH  23   4
ATOM      4  O   UNL     1      -9.397  -8.608  14.414  0.00  0.00    -0.481 OA
ATOM     34  H   UNL     1     -10.091  -9.135  13.966  0.00  0.00    +0.295 HD
ENDBRANCH  23   4
ENDBRANCH  22  23
ENDBRANCH  12  22
BRANCH  25  26
ATOM     26  C   UNL     1      -9.698  -8.462   8.002  0.00  0.00    +0.102 C 
BRANCH  26  27
ATOM     27  C   UNL     1      -9.613  -6.976   7.581  0.00  0.00    -0.029 C 
ATOM     28  C   UNL     1     -10.833  -6.179   8.069  0.00  0.00    +0.011 C 
ATOM     29  C   UNL     1      -9.581  -6.919   6.040  0.00  0.00    +0.011 C 
ATOM     30  C   UNL     1      -8.330  -6.320   8.118  0.00  0.00    +0.011 C 
ENDBRANCH  26  27
ENDBRANCH  25  26
TORSDOF 8
ENDMDL
MODEL 6
REMARK VINA RESULT:      -5.6     17.038     19.835
REMARK  Name = 11885051
REMARK  13 active torsions:
REMARK  status: ('A' for Active; 'I' for Inactive)
REMARK    1  A    between atoms: O_2  and  C_14
REMARK    2  A    between atoms: O_3  and  C_19
REMARK    3  A    between atoms: O_4  and  C_23
REMARK    4  A    between atoms: C_9  and  C_17
REMARK    5  A    between atoms: C_11  and  C_19
REMARK    6  A    between atoms: C_11  and  C_20
REMARK    7  A    between atoms: C_12  and  C_22
REMARK    8  A    between atoms: C_22  and  C_23
REMARK    9  A    between atoms: C_25  and  C_26
REMARK   10  A    between atoms: C_26  and  C_27
REMARK   11  A    between atoms: C_27  and  C_28
REMARK   12  A    between atoms: C_27  and  C_29
REMARK   13  A    between atoms: C_27  and  C_30
REMARK                            x       y       z     vdW  Elec       q    Type
REMARK                         _______ _______ _______ _____ _____    ______ ____
ROOT
ATOM      1  S   UNL     1      10.042   4.405   1.365  0.00  0.00    -0.057 S 
ATOM      6  O   UNL     1      14.033   4.054  -1.017  0.00  0.00    -0.275 OA
ATOM      7  N   UNL     1      12.515   5.161   1.277  0.00  0.00    -0.229 NA
ATOM      8  N   UNL     1      11.766   3.686  -0.476  0.00  0.00    -0.265 N 
ATOM      9  C   UNL     1      11.769   7.502   4.248  0.00  0.00    -0.019 C 
ATOM     10  C   UNL     1      10.656   6.528   4.839  0.00  0.00    +0.011 C 
ATOM     11  C   UNL     1       9.847   7.041   6.092  0.00  0.00    +0.021 C 
ATOM     12  C   UNL     1      12.732   6.641   3.308  0.00  0.00    +0.055 C 
ATOM     13  C   UNL     1      12.613   8.085   5.411  0.00  0.00    +0.010 C 
ATOM     14  C   UNL     1      10.838   7.633   7.134  0.00  0.00    +0.123 C 
ATOM     15  C   UNL     1       9.759   5.939   3.711  0.00  0.00    +0.049 C 
ATOM     16  C   UNL     1      11.782   8.673   6.543  0.00  0.00    +0.032 C 
ATOM     17  C   UNL     1      11.168   8.674   3.433  0.00  0.00    +0.012 C 
ATOM     18  C   UNL     1      11.936   5.757   2.383  0.00  0.00    +0.058 A 
ATOM     20  C   UNL     1       9.134   5.833   6.764  0.00  0.00    +0.016 C 
ATOM     21  C   UNL     1      10.609   5.440   2.592  0.00  0.00    +0.015 A 
ATOM     24  C   UNL     1      11.609   4.432   0.662  0.00  0.00    +0.165 A 
ATOM     25  C   UNL     1      12.939   3.541  -1.235  0.00  0.00    +0.219 C 
ATOM     33  H   UNL     1      10.930   3.198  -0.785  0.00  0.00    +0.157 HD
ENDROOT
BRANCH  14   2
ATOM      2  O   UNL     1      10.129   8.223   8.223  0.00  0.00    -0.391 OA
ATOM     31  H   UNL     1      10.774   8.461   8.909  0.00  0.00    +0.210 HD
ENDBRANCH  14   2
BRANCH  11  19
ATOM     19  C   UNL     1       8.727   8.052   5.761  0.00  0.00    +0.165 C 
BRANCH  19   3
ATOM      3  O   UNL     1       7.629   7.770   6.600  0.00  0.00    -0.394 OA
ATOM     32  H   UNL     1       7.904   7.090   7.238  0.00  0.00    +0.209 HD
ENDBRANCH  19   3
ENDBRANCH  11  19
BRANCH  12  22
ATOM     22  C   UNL     1      13.778   7.461   2.542  0.00  0.00    +0.130 C 
BRANCH  22  23
ATOM      5  O   UNL     1      16.069   7.798   3.302  0.00  0.00    -0.251 OA
ATOM     23  C   UNL     1      15.173   7.059   2.920  0.00  0.00    +0.305 C 
BRANCH  23   4
ATOM      4  O   UNL     1      15.314   5.716   2.774  0.00  0.00    -0.481 OA
ATOM     34  H   UNL     1      16.168   5.482   2.354  0.00  0.00    +0.295 HD
ENDBRANCH  23   4
ENDBRANCH  22  23
ENDBRANCH  12  22
BRANCH  25  26
ATOM     26  C   UNL     1      12.748   2.637  -2.448  0.00  0.00    +0.102 C 
BRANCH  26  27
ATOM     27  C   UNL     1      12.017   3.300  -3.640  0.00  0.00    -0.029 C 
ATOM     28  C   UNL     1      10.545   2.861  -3.716  0.00  0.00    +0.011 C 
ATOM     29  C   UNL     1      12.722   2.856  -4.938  0.00  0.00    +0.011 C 
ATOM     30  C   UNL     1      12.086   4.833  -3.549  0.00  0.00    +0.011 C 
ENDBRANCH  26  27
ENDBRANCH  25  26
TORSDOF 8
ENDMDL
MODEL 7
REMARK VINA RESULT:      -5.6     32.197     34.970
REMARK  Name = 11885051
REMARK  13 active torsions:
REMARK  status: ('A' for Active; 'I' for Inactive)
REMARK    1  A    between atoms: O_2  and  C_14
REMARK    2  A    between atoms: O_3  and  C_19
REMARK    3  A    between atoms: O_4  and  C_23
REMARK    4  A    between atoms: C_9  and  C_17
REMARK    5  A    between atoms: C_11  and  C_19
REMARK    6  A    between atoms: C_11  and  C_20
REMARK    7  A    between atoms: C_12  and  C_22
REMARK    8  A    between atoms: C_22  and  C_23
REMARK    9  A    between atoms: C_25  and  C_26
REMARK   10  A    between atoms: C_26  and  C_27
REMARK   11  A    between atoms: C_27  and  C_28
REMARK   12  A    between atoms: C_27  and  C_29
REMARK   13  A    between atoms: C_27  and  C_30
REMARK                            x       y       z     vdW  Elec       q    Type
REMARK                         _______ _______ _______ _____ _____    ______ ____
ROOT
ATOM      1  S   UNL     1       1.646 -14.635   0.407  0.00  0.00    -0.057 S 
ATOM      6  O   UNL     1      -0.361 -12.969  -3.455  0.00  0.00    -0.275 OA
ATOM      7  N   UNL     1      -0.576 -13.794  -0.616  0.00  0.00    -0.229 NA
ATOM      8  N   UNL     1       1.350 -13.806  -2.063  0.00  0.00    -0.265 N 
ATOM      9  C   UNL     1      -2.323 -14.821   2.665  0.00  0.00    -0.019 C 
ATOM     10  C   UNL     1      -1.024 -14.532   3.540  0.00  0.00    +0.011 C 
ATOM     11  C   UNL     1      -1.095 -14.904   5.071  0.00  0.00    +0.021 C 
ATOM     12  C   UNL     1      -2.199 -13.989   1.306  0.00  0.00    +0.055 C 
ATOM     13  C   UNL     1      -3.579 -14.326   3.428  0.00  0.00    +0.010 C 
ATOM     14  C   UNL     1      -2.431 -14.377   5.666  0.00  0.00    +0.123 C 
ATOM     15  C   UNL     1       0.264 -15.040   2.829  0.00  0.00    +0.049 C 
ATOM     16  C   UNL     1      -3.656 -14.810   4.869  0.00  0.00    +0.032 C 
ATOM     17  C   UNL     1      -2.502 -16.323   2.334  0.00  0.00    +0.012 C 
ATOM     18  C   UNL     1      -0.830 -14.149   0.697  0.00  0.00    +0.058 A 
ATOM     20  C   UNL     1       0.063 -14.185   5.821  0.00  0.00    +0.016 C 
ATOM     21  C   UNL     1       0.265 -14.605   1.403  0.00  0.00    +0.015 A 
ATOM     24  C   UNL     1       0.693 -14.014  -0.879  0.00  0.00    +0.165 A 
ATOM     25  C   UNL     1       0.803 -13.307  -3.257  0.00  0.00    +0.219 C 
ATOM     33  H   UNL     1       2.338 -14.047  -2.051  0.00  0.00    +0.157 HD
ENDROOT
BRANCH  14   2
ATOM      2  O   UNL     1      -2.585 -14.808   7.017  0.00  0.00    -0.391 OA
ATOM     31  H   UNL     1      -3.316 -14.306   7.412  0.00  0.00    +0.210 HD
ENDBRANCH  14   2
BRANCH  11  19
ATOM     19  C   UNL     1      -0.913 -16.408   5.373  0.00  0.00    +0.165 C 
BRANCH  19   3
ATOM      3  O   UNL     1      -0.222 -16.523   6.597  0.00  0.00    -0.394 OA
ATOM     32  H   UNL     1      -0.725 -16.039   7.274  0.00  0.00    +0.209 HD
ENDBRANCH  19   3
ENDBRANCH  11  19
BRANCH  12  22
ATOM     22  C   UNL     1      -3.307 -14.270   0.283  0.00  0.00    +0.130 C 
BRANCH  22  23
ATOM      5  O   UNL     1      -5.288 -12.855   0.162  0.00  0.00    -0.251 OA
ATOM     23  C   UNL     1      -4.093 -13.030  -0.028  0.00  0.00    +0.305 C 
BRANCH  23   4
ATOM      4  O   UNL     1      -3.270 -12.094  -0.568  0.00  0.00    -0.481 OA
ATOM     34  H   UNL     1      -3.650 -11.193  -0.504  0.00  0.00    +0.295 HD
ENDBRANCH  23   4
ENDBRANCH  22  23
ENDBRANCH  12  22
BRANCH  25  26
ATOM     26  C   UNL     1       1.828 -13.212  -4.381  0.00  0.00    +0.102 C 
BRANCH  26  27
ATOM     27  C   UNL     1       1.614 -12.028  -5.354  0.00  0.00    -0.029 C 
ATOM     28  C   UNL     1       0.292 -12.165  -6.128  0.00  0.00    +0.011 C 
ATOM     29  C   UNL     1       2.773 -12.032  -6.371  0.00  0.00    +0.011 C 
ATOM     30  C   UNL     1       1.627 -10.686  -4.606  0.00  0.00    +0.011 C 
ENDBRANCH  26  27
ENDBRANCH  25  26
TORSDOF 8
ENDMDL
MODEL 8
REMARK VINA RESULT:      -5.4     13.728     14.772
REMARK  Name = 11885051
REMARK  13 active torsions:
REMARK  status: ('A' for Active; 'I' for Inactive)
REMARK    1  A    between atoms: O_2  and  C_14
REMARK    2  A    between atoms: O_3  and  C_19
REMARK    3  A    between atoms: O_4  and  C_23
REMARK    4  A    between atoms: C_9  and  C_17
REMARK    5  A    between atoms: C_11  and  C_19
REMARK    6  A    between atoms: C_11  and  C_20
REMARK    7  A    between atoms: C_12  and  C_22
REMARK    8  A    between atoms: C_22  and  C_23
REMARK    9  A    between atoms: C_25  and  C_26
REMARK   10  A    between atoms: C_26  and  C_27
REMARK   11  A    between atoms: C_27  and  C_28
REMARK   12  A    between atoms: C_27  and  C_29
REMARK   13  A    between atoms: C_27  and  C_30
REMARK                            x       y       z     vdW  Elec       q    Type
REMARK                         _______ _______ _______ _____ _____    ______ ____
ROOT
ATOM      1  S   UNL     1      15.500   7.295   4.684  0.00  0.00    -0.057 S 
ATOM      6  O   UNL     1      18.546  10.616   5.872  0.00  0.00    -0.275 OA
ATOM      7  N   UNL     1      15.787   9.533   5.948  0.00  0.00    -0.229 NA
ATOM      8  N   UNL     1      17.751   8.626   4.886  0.00  0.00    -0.265 N 
ATOM      9  C   UNL     1      11.970   9.563   6.494  0.00  0.00    -0.019 C 
ATOM     10  C   UNL     1      11.883   7.973   6.529  0.00  0.00    +0.011 C 
ATOM     11  C   UNL     1      10.442   7.337   6.620  0.00  0.00    +0.021 C 
ATOM     12  C   UNL     1      13.472   9.984   6.843  0.00  0.00    +0.055 C 
ATOM     13  C   UNL     1      11.032  10.155   7.578  0.00  0.00    +0.010 C 
ATOM     14  C   UNL     1       9.624   8.075   7.717  0.00  0.00    +0.123 C 
ATOM     15  C   UNL     1      12.785   7.330   5.436  0.00  0.00    +0.049 C 
ATOM     16  C   UNL     1       9.619   9.590   7.547  0.00  0.00    +0.032 C 
ATOM     17  C   UNL     1      11.576  10.156   5.118  0.00  0.00    +0.012 C 
ATOM     18  C   UNL     1      14.461   9.158   6.062  0.00  0.00    +0.058 A 
ATOM     20  C   UNL     1      10.572   5.851   7.059  0.00  0.00    +0.016 C 
ATOM     21  C   UNL     1      14.136   7.962   5.454  0.00  0.00    +0.015 A 
ATOM     24  C   UNL     1      16.427   8.630   5.238  0.00  0.00    +0.165 A 
ATOM     25  C   UNL     1      18.715   9.594   5.214  0.00  0.00    +0.219 C 
ATOM     33  H   UNL     1      18.041   7.828   4.327  0.00  0.00    +0.157 HD
ENDROOT
BRANCH  14   2
ATOM      2  O   UNL     1       8.275   7.610   7.737  0.00  0.00    -0.391 OA
ATOM     31  H   UNL     1       8.150   7.082   8.542  0.00  0.00    +0.210 HD
ENDBRANCH  14   2
BRANCH  11  19
ATOM     19  C   UNL     1       9.670   7.309   5.283  0.00  0.00    +0.165 C 
BRANCH  19   3
ATOM      3  O   UNL     1       8.855   6.158   5.279  0.00  0.00    -0.394 OA
ATOM     32  H   UNL     1       8.265   6.203   6.051  0.00  0.00    +0.209 HD
ENDBRANCH  19   3
ENDBRANCH  11  19
BRANCH  12  22
ATOM     22  C   UNL     1      13.762  11.484   6.710  0.00  0.00    +0.130 C 
BRANCH  22  23
ATOM      5  O   UNL     1      13.562  12.693   8.817  0.00  0.00    -0.251 OA
ATOM     23  C   UNL     1      14.234  12.069   8.009  0.00  0.00    +0.305 C 
BRANCH  23   4
ATOM      4  O   UNL     1      15.557  11.804   8.172  0.00  0.00    -0.481 OA
ATOM     34  H   UNL     1      15.842  11.930   9.101  0.00  0.00    +0.295 HD
ENDBRANCH  23   4
ENDBRANCH  22  23
ENDBRANCH  12  22
BRANCH  25  26
ATOM     26  C   UNL     1      20.092   9.269   4.647  0.00  0.00    +0.102 C 
BRANCH  26  27
ATOM     27  C   UNL     1      20.965   8.362   5.546  0.00  0.00    -0.029 C 
ATOM     28  C   UNL     1      22.420   8.855   5.605  0.00  0.00    +0.011 C 
ATOM     29  C   UNL     1      20.958   6.943   4.942  0.00  0.00    +0.011 C 
ATOM     30  C   UNL     1      20.397   8.285   6.973  0.00  0.00    +0.011 C 
ENDBRANCH  26  27
ENDBRANCH  25  26
TORSDOF 8
ENDMDL
MODEL 9
REMARK VINA RESULT:      -5.4     29.505     33.367
REMARK  Name = 11885051
REMARK  13 active torsions:
REMARK  status: ('A' for Active; 'I' for Inactive)
REMARK    1  A    between atoms: O_2  and  C_14
REMARK    2  A    between atoms: O_3  and  C_19
REMARK    3  A    between atoms: O_4  and  C_23
REMARK    4  A    between atoms: C_9  and  C_17
REMARK    5  A    between atoms: C_11  and  C_19
REMARK    6  A    between atoms: C_11  and  C_20
REMARK    7  A    between atoms: C_12  and  C_22
REMARK    8  A    between atoms: C_22  and  C_23
REMARK    9  A    between atoms: C_25  and  C_26
REMARK   10  A    between atoms: C_26  and  C_27
REMARK   11  A    between atoms: C_27  and  C_28
REMARK   12  A    between atoms: C_27  and  C_29
REMARK   13  A    between atoms: C_27  and  C_30
REMARK                            x       y       z     vdW  Elec       q    Type
REMARK                         _______ _______ _______ _____ _____    ______ ____
ROOT
ATOM      1  S   UNL     1     -10.519 -12.983  19.134  0.00  0.00    -0.057 S 
ATOM      6  O   UNL     1     -13.652  -9.656  18.222  0.00  0.00    -0.275 OA
ATOM      7  N   UNL     1     -10.871 -10.667  18.037  0.00  0.00    -0.229 NA
ATOM      8  N   UNL     1     -12.801 -11.693  19.053  0.00  0.00    -0.265 N 
ATOM      9  C   UNL     1      -7.063 -10.509  17.454  0.00  0.00    -0.019 C 
ATOM     10  C   UNL     1      -6.941 -12.090  17.303  0.00  0.00    +0.011 C 
ATOM     11  C   UNL     1      -5.488 -12.685  17.151  0.00  0.00    +0.021 C 
ATOM     12  C   UNL     1      -8.578 -10.100  17.153  0.00  0.00    +0.055 C 
ATOM     13  C   UNL     1      -6.152  -9.820  16.406  0.00  0.00    +0.010 C 
ATOM     14  C   UNL     1      -4.700 -11.851  16.101  0.00  0.00    +0.123 C 
ATOM     15  C   UNL     1      -7.815 -12.831  18.356  0.00  0.00    +0.049 C 
ATOM     16  C   UNL     1      -4.726 -10.353  16.381  0.00  0.00    +0.032 C 
ATOM     17  C   UNL     1      -6.665 -10.009  18.865  0.00  0.00    +0.012 C 
ATOM     18  C   UNL     1      -9.539 -11.002  17.883  0.00  0.00    +0.058 A 
ATOM     20  C   UNL     1      -5.590 -14.138  16.607  0.00  0.00    +0.016 C 
ATOM     21  C   UNL     1      -9.180 -12.231  18.399  0.00  0.00    +0.015 A 
ATOM     24  C   UNL     1     -11.482 -11.633  18.687  0.00  0.00    +0.165 A 
ATOM     25  C   UNL     1     -13.790 -10.727  18.806  0.00  0.00    +0.219 C 
ATOM     33  H   UNL     1     -13.066 -12.536  19.555  0.00  0.00    +0.157 HD
ENDROOT
BRANCH  14   2
ATOM      2  O   UNL     1      -3.341 -12.282  16.033  0.00  0.00    -0.391 OA
ATOM     31  H   UNL     1      -3.130 -12.466  15.103  0.00  0.00    +0.210 HD
ENDBRANCH  14   2
BRANCH  11  19
ATOM     19  C   UNL     1      -4.698 -12.792  18.474  0.00  0.00    +0.165 C 
BRANCH  19   3
ATOM      3  O   UNL     1      -4.035 -14.037  18.482  0.00  0.00    -0.394 OA
ATOM     32  H   UNL     1      -3.619 -14.151  19.353  0.00  0.00    +0.209 HD
ENDBRANCH  19   3
ENDBRANCH  11  19
BRANCH  12  22
ATOM     22  C   UNL     1      -8.900  -8.620  17.397  0.00  0.00    +0.130 C 
BRANCH  22  23
ATOM      5  O   UNL     1      -9.646  -8.444  15.083  0.00  0.00    -0.251 OA
ATOM     23  C   UNL     1      -9.617  -8.014  16.227  0.00  0.00    +0.305 C 
BRANCH  23   4
ATOM      4  O   UNL     1     -10.254  -6.881  16.622  0.00  0.00    -0.481 OA
ATOM     34  H   UNL     1      -9.865  -6.081  16.210  0.00  0.00    +0.295 HD
ENDBRANCH  23   4
ENDBRANCH  22  23
ENDBRANCH  12  22
BRANCH  25  26
ATOM     26  C   UNL     1     -15.153 -11.123  19.363  0.00  0.00    +0.102 C 
BRANCH  26  27
ATOM     27  C   UNL     1     -15.433 -10.629  20.802  0.00  0.00    -0.029 C 
ATOM     28  C   UNL     1     -16.919 -10.769  21.169  0.00  0.00    +0.011 C 
ATOM     29  C   UNL     1     -15.054  -9.136  20.875  0.00  0.00    +0.011 C 
ATOM     30  C   UNL     1     -14.583 -11.397  21.827  0.00  0.00    +0.011 C 
ENDBRANCH  26  27
ENDBRANCH  25  26
TORSDOF 8
ENDMDL
MODEL 10
REMARK VINA RESULT:      -5.3     11.558     15.020
REMARK  Name = 11885051
REMARK  13 active torsions:
REMARK  status: ('A' for Active; 'I' for Inactive)
REMARK    1  A    between atoms: O_2  and  C_14
REMARK    2  A    between atoms: O_3  and  C_19
REMARK    3  A    between atoms: O_4  and  C_23
REMARK    4  A    between atoms: C_9  and  C_17
REMARK    5  A    between atoms: C_11  and  C_19
REMARK    6  A    between atoms: C_11  and  C_20
REMARK    7  A    between atoms: C_12  and  C_22
REMARK    8  A    between atoms: C_22  and  C_23
REMARK    9  A    between atoms: C_25  and  C_26
REMARK   10  A    between atoms: C_26  and  C_27
REMARK   11  A    between atoms: C_27  and  C_28
REMARK   12  A    between atoms: C_27  and  C_29
REMARK   13  A    between atoms: C_27  and  C_30
REMARK                            x       y       z     vdW  Elec       q    Type
REMARK                         _______ _______ _______ _____ _____    ______ ____
ROOT
ATOM      1  S   UNL     1      22.083  -6.503  25.637  0.00  0.00    -0.057 S 
ATOM      6  O   UNL     1      23.109  -9.254  22.018  0.00  0.00    -0.275 OA
ATOM      7  N   UNL     1      21.539  -7.013  23.160  0.00  0.00    -0.229 NA
ATOM      8  N   UNL     1      23.214  -8.391  24.211  0.00  0.00    -0.265 N 
ATOM      9  C   UNL     1      18.704  -4.409  23.382  0.00  0.00    -0.019 C 
ATOM     10  C   UNL     1      19.485  -3.534  24.459  0.00  0.00    +0.011 C 
ATOM     11  C   UNL     1      18.719  -2.296  25.067  0.00  0.00    +0.021 C 
ATOM     12  C   UNL     1      19.775  -5.300  22.598  0.00  0.00    +0.055 C 
ATOM     13  C   UNL     1      18.008  -3.471  22.362  0.00  0.00    +0.010 C 
ATOM     14  C   UNL     1      18.045  -1.495  23.918  0.00  0.00    +0.123 C 
ATOM     15  C   UNL     1      20.177  -4.430  25.526  0.00  0.00    +0.049 C 
ATOM     16  C   UNL     1      17.186  -2.362  23.004  0.00  0.00    +0.032 C 
ATOM     17  C   UNL     1      17.635  -5.332  24.019  0.00  0.00    +0.012 C 
ATOM     18  C   UNL     1      20.733  -5.962  23.555  0.00  0.00    +0.058 A 
ATOM     20  C   UNL     1      19.747  -1.350  25.750  0.00  0.00    +0.016 C 
ATOM     21  C   UNL     1      20.911  -5.544  24.859  0.00  0.00    +0.015 A 
ATOM     24  C   UNL     1      22.287  -7.383  24.177  0.00  0.00    +0.165 A 
ATOM     25  C   UNL     1      23.567  -9.250  23.158  0.00  0.00    +0.219 C 
ATOM     33  H   UNL     1      23.681  -8.510  25.106  0.00  0.00    +0.157 HD
ENDROOT
BRANCH  14   2
ATOM      2  O   UNL     1      17.237  -0.443  24.445  0.00  0.00    -0.391 OA
ATOM     31  H   UNL     1      17.689   0.399  24.273  0.00  0.00    +0.210 HD
ENDBRANCH  14   2
BRANCH  11  19
ATOM     19  C   UNL     1      17.693  -2.655  26.164  0.00  0.00    +0.165 C 
BRANCH  19   3
ATOM      3  O   UNL     1      18.270  -2.345  27.413  0.00  0.00    -0.394 OA
ATOM     32  H   UNL     1      19.172  -2.704  27.426  0.00  0.00    +0.209 HD
ENDBRANCH  19   3
ENDBRANCH  11  19
BRANCH  12  22
ATOM     22  C   UNL     1      19.168  -6.313  21.619  0.00  0.00    +0.130 C 
BRANCH  22  23
ATOM      5  O   UNL     1      20.355  -5.157  19.831  0.00  0.00    -0.251 OA
ATOM     23  C   UNL     1      19.657  -6.083  20.219  0.00  0.00    +0.305 C 
BRANCH  23   4
ATOM      4  O   UNL     1      19.204  -7.076  19.411  0.00  0.00    -0.481 OA
ATOM     34  H   UNL     1      19.192  -6.804  18.469  0.00  0.00    +0.295 HD
ENDBRANCH  23   4
ENDBRANCH  22  23
ENDBRANCH  12  22
BRANCH  25  26
ATOM     26  C   UNL     1      24.635 -10.262  23.555  0.00  0.00    +0.102 C 
BRANCH  26  27
ATOM     27  C   UNL     1      26.054  -9.949  23.022  0.00  0.00    -0.029 C 
ATOM     28  C   UNL     1      26.216  -8.458  22.685  0.00  0.00    +0.011 C 
ATOM     29  C   UNL     1      26.268 -10.764  21.731  0.00  0.00    +0.011 C 
ATOM     30  C   UNL     1      27.131 -10.360  24.040  0.00  0.00    +0.011 C 
ENDBRANCH  26  27
ENDBRANCH  25  26
TORSDOF 8
ENDMDL
