MODEL 1
REMARK VINA RESULT:      -7.1      0.000      0.000
REMARK  Name = 26743672
REMARK  7 active torsions:
REMARK  status: ('A' for Active; 'I' for Inactive)
REMARK    1  A    between atoms: O_1  and  C_11
REMARK    2  A    between atoms: O_4  and  C_21
REMARK    3  A    between atoms: N_5  and  C_13
REMARK    4  A    between atoms: C_9  and  C_14
REMARK    5  A    between atoms: C_13  and  C_15
REMARK    6  A    between atoms: C_17  and  C_20
REMARK    7  A    between atoms: C_18  and  C_21
REMARK                            x       y       z     vdW  Elec       q    Type
REMARK                         _______ _______ _______ _____ _____    ______ ____
ROOT
ATOM      5  N   UNL     1      13.172   7.828  20.627  0.00  0.00    -0.282 NA
ATOM      9  C   UNL     1      12.284   7.781  19.447  0.00  0.00    +0.149 C 
ATOM     10  C   UNL     1      11.039   8.588  19.860  0.00  0.00    +0.061 C 
ATOM     11  C   UNL     1      11.301   9.008  21.300  0.00  0.00    +0.130 C 
ATOM     12  C   UNL     1      12.305   7.982  21.793  0.00  0.00    +0.117 C 
ENDROOT
BRANCH   9  14
ATOM      2  O   UNL     1      12.868   7.545  17.086  0.00  0.00    -0.336 OA
ATOM      6  N   UNL     1      13.593   9.446  18.022  0.00  0.00    -0.189 NA
ATOM      7  N   UNL     1      13.541   8.244  16.076  0.00  0.00    -0.054 NA
ATOM     14  C   UNL     1      12.946   8.322  18.198  0.00  0.00    +0.245 A 
ATOM     17  C   UNL     1      13.940   9.354  16.705  0.00  0.00    +0.220 A 
BRANCH  17  20
ATOM      8  N   UNL     1      14.881  10.215  14.721  0.00  0.00    -0.252 NA
ATOM     20  C   UNL     1      14.684  10.389  16.047  0.00  0.00    +0.111 A 
ATOM     22  C   UNL     1      15.152  11.477  16.765  0.00  0.00    +0.031 A 
ATOM     23  C   UNL     1      15.868  12.451  16.078  0.00  0.00    +0.004 A 
ATOM     24  C   UNL     1      15.581  11.183  14.087  0.00  0.00    +0.111 A 
ATOM     25  C   UNL     1      16.091  12.308  14.713  0.00  0.00    +0.020 A 
ENDBRANCH  17  20
ENDBRANCH   9  14
BRANCH  11   1
ATOM      1  O   UNL     1      10.107   8.977  22.057  0.00  0.00    -0.390 OA
ATOM     26  H   UNL     1       9.548   9.712  21.751  0.00  0.00    +0.210 HD
ENDBRANCH  11   1
BRANCH   5  13
ATOM     13  C   UNL     1      14.040   6.663  20.739  0.00  0.00    +0.159 C 
BRANCH  13  15
ATOM      3  O   UNL     1      16.382   6.148  20.322  0.00  0.00    -0.461 OA
ATOM     15  C   UNL     1      15.493   7.050  20.814  0.00  0.00    +0.119 A 
ATOM     16  C   UNL     1      16.148   8.162  21.292  0.00  0.00    +0.046 A 
ATOM     18  C   UNL     1      17.618   6.689  20.488  0.00  0.00    +0.131 A 
ATOM     19  C   UNL     1      17.528   7.928  21.079  0.00  0.00    +0.047 A 
BRANCH  18  21
ATOM     21  C   UNL     1      18.751   5.878  20.020  0.00  0.00    +0.230 C 
BRANCH  21   4
ATOM      4  O   UNL     1      18.374   5.119  18.868  0.00  0.00    -0.387 OA
ATOM     27  H   UNL     1      17.499   4.737  19.055  0.00  0.00    +0.210 HD
ENDBRANCH  21   4
ENDBRANCH  18  21
ENDBRANCH  13  15
ENDBRANCH   5  13
TORSDOF 7
ENDMDL
MODEL 2
REMARK VINA RESULT:      -6.9      3.340      6.460
REMARK  Name = 26743672
REMARK  7 active torsions:
REMARK  status: ('A' for Active; 'I' for Inactive)
REMARK    1  A    between atoms: O_1  and  C_11
REMARK    2  A    between atoms: O_4  and  C_21
REMARK    3  A    between atoms: N_5  and  C_13
REMARK    4  A    between atoms: C_9  and  C_14
REMARK    5  A    between atoms: C_13  and  C_15
REMARK    6  A    between atoms: C_17  and  C_20
REMARK    7  A    between atoms: C_18  and  C_21
REMARK                            x       y       z     vdW  Elec       q    Type
REMARK                         _______ _______ _______ _____ _____    ______ ____
ROOT
ATOM      5  N   UNL     1      12.001   8.665  19.749  0.00  0.00    -0.282 NA
ATOM      9  C   UNL     1      12.871   7.522  19.404  0.00  0.00    +0.149 C 
ATOM     10  C   UNL     1      12.661   7.312  17.892  0.00  0.00    +0.061 C 
ATOM     11  C   UNL     1      11.624   8.352  17.489  0.00  0.00    +0.130 C 
ATOM     12  C   UNL     1      10.900   8.654  18.788  0.00  0.00    +0.117 C 
ENDROOT
BRANCH   9  14
ATOM      2  O   UNL     1      14.724   9.060  19.822  0.00  0.00    -0.336 OA
ATOM      6  N   UNL     1      15.264   6.897  20.039  0.00  0.00    -0.189 NA
ATOM      7  N   UNL     1      16.080   9.031  20.169  0.00  0.00    -0.054 NA
ATOM     14  C   UNL     1      14.321   7.764  19.766  0.00  0.00    +0.245 A 
ATOM     17  C   UNL     1      16.325   7.722  20.279  0.00  0.00    +0.220 A 
BRANCH  17  20
ATOM      8  N   UNL     1      18.248   7.844  21.640  0.00  0.00    -0.252 NA
ATOM     20  C   UNL     1      17.617   7.205  20.630  0.00  0.00    +0.111 A 
ATOM     22  C   UNL     1      18.144   6.121  19.947  0.00  0.00    +0.031 A 
ATOM     23  C   UNL     1      19.400   5.661  20.327  0.00  0.00    +0.004 A 
ATOM     24  C   UNL     1      19.467   7.369  21.981  0.00  0.00    +0.111 A 
ATOM     25  C   UNL     1      20.081   6.292  21.363  0.00  0.00    +0.020 A 
ENDBRANCH  17  20
ENDBRANCH   9  14
BRANCH  11   1
ATOM      1  O   UNL     1      10.747   7.832  16.509  0.00  0.00    -0.390 OA
ATOM     26  H   UNL     1      10.001   7.417  16.976  0.00  0.00    +0.210 HD
ENDBRANCH  11   1
BRANCH   5  13
ATOM     13  C   UNL     1      11.527   8.630  21.127  0.00  0.00    +0.159 C 
BRANCH  13  15
ATOM      3  O   UNL     1      11.300  10.045  23.094  0.00  0.00    -0.461 OA
ATOM     15  C   UNL     1      11.522   9.999  21.754  0.00  0.00    +0.119 A 
ATOM     16  C   UNL     1      11.698  11.266  21.250  0.00  0.00    +0.046 A 
ATOM     18  C   UNL     1      11.335  11.356  23.449  0.00  0.00    +0.131 A 
ATOM     19  C   UNL     1      11.577  12.148  22.351  0.00  0.00    +0.047 A 
BRANCH  18  21
ATOM     21  C   UNL     1      11.118  11.651  24.873  0.00  0.00    +0.230 C 
BRANCH  21   4
ATOM      4  O   UNL     1      11.225  10.453  25.647  0.00  0.00    -0.387 OA
ATOM     27  H   UNL     1      10.319  10.139  25.810  0.00  0.00    +0.210 HD
ENDBRANCH  21   4
ENDBRANCH  18  21
ENDBRANCH  13  15
ENDBRANCH   5  13
TORSDOF 7
ENDMDL
MODEL 3
REMARK VINA RESULT:      -6.8      2.238      5.994
REMARK  Name = 26743672
REMARK  7 active torsions:
REMARK  status: ('A' for Active; 'I' for Inactive)
REMARK    1  A    between atoms: O_1  and  C_11
REMARK    2  A    between atoms: O_4  and  C_21
REMARK    3  A    between atoms: N_5  and  C_13
REMARK    4  A    between atoms: C_9  and  C_14
REMARK    5  A    between atoms: C_13  and  C_15
REMARK    6  A    between atoms: C_17  and  C_20
REMARK    7  A    between atoms: C_18  and  C_21
REMARK                            x       y       z     vdW  Elec       q    Type
REMARK                         _______ _______ _______ _____ _____    ______ ____
ROOT
ATOM      5  N   UNL     1      12.319   8.526  19.809  0.00  0.00    -0.282 NA
ATOM      9  C   UNL     1      13.123   8.275  21.023  0.00  0.00    +0.149 C 
ATOM     10  C   UNL     1      12.221   7.403  21.918  0.00  0.00    +0.061 C 
ATOM     11  C   UNL     1      10.918   7.257  21.141  0.00  0.00    +0.130 C 
ATOM     12  C   UNL     1      10.918   8.461  20.218  0.00  0.00    +0.117 C 
ENDROOT
BRANCH   9  14
ATOM      2  O   UNL     1      14.442   6.638  19.778  0.00  0.00    -0.336 OA
ATOM      6  N   UNL     1      15.634   7.860  21.227  0.00  0.00    -0.189 NA
ATOM      7  N   UNL     1      15.764   6.191  19.668  0.00  0.00    -0.054 NA
ATOM     14  C   UNL     1      14.453   7.620  20.717  0.00  0.00    +0.245 A 
ATOM     17  C   UNL     1      16.407   6.959  20.553  0.00  0.00    +0.220 A 
BRANCH  17  20
ATOM      8  N   UNL     1      18.351   7.801  21.590  0.00  0.00    -0.252 NA
ATOM     20  C   UNL     1      17.818   6.853  20.787  0.00  0.00    +0.111 A 
ATOM     22  C   UNL     1      18.547   5.829  20.204  0.00  0.00    +0.031 A 
ATOM     23  C   UNL     1      19.912   5.773  20.463  0.00  0.00    +0.004 A 
ATOM     24  C   UNL     1      19.680   7.714  21.818  0.00  0.00    +0.111 A 
ATOM     25  C   UNL     1      20.498   6.731  21.285  0.00  0.00    +0.020 A 
ENDBRANCH  17  20
ENDBRANCH   9  14
BRANCH  11   1
ATOM      1  O   UNL     1       9.809   7.268  22.018  0.00  0.00    -0.390 OA
ATOM     26  H   UNL     1      10.121   7.591  22.881  0.00  0.00    +0.210 HD
ENDBRANCH  11   1
BRANCH   5  13
ATOM     13  C   UNL     1      12.643   9.789  19.158  0.00  0.00    +0.159 C 
BRANCH  13  15
ATOM      3  O   UNL     1      13.400  10.707  17.035  0.00  0.00    -0.461 OA
ATOM     15  C   UNL     1      13.171   9.583  17.763  0.00  0.00    +0.119 A 
ATOM     16  C   UNL     1      13.484   8.461  17.032  0.00  0.00    +0.046 A 
ATOM     18  C   UNL     1      13.865  10.298  15.825  0.00  0.00    +0.131 A 
ATOM     19  C   UNL     1      13.936   8.925  15.773  0.00  0.00    +0.047 A 
BRANCH  18  21
ATOM     21  C   UNL     1      14.186  11.359  14.859  0.00  0.00    +0.230 C 
BRANCH  21   4
ATOM      4  O   UNL     1      13.153  11.461  13.877  0.00  0.00    -0.387 OA
ATOM     27  H   UNL     1      13.535  11.925  13.111  0.00  0.00    +0.210 HD
ENDBRANCH  21   4
ENDBRANCH  18  21
ENDBRANCH  13  15
ENDBRANCH   5  13
TORSDOF 7
ENDMDL
MODEL 4
REMARK VINA RESULT:      -6.5      2.986      5.866
REMARK  Name = 26743672
REMARK  7 active torsions:
REMARK  status: ('A' for Active; 'I' for Inactive)
REMARK    1  A    between atoms: O_1  and  C_11
REMARK    2  A    between atoms: O_4  and  C_21
REMARK    3  A    between atoms: N_5  and  C_13
REMARK    4  A    between atoms: C_9  and  C_14
REMARK    5  A    between atoms: C_13  and  C_15
REMARK    6  A    between atoms: C_17  and  C_20
REMARK    7  A    between atoms: C_18  and  C_21
REMARK                            x       y       z     vdW  Elec       q    Type
REMARK                         _______ _______ _______ _____ _____    ______ ____
ROOT
ATOM      5  N   UNL     1      12.876   7.562  20.038  0.00  0.00    -0.282 NA
ATOM      9  C   UNL     1      13.058   9.028  20.081  0.00  0.00    +0.149 C 
ATOM     10  C   UNL     1      12.730   9.506  18.654  0.00  0.00    +0.061 C 
ATOM     11  C   UNL     1      12.421   8.236  17.873  0.00  0.00    +0.130 C 
ATOM     12  C   UNL     1      13.136   7.153  18.659  0.00  0.00    +0.117 C 
ENDROOT
BRANCH   9  14
ATOM      2  O   UNL     1      11.158   8.958  21.616  0.00  0.00    -0.336 OA
ATOM      6  N   UNL     1      12.300  10.884  21.661  0.00  0.00    -0.189 NA
ATOM      7  N   UNL     1      10.517   9.768  22.562  0.00  0.00    -0.054 NA
ATOM     14  C   UNL     1      12.196   9.691  21.134  0.00  0.00    +0.245 A 
ATOM     17  C   UNL     1      11.248  10.886  22.532  0.00  0.00    +0.220 A 
BRANCH  17  20
ATOM      8  N   UNL     1      10.989  11.800  24.691  0.00  0.00    -0.252 NA
ATOM     20  C   UNL     1      10.956  12.022  23.358  0.00  0.00    +0.111 A 
ATOM     22  C   UNL     1      10.662  13.247  22.782  0.00  0.00    +0.031 A 
ATOM     23  C   UNL     1      10.386  14.314  23.630  0.00  0.00    +0.004 A 
ATOM     24  C   UNL     1      10.715  12.860  25.483  0.00  0.00    +0.111 A 
ATOM     25  C   UNL     1      10.410  14.126  25.007  0.00  0.00    +0.020 A 
ENDBRANCH  17  20
ENDBRANCH   9  14
BRANCH  11   1
ATOM      1  O   UNL     1      12.908   8.331  16.549  0.00  0.00    -0.390 OA
ATOM     26  H   UNL     1      12.146   8.496  15.968  0.00  0.00    +0.210 HD
ENDBRANCH  11   1
BRANCH   5  13
ATOM     13  C   UNL     1      13.721   6.851  20.989  0.00  0.00    +0.159 C 
BRANCH  13  15
ATOM      3  O   UNL     1      15.905   6.147  20.178  0.00  0.00    -0.461 OA
ATOM     15  C   UNL     1      15.183   7.137  20.765  0.00  0.00    +0.119 A 
ATOM     16  C   UNL     1      15.981   8.223  21.036  0.00  0.00    +0.046 A 
ATOM     18  C   UNL     1      17.180   6.607  20.073  0.00  0.00    +0.131 A 
ATOM     19  C   UNL     1      17.279   7.879  20.586  0.00  0.00    +0.047 A 
BRANCH  18  21
ATOM     21  C   UNL     1      18.153   5.693  19.457  0.00  0.00    +0.230 C 
BRANCH  21   4
ATOM      4  O   UNL     1      17.734   5.343  18.136  0.00  0.00    -0.387 OA
ATOM     27  H   UNL     1      17.038   4.669  18.228  0.00  0.00    +0.210 HD
ENDBRANCH  21   4
ENDBRANCH  18  21
ENDBRANCH  13  15
ENDBRANCH   5  13
TORSDOF 7
ENDMDL
MODEL 5
REMARK VINA RESULT:      -6.2     25.721     28.330
REMARK  Name = 26743672
REMARK  7 active torsions:
REMARK  status: ('A' for Active; 'I' for Inactive)
REMARK    1  A    between atoms: O_1  and  C_11
REMARK    2  A    between atoms: O_4  and  C_21
REMARK    3  A    between atoms: N_5  and  C_13
REMARK    4  A    between atoms: C_9  and  C_14
REMARK    5  A    between atoms: C_13  and  C_15
REMARK    6  A    between atoms: C_17  and  C_20
REMARK    7  A    between atoms: C_18  and  C_21
REMARK                            x       y       z     vdW  Elec       q    Type
REMARK                         _______ _______ _______ _____ _____    ______ ____
ROOT
ATOM      5  N   UNL     1      -3.520 -10.621  14.716  0.00  0.00    -0.282 NA
ATOM      9  C   UNL     1      -3.577 -11.327  16.013  0.00  0.00    +0.149 C 
ATOM     10  C   UNL     1      -2.239 -10.994  16.699  0.00  0.00    +0.061 C 
ATOM     11  C   UNL     1      -1.482 -10.136  15.694  0.00  0.00    +0.130 C 
ATOM     12  C   UNL     1      -2.106 -10.514  14.363  0.00  0.00    +0.117 C 
ENDROOT
BRANCH   9  14
ATOM      2  O   UNL     1      -4.622 -10.966  18.192  0.00  0.00    -0.336 OA
ATOM      6  N   UNL     1      -5.964 -10.535  16.451  0.00  0.00    -0.189 NA
ATOM      7  N   UNL     1      -5.846 -10.559  18.736  0.00  0.00    -0.054 NA
ATOM     14  C   UNL     1      -4.777 -10.924  16.843  0.00  0.00    +0.245 A 
ATOM     17  C   UNL     1      -6.586 -10.322  17.648  0.00  0.00    +0.220 A 
BRANCH  17  20
ATOM      8  N   UNL     1      -8.755 -10.584  18.537  0.00  0.00    -0.252 NA
ATOM     20  C   UNL     1      -7.945  -9.871  17.722  0.00  0.00    +0.111 A 
ATOM     22  C   UNL     1      -8.357  -8.772  16.986  0.00  0.00    +0.031 A 
ATOM     23  C   UNL     1      -9.686  -8.377  17.094  0.00  0.00    +0.004 A 
ATOM     24  C   UNL     1     -10.040 -10.171  18.615  0.00  0.00    +0.111 A 
ATOM     25  C   UNL     1     -10.550  -9.086  17.922  0.00  0.00    +0.020 A 
ENDBRANCH  17  20
ENDBRANCH   9  14
BRANCH  11   1
ATOM      1  O   UNL     1      -0.099 -10.429  15.725  0.00  0.00    -0.390 OA
ATOM     26  H   UNL     1       0.271 -10.189  14.858  0.00  0.00    +0.210 HD
ENDBRANCH  11   1
BRANCH   5  13
ATOM     13  C   UNL     1      -4.297 -11.277  13.672  0.00  0.00    +0.159 C 
BRANCH  13  15
ATOM      3  O   UNL     1      -3.983 -10.160  11.532  0.00  0.00    -0.461 OA
ATOM     15  C   UNL     1      -4.773 -10.300  12.629  0.00  0.00    +0.119 A 
ATOM     16  C   UNL     1      -5.876  -9.484  12.537  0.00  0.00    +0.046 A 
ATOM     18  C   UNL     1      -4.589  -9.244  10.731  0.00  0.00    +0.131 A 
ATOM     19  C   UNL     1      -5.757  -8.798  11.304  0.00  0.00    +0.047 A 
BRANCH  18  21
ATOM     21  C   UNL     1      -3.905  -8.929   9.469  0.00  0.00    +0.230 C 
BRANCH  21   4
ATOM      4  O   UNL     1      -4.842  -8.916   8.389  0.00  0.00    -0.387 OA
ATOM     27  H   UNL     1      -5.387  -8.118   8.496  0.00  0.00    +0.210 HD
ENDBRANCH  21   4
ENDBRANCH  18  21
ENDBRANCH  13  15
ENDBRANCH   5  13
TORSDOF 7
ENDMDL
MODEL 6
REMARK VINA RESULT:      -6.2      2.765      6.703
REMARK  Name = 26743672
REMARK  7 active torsions:
REMARK  status: ('A' for Active; 'I' for Inactive)
REMARK    1  A    between atoms: O_1  and  C_11
REMARK    2  A    between atoms: O_4  and  C_21
REMARK    3  A    between atoms: N_5  and  C_13
REMARK    4  A    between atoms: C_9  and  C_14
REMARK    5  A    between atoms: C_13  and  C_15
REMARK    6  A    between atoms: C_17  and  C_20
REMARK    7  A    between atoms: C_18  and  C_21
REMARK                            x       y       z     vdW  Elec       q    Type
REMARK                         _______ _______ _______ _____ _____    ______ ____
ROOT
ATOM      5  N   UNL     1      14.657   9.059  19.889  0.00  0.00    -0.282 NA
ATOM      9  C   UNL     1      14.556   7.634  19.515  0.00  0.00    +0.149 C 
ATOM     10  C   UNL     1      13.894   7.638  18.124  0.00  0.00    +0.061 C 
ATOM     11  C   UNL     1      13.620   9.106  17.823  0.00  0.00    +0.130 C 
ATOM     12  C   UNL     1      13.569   9.747  19.197  0.00  0.00    +0.117 C 
ENDROOT
BRANCH   9  14
ATOM      2  O   UNL     1      16.146   6.087  18.490  0.00  0.00    -0.336 OA
ATOM      6  N   UNL     1      16.875   7.021  20.390  0.00  0.00    -0.189 NA
ATOM      7  N   UNL     1      17.427   5.567  18.712  0.00  0.00    -0.054 NA
ATOM     14  C   UNL     1      15.898   6.933  19.523  0.00  0.00    +0.245 A 
ATOM     17  C   UNL     1      17.791   6.164  19.850  0.00  0.00    +0.220 A 
BRANCH  17  20
ATOM      8  N   UNL     1      19.753   4.864  20.010  0.00  0.00    -0.252 NA
ATOM     20  C   UNL     1      19.062   5.930  20.473  0.00  0.00    +0.111 A 
ATOM     22  C   UNL     1      19.510   6.767  21.482  0.00  0.00    +0.031 A 
ATOM     23  C   UNL     1      20.749   6.494  22.052  0.00  0.00    +0.004 A 
ATOM     24  C   UNL     1      20.952   4.630  20.588  0.00  0.00    +0.111 A 
ATOM     25  C   UNL     1      21.490   5.406  21.602  0.00  0.00    +0.020 A 
ENDBRANCH  17  20
ENDBRANCH   9  14
BRANCH  11   1
ATOM      1  O   UNL     1      12.396   9.255  17.129  0.00  0.00    -0.390 OA
ATOM     26  H   UNL     1      12.453   8.720  16.319  0.00  0.00    +0.210 HD
ENDBRANCH  11   1
BRANCH   5  13
ATOM     13  C   UNL     1      14.615   9.279  21.329  0.00  0.00    +0.159 C 
BRANCH  13  15
ATOM      3  O   UNL     1      12.803  10.251  22.631  0.00  0.00    -0.461 OA
ATOM     15  C   UNL     1      13.211   9.203  21.869  0.00  0.00    +0.119 A 
ATOM     16  C   UNL     1      12.209   8.267  21.757  0.00  0.00    +0.046 A 
ATOM     18  C   UNL     1      11.526   9.981  23.010  0.00  0.00    +0.131 A 
ATOM     19  C   UNL     1      11.114   8.773  22.498  0.00  0.00    +0.047 A 
BRANCH  18  21
ATOM     21  C   UNL     1      10.870  10.992  23.853  0.00  0.00    +0.230 C 
BRANCH  21   4
ATOM      4  O   UNL     1      11.262  10.826  25.218  0.00  0.00    -0.387 OA
ATOM     27  H   UNL     1      12.234  10.785  25.231  0.00  0.00    +0.210 HD
ENDBRANCH  21   4
ENDBRANCH  18  21
ENDBRANCH  13  15
ENDBRANCH   5  13
TORSDOF 7
ENDMDL
MODEL 7
REMARK VINA RESULT:      -6.1     26.382     28.747
REMARK  Name = 26743672
REMARK  7 active torsions:
REMARK  status: ('A' for Active; 'I' for Inactive)
REMARK    1  A    between atoms: O_1  and  C_11
REMARK    2  A    between atoms: O_4  and  C_21
REMARK    3  A    between atoms: N_5  and  C_13
REMARK    4  A    between atoms: C_9  and  C_14
REMARK    5  A    between atoms: C_13  and  C_15
REMARK    6  A    between atoms: C_17  and  C_20
REMARK    7  A    between atoms: C_18  and  C_21
REMARK                            x       y       z     vdW  Elec       q    Type
REMARK                         _______ _______ _______ _____ _____    ______ ____
ROOT
ATOM      5  N   UNL     1      -7.290 -10.739  17.536  0.00  0.00    -0.282 NA
ATOM      9  C   UNL     1      -5.919 -11.007  18.017  0.00  0.00    +0.149 C 
ATOM     10  C   UNL     1      -5.997 -12.401  18.669  0.00  0.00    +0.061 C 
ATOM     11  C   UNL     1      -7.459 -12.812  18.546  0.00  0.00    +0.130 C 
ATOM     12  C   UNL     1      -8.190 -11.490  18.409  0.00  0.00    +0.117 C 
ENDROOT
BRANCH   9  14
ATOM      2  O   UNL     1      -3.596 -11.152  17.270  0.00  0.00    -0.336 OA
ATOM      6  N   UNL     1      -5.057 -10.693  15.634  0.00  0.00    -0.189 NA
ATOM      7  N   UNL     1      -2.842 -11.036  16.096  0.00  0.00    -0.054 NA
ATOM     14  C   UNL     1      -4.889 -10.936  16.910  0.00  0.00    +0.245 A 
ATOM     17  C   UNL     1      -3.772 -10.764  15.176  0.00  0.00    +0.220 A 
BRANCH  17  20
ATOM      8  N   UNL     1      -4.511 -10.385  12.968  0.00  0.00    -0.252 NA
ATOM     20  C   UNL     1      -3.454 -10.562  13.792  0.00  0.00    +0.111 A 
ATOM     22  C   UNL     1      -2.134 -10.557  13.373  0.00  0.00    +0.031 A 
ATOM     23  C   UNL     1      -1.881 -10.357  12.020  0.00  0.00    +0.004 A 
ATOM     24  C   UNL     1      -4.226 -10.194  11.661  0.00  0.00    +0.111 A 
ATOM     25  C   UNL     1      -2.942 -10.171  11.141  0.00  0.00    +0.020 A 
ENDBRANCH  17  20
ENDBRANCH   9  14
BRANCH  11   1
ATOM      1  O   UNL     1      -7.877 -13.526  19.693  0.00  0.00    -0.390 OA
ATOM     26  H   UNL     1      -7.098 -13.645  20.263  0.00  0.00    +0.210 HD
ENDBRANCH  11   1
BRANCH   5  13
ATOM     13  C   UNL     1      -7.618  -9.319  17.502  0.00  0.00    +0.159 C 
BRANCH  13  15
ATOM      3  O   UNL     1      -9.376  -7.886  16.620  0.00  0.00    -0.461 OA
ATOM     15  C   UNL     1      -8.625  -9.002  16.428  0.00  0.00    +0.119 A 
ATOM     16  C   UNL     1      -8.968  -9.618  15.247  0.00  0.00    +0.046 A 
ATOM     18  C   UNL     1     -10.208  -7.789  15.550  0.00  0.00    +0.131 A 
ATOM     19  C   UNL     1      -9.996  -8.830  14.676  0.00  0.00    +0.047 A 
BRANCH  18  21
ATOM     21  C   UNL     1     -11.126  -6.640  15.541  0.00  0.00    +0.230 C 
BRANCH  21   4
ATOM      4  O   UNL     1     -10.976  -5.879  16.742  0.00  0.00    -0.387 OA
ATOM     27  H   UNL     1     -11.254  -6.452  17.478  0.00  0.00    +0.210 HD
ENDBRANCH  21   4
ENDBRANCH  18  21
ENDBRANCH  13  15
ENDBRANCH   5  13
TORSDOF 7
ENDMDL
MODEL 8
REMARK VINA RESULT:      -6.0      3.545      5.946
REMARK  Name = 26743672
REMARK  7 active torsions:
REMARK  status: ('A' for Active; 'I' for Inactive)
REMARK    1  A    between atoms: O_1  and  C_11
REMARK    2  A    between atoms: O_4  and  C_21
REMARK    3  A    between atoms: N_5  and  C_13
REMARK    4  A    between atoms: C_9  and  C_14
REMARK    5  A    between atoms: C_13  and  C_15
REMARK    6  A    between atoms: C_17  and  C_20
REMARK    7  A    between atoms: C_18  and  C_21
REMARK                            x       y       z     vdW  Elec       q    Type
REMARK                         _______ _______ _______ _____ _____    ______ ____
ROOT
ATOM      5  N   UNL     1      13.258   7.983  20.664  0.00  0.00    -0.282 NA
ATOM      9  C   UNL     1      11.999   8.754  20.619  0.00  0.00    +0.149 C 
ATOM     10  C   UNL     1      10.922   7.777  21.130  0.00  0.00    +0.061 C 
ATOM     11  C   UNL     1      11.665   6.473  21.392  0.00  0.00    +0.130 C 
ATOM     12  C   UNL     1      12.890   6.578  20.503  0.00  0.00    +0.117 C 
ENDROOT
BRANCH   9  14
ATOM      2  O   UNL     1      11.671  11.168  20.807  0.00  0.00    -0.336 OA
ATOM      6  N   UNL     1      12.456  10.203  22.671  0.00  0.00    -0.189 NA
ATOM      7  N   UNL     1      11.821  12.197  21.745  0.00  0.00    -0.054 NA
ATOM     14  C   UNL     1      12.067  10.029  21.433  0.00  0.00    +0.245 A 
ATOM     17  C   UNL     1      12.288  11.551  22.817  0.00  0.00    +0.220 A 
BRANCH  17  20
ATOM      8  N   UNL     1      13.679  11.757  24.711  0.00  0.00    -0.252 NA
ATOM     20  C   UNL     1      12.594  12.218  24.049  0.00  0.00    +0.111 A 
ATOM     22  C   UNL     1      11.799  13.262  24.494  0.00  0.00    +0.031 A 
ATOM     23  C   UNL     1      12.140  13.874  25.695  0.00  0.00    +0.004 A 
ATOM     24  C   UNL     1      13.979  12.376  25.874  0.00  0.00    +0.111 A 
ATOM     25  C   UNL     1      13.250  13.428  26.405  0.00  0.00    +0.020 A 
ENDBRANCH  17  20
ENDBRANCH   9  14
BRANCH  11   1
ATOM      1  O   UNL     1      10.862   5.361  21.048  0.00  0.00    -0.390 OA
ATOM     26  H   UNL     1      11.428   4.726  20.578  0.00  0.00    +0.210 HD
ENDBRANCH  11   1
BRANCH   5  13
ATOM     13  C   UNL     1      14.229   8.413  19.666  0.00  0.00    +0.159 C 
BRANCH  13  15
ATOM      3  O   UNL     1      16.392   8.319  20.778  0.00  0.00    -0.461 OA
ATOM     15  C   UNL     1      15.567   7.749  19.862  0.00  0.00    +0.119 A 
ATOM     16  C   UNL     1      16.164   6.648  19.293  0.00  0.00    +0.046 A 
ATOM     18  C   UNL     1      17.528   7.573  20.795  0.00  0.00    +0.131 A 
ATOM     19  C   UNL     1      17.438   6.534  19.899  0.00  0.00    +0.047 A 
BRANCH  18  21
ATOM     21  C   UNL     1      18.579   8.009  21.727  0.00  0.00    +0.230 C 
BRANCH  21   4
ATOM      4  O   UNL     1      19.041   6.900  22.502  0.00  0.00    -0.387 OA
ATOM     27  H   UNL     1      18.263   6.354  22.710  0.00  0.00    +0.210 HD
ENDBRANCH  21   4
ENDBRANCH  18  21
ENDBRANCH  13  15
ENDBRANCH   5  13
TORSDOF 7
ENDMDL
MODEL 9
REMARK VINA RESULT:      -6.0      2.680      4.792
REMARK  Name = 26743672
REMARK  7 active torsions:
REMARK  status: ('A' for Active; 'I' for Inactive)
REMARK    1  A    between atoms: O_1  and  C_11
REMARK    2  A    between atoms: O_4  and  C_21
REMARK    3  A    between atoms: N_5  and  C_13
REMARK    4  A    between atoms: C_9  and  C_14
REMARK    5  A    between atoms: C_13  and  C_15
REMARK    6  A    between atoms: C_17  and  C_20
REMARK    7  A    between atoms: C_18  and  C_21
REMARK                            x       y       z     vdW  Elec       q    Type
REMARK                         _______ _______ _______ _____ _____    ______ ____
ROOT
ATOM      5  N   UNL     1      12.917   9.082  20.123  0.00  0.00    -0.282 NA
ATOM      9  C   UNL     1      13.830   8.309  19.256  0.00  0.00    +0.149 C 
ATOM     10  C   UNL     1      13.338   6.853  19.365  0.00  0.00    +0.061 C 
ATOM     11  C   UNL     1      12.176   6.902  20.349  0.00  0.00    +0.130 C 
ATOM     12  C   UNL     1      12.446   8.160  21.155  0.00  0.00    +0.117 C 
ENDROOT
BRANCH   9  14
ATOM      2  O   UNL     1      13.175   8.071  16.913  0.00  0.00    -0.336 OA
ATOM      6  N   UNL     1      14.421   9.884  17.335  0.00  0.00    -0.189 NA
ATOM      7  N   UNL     1      13.331   8.729  15.687  0.00  0.00    -0.054 NA
ATOM     14  C   UNL     1      13.847   8.816  17.829  0.00  0.00    +0.245 A 
ATOM     17  C   UNL     1      14.077   9.788  16.017  0.00  0.00    +0.220 A 
BRANCH  17  20
ATOM      8  N   UNL     1      13.500  11.364  14.359  0.00  0.00    -0.252 NA
ATOM     20  C   UNL     1      14.493  10.768  15.056  0.00  0.00    +0.111 A 
ATOM     22  C   UNL     1      15.839  11.051  14.886  0.00  0.00    +0.031 A 
ATOM     23  C   UNL     1      16.187  12.009  13.940  0.00  0.00    +0.004 A 
ATOM     24  C   UNL     1      13.877  12.289  13.449  0.00  0.00    +0.111 A 
ATOM     25  C   UNL     1      15.193  12.645  13.203  0.00  0.00    +0.020 A 
ENDBRANCH  17  20
ENDBRANCH   9  14
BRANCH  11   1
ATOM      1  O   UNL     1      12.163   5.749  21.167  0.00  0.00    -0.390 OA
ATOM     26  H   UNL     1      12.213   6.046  22.092  0.00  0.00    +0.210 HD
ENDBRANCH  11   1
BRANCH   5  13
ATOM     13  C   UNL     1      13.536  10.272  20.692  0.00  0.00    +0.159 C 
BRANCH  13  15
ATOM      3  O   UNL     1      12.537  10.745  22.861  0.00  0.00    -0.461 OA
ATOM     15  C   UNL     1      12.569  11.057  21.539  0.00  0.00    +0.119 A 
ATOM     16  C   UNL     1      11.673  12.062  21.258  0.00  0.00    +0.046 A 
ATOM     18  C   UNL     1      11.611  11.560  23.430  0.00  0.00    +0.131 A 
ATOM     19  C   UNL     1      11.051  12.389  22.487  0.00  0.00    +0.047 A 
BRANCH  18  21
ATOM     21  C   UNL     1      11.404  11.399  24.877  0.00  0.00    +0.230 C 
BRANCH  21   4
ATOM      4  O   UNL     1      10.446  12.350  25.348  0.00  0.00    -0.387 OA
ATOM     27  H   UNL     1      10.367  13.036  24.662  0.00  0.00    +0.210 HD
ENDBRANCH  21   4
ENDBRANCH  18  21
ENDBRANCH  13  15
ENDBRANCH   5  13
TORSDOF 7
ENDMDL
MODEL 10
REMARK VINA RESULT:      -5.9     12.254     15.833
REMARK  Name = 26743672
REMARK  7 active torsions:
REMARK  status: ('A' for Active; 'I' for Inactive)
REMARK    1  A    between atoms: O_1  and  C_11
REMARK    2  A    between atoms: O_4  and  C_21
REMARK    3  A    between atoms: N_5  and  C_13
REMARK    4  A    between atoms: C_9  and  C_14
REMARK    5  A    between atoms: C_13  and  C_15
REMARK    6  A    between atoms: C_17  and  C_20
REMARK    7  A    between atoms: C_18  and  C_21
REMARK                            x       y       z     vdW  Elec       q    Type
REMARK                         _______ _______ _______ _____ _____    ______ ____
ROOT
ATOM      5  N   UNL     1      13.098   5.648   2.169  0.00  0.00    -0.282 NA
ATOM      9  C   UNL     1      11.652   5.684   1.872  0.00  0.00    +0.149 C 
ATOM     10  C   UNL     1      11.358   4.335   1.187  0.00  0.00    +0.061 C 
ATOM     11  C   UNL     1      12.708   3.633   1.105  0.00  0.00    +0.130 C 
ATOM     12  C   UNL     1      13.706   4.774   1.169  0.00  0.00    +0.117 C 
ENDROOT
BRANCH   9  14
ATOM      2  O   UNL     1       9.683   6.654   2.947  0.00  0.00    -0.336 OA
ATOM      6  N   UNL     1      11.000   5.487   4.333  0.00  0.00    -0.189 NA
ATOM      7  N   UNL     1       9.079   6.723   4.208  0.00  0.00    -0.054 NA
ATOM     14  C   UNL     1      10.808   5.909   3.108  0.00  0.00    +0.245 A 
ATOM     17  C   UNL     1       9.914   6.012   4.972  0.00  0.00    +0.220 A 
BRANCH  17  20
ATOM      8  N   UNL     1      10.052   4.592   6.851  0.00  0.00    -0.252 NA
ATOM     20  C   UNL     1       9.691   5.805   6.374  0.00  0.00    +0.111 A 
ATOM     22  C   UNL     1       9.138   6.811   7.149  0.00  0.00    +0.031 A 
ATOM     23  C   UNL     1       8.943   6.557   8.502  0.00  0.00    +0.004 A 
ATOM     24  C   UNL     1       9.848   4.382   8.170  0.00  0.00    +0.111 A 
ATOM     25  C   UNL     1       9.302   5.321   9.030  0.00  0.00    +0.020 A 
ENDBRANCH  17  20
ENDBRANCH   9  14
BRANCH  11   1
ATOM      1  O   UNL     1      12.821   2.905  -0.102  0.00  0.00    -0.390 OA
ATOM     26  H   UNL     1      13.645   2.390  -0.057  0.00  0.00    +0.210 HD
ENDBRANCH  11   1
BRANCH   5  13
ATOM     13  C   UNL     1      13.713   6.970   2.188  0.00  0.00    +0.159 C 
BRANCH  13  15
ATOM      3  O   UNL     1      13.550   7.111   4.613  0.00  0.00    -0.461 OA
ATOM     15  C   UNL     1      14.342   7.277   3.521  0.00  0.00    +0.119 A 
ATOM     16  C   UNL     1      15.594   7.709   3.894  0.00  0.00    +0.046 A 
ATOM     18  C   UNL     1      14.305   7.440   5.694  0.00  0.00    +0.131 A 
ATOM     19  C   UNL     1      15.570   7.814   5.305  0.00  0.00    +0.047 A 
BRANCH  18  21
ATOM     21  C   UNL     1      13.646   7.333   7.004  0.00  0.00    +0.230 C 
BRANCH  21   4
ATOM      4  O   UNL     1      12.894   6.120   7.081  0.00  0.00    -0.387 OA
ATOM     27  H   UNL     1      12.026   6.347   7.458  0.00  0.00    +0.210 HD
ENDBRANCH  21   4
ENDBRANCH  18  21
ENDBRANCH  13  15
ENDBRANCH   5  13
TORSDOF 7
ENDMDL
