MODEL 1
REMARK VINA RESULT:      -6.9      0.000      0.000
REMARK  Name = 40779317
REMARK  5 active torsions:
REMARK  status: ('A' for Active; 'I' for Inactive)
REMARK    1  A    between atoms: N_5  and  C_20
REMARK    2  A    between atoms: N_6  and  C_16
REMARK    3  A    between atoms: C_10  and  C_17
REMARK    4  A    between atoms: C_11  and  C_16
REMARK    5  A    between atoms: C_19  and  C_22
REMARK                            x       y       z     vdW  Elec       q    Type
REMARK                         _______ _______ _______ _____ _____    ______ ____
ROOT
ATOM      4  N   UNL     1      13.299   8.686  17.447  0.00  0.00    -0.297 NA
ATOM      9  C   UNL     1      14.199   8.337  19.866  0.00  0.00    +0.002 C 
ATOM     10  C   UNL     1      12.646   8.353  19.862  0.00  0.00    +0.055 C 
ATOM     11  C   UNL     1      14.330   9.710  17.758  0.00  0.00    +0.074 C 
ATOM     12  C   UNL     1      14.726   9.651  19.250  0.00  0.00    +0.024 C 
ATOM     13  C   UNL     1      14.636   7.190  18.930  0.00  0.00    +0.019 C 
ATOM     14  C   UNL     1      12.192   8.764  18.432  0.00  0.00    +0.094 C 
ATOM     15  C   UNL     1      13.934   7.351  17.570  0.00  0.00    +0.085 C 
ENDROOT
BRANCH  10  17
ATOM      5  N   UNL     1      11.022   8.594  21.797  0.00  0.00    -0.270 N 
ATOM      7  N   UNL     1      10.505   9.465  22.681  0.00  0.00    -0.168 NA
ATOM     17  C   UNL     1      11.933   9.148  20.946  0.00  0.00    +0.044 A 
ATOM     18  C   UNL     1      12.017  10.474  21.297  0.00  0.00    +0.056 A 
ATOM     19  C   UNL     1      11.117  10.611  22.370  0.00  0.00    +0.128 A 
ATOM     20  C   UNL     1      10.587   7.217  21.827  0.00  0.00    +0.172 C 
BRANCH  19  22
ATOM      2  O   UNL     1      10.490  11.915  24.415  0.00  0.00    -0.461 OA
ATOM     22  C   UNL     1      10.844  11.859  23.105  0.00  0.00    +0.155 A 
ATOM     27  C   UNL     1      10.910  13.124  22.568  0.00  0.00    +0.051 A 
ATOM     28  C   UNL     1      10.575  14.014  23.617  0.00  0.00    +0.042 A 
ATOM     29  C   UNL     1      10.327  13.230  24.719  0.00  0.00    +0.196 A 
ENDBRANCH  19  22
ENDBRANCH  10  17
BRANCH  11  16
ATOM     16  C   UNL     1      13.899  11.117  17.339  0.00  0.00    +0.124 C 
BRANCH  16   6
ATOM      1  O   UNL     1      13.661  10.756  14.558  0.00  0.00    -0.253 OA
ATOM      3  O   UNL     1      17.016  13.620  12.317  0.00  0.00    -0.377 OA
ATOM      6  N   UNL     1      14.795  11.655  16.339  0.00  0.00    -0.298 N 
ATOM      8  N   UNL     1      15.564  12.012  14.132  0.00  0.00    -0.281 N 
ATOM     21  C   UNL     1      14.606  11.430  14.980  0.00  0.00    +0.302 C 
ATOM     23  C   UNL     1      15.447  11.820  12.685  0.00  0.00    +0.137 C 
ATOM     24  C   UNL     1      16.795  12.695  14.555  0.00  0.00    +0.137 C 
ATOM     25  C   UNL     1      15.736  13.112  11.938  0.00  0.00    +0.179 C 
ATOM     26  C   UNL     1      17.043  13.939  13.709  0.00  0.00    +0.179 C 
ATOM     30  H   UNL     1      15.567  12.205  16.684  0.00  0.00    +0.150 HD
ENDBRANCH  16   6
ENDBRANCH  11  16
TORSDOF 4
ENDMDL
MODEL 2
REMARK VINA RESULT:      -6.8     26.861     30.125
REMARK  Name = 40779317
REMARK  5 active torsions:
REMARK  status: ('A' for Active; 'I' for Inactive)
REMARK    1  A    between atoms: N_5  and  C_20
REMARK    2  A    between atoms: N_6  and  C_16
REMARK    3  A    between atoms: C_10  and  C_17
REMARK    4  A    between atoms: C_11  and  C_16
REMARK    5  A    between atoms: C_19  and  C_22
REMARK                            x       y       z     vdW  Elec       q    Type
REMARK                         _______ _______ _______ _____ _____    ______ ____
ROOT
ATOM      4  N   UNL     1      -6.616 -10.620  17.847  0.00  0.00    -0.297 NA
ATOM      9  C   UNL     1      -4.411 -11.950  17.458  0.00  0.00    +0.002 C 
ATOM     10  C   UNL     1      -4.373 -10.599  16.692  0.00  0.00    +0.055 C 
ATOM     11  C   UNL     1      -6.929 -12.015  17.443  0.00  0.00    +0.074 C 
ATOM     12  C   UNL     1      -5.646 -12.758  17.009  0.00  0.00    +0.024 C 
ATOM     13  C   UNL     1      -4.610 -11.610  18.951  0.00  0.00    +0.019 C 
ATOM     14  C   UNL     1      -5.788  -9.963  16.806  0.00  0.00    +0.094 C 
ATOM     15  C   UNL     1      -5.824 -10.677  19.100  0.00  0.00    +0.085 C 
ENDROOT
BRANCH  10  17
ATOM      5  N   UNL     1      -2.525 -10.570  14.953  0.00  0.00    -0.270 N 
ATOM      7  N   UNL     1      -2.274 -10.574  13.632  0.00  0.00    -0.168 NA
ATOM     17  C   UNL     1      -3.854 -10.600  15.261  0.00  0.00    +0.044 A 
ATOM     18  C   UNL     1      -4.518 -10.625  14.059  0.00  0.00    +0.056 A 
ATOM     19  C   UNL     1      -3.495 -10.609  13.092  0.00  0.00    +0.128 A 
ATOM     20  C   UNL     1      -1.418 -10.535  15.880  0.00  0.00    +0.172 C 
BRANCH  19  22
ATOM      2  O   UNL     1      -4.022 -11.735  10.917  0.00  0.00    -0.461 OA
ATOM     22  C   UNL     1      -3.696 -10.627  11.632  0.00  0.00    +0.155 A 
ATOM     27  C   UNL     1      -3.583  -9.534  10.803  0.00  0.00    +0.051 A 
ATOM     28  C   UNL     1      -3.857 -10.002   9.496  0.00  0.00    +0.042 A 
ATOM     29  C   UNL     1      -4.117 -11.347   9.618  0.00  0.00    +0.196 A 
ENDBRANCH  19  22
ENDBRANCH  10  17
BRANCH  11  16
ATOM     16  C   UNL     1      -8.016 -12.081  16.368  0.00  0.00    +0.124 C 
BRANCH  16   6
ATOM      1  O   UNL     1      -8.679  -9.923  14.687  0.00  0.00    -0.253 OA
ATOM      3  O   UNL     1     -12.763  -7.761  16.455  0.00  0.00    -0.377 OA
ATOM      6  N   UNL     1      -9.051 -11.102  16.620  0.00  0.00    -0.298 N 
ATOM      8  N   UNL     1     -10.346  -9.188  16.122  0.00  0.00    -0.281 N 
ATOM     21  C   UNL     1      -9.316 -10.063  15.736  0.00  0.00    +0.302 C 
ATOM     23  C   UNL     1     -10.689  -8.060  15.253  0.00  0.00    +0.137 C 
ATOM     24  C   UNL     1     -11.047  -9.192  17.415  0.00  0.00    +0.137 C 
ATOM     25  C   UNL     1     -12.195  -7.889  15.150  0.00  0.00    +0.179 C 
ATOM     26  C   UNL     1     -12.539  -8.945  17.223  0.00  0.00    +0.179 C 
ATOM     30  H   UNL     1      -9.571 -11.217  17.477  0.00  0.00    +0.150 HD
ENDBRANCH  16   6
ENDBRANCH  11  16
TORSDOF 4
ENDMDL
MODEL 3
REMARK VINA RESULT:      -6.7     27.744     29.336
REMARK  Name = 40779317
REMARK  5 active torsions:
REMARK  status: ('A' for Active; 'I' for Inactive)
REMARK    1  A    between atoms: N_5  and  C_20
REMARK    2  A    between atoms: N_6  and  C_16
REMARK    3  A    between atoms: C_10  and  C_17
REMARK    4  A    between atoms: C_11  and  C_16
REMARK    5  A    between atoms: C_19  and  C_22
REMARK                            x       y       z     vdW  Elec       q    Type
REMARK                         _______ _______ _______ _____ _____    ______ ____
ROOT
ATOM      4  N   UNL     1      -5.667 -13.014  17.174  0.00  0.00    -0.297 NA
ATOM      9  C   UNL     1      -5.481 -10.549  17.994  0.00  0.00    +0.002 C 
ATOM     10  C   UNL     1      -6.882 -11.129  18.331  0.00  0.00    +0.055 C 
ATOM     11  C   UNL     1      -5.156 -12.150  16.077  0.00  0.00    +0.074 C 
ATOM     12  C   UNL     1      -5.233 -10.660  16.475  0.00  0.00    +0.024 C 
ATOM     13  C   UNL     1      -4.443 -11.456  18.691  0.00  0.00    +0.019 C 
ATOM     14  C   UNL     1      -6.986 -12.517  17.638  0.00  0.00    +0.094 C 
ATOM     15  C   UNL     1      -4.714 -12.921  18.307  0.00  0.00    +0.085 C 
ENDROOT
BRANCH  10  17
ATOM      5  N   UNL     1      -9.282 -10.410  18.735  0.00  0.00    -0.270 N 
ATOM      7  N   UNL     1     -10.237  -9.543  18.354  0.00  0.00    -0.168 NA
ATOM     17  C   UNL     1      -8.102 -10.258  18.067  0.00  0.00    +0.044 A 
ATOM     18  C   UNL     1      -8.299  -9.221  17.188  0.00  0.00    +0.056 A 
ATOM     19  C   UNL     1      -9.630  -8.820  17.410  0.00  0.00    +0.128 A 
ATOM     20  C   UNL     1      -9.579 -11.376  19.766  0.00  0.00    +0.172 C 
BRANCH  19  22
ATOM      2  O   UNL     1      -9.766  -6.974  15.721  0.00  0.00    -0.461 OA
ATOM     22  C   UNL     1     -10.324  -7.727  16.704  0.00  0.00    +0.155 A 
ATOM     27  C   UNL     1     -11.618  -7.327  16.944  0.00  0.00    +0.051 A 
ATOM     28  C   UNL     1     -11.871  -6.259  16.050  0.00  0.00    +0.042 A 
ATOM     29  C   UNL     1     -10.714  -6.082  15.328  0.00  0.00    +0.196 A 
ENDBRANCH  19  22
ENDBRANCH  10  17
BRANCH  11  16
ATOM     16  C   UNL     1      -5.859 -12.422  14.745  0.00  0.00    +0.124 C 
BRANCH  16   6
ATOM      1  O   UNL     1      -6.870 -10.785  12.691  0.00  0.00    -0.253 OA
ATOM      3  O   UNL     1      -3.073  -9.198   9.945  0.00  0.00    -0.377 OA
ATOM      6  N   UNL     1      -5.095 -11.886  13.640  0.00  0.00    -0.298 N 
ATOM      8  N   UNL     1      -4.802 -10.643  11.651  0.00  0.00    -0.281 N 
ATOM     21  C   UNL     1      -5.671 -11.083  12.664  0.00  0.00    +0.302 C 
ATOM     23  C   UNL     1      -5.327  -9.797  10.576  0.00  0.00    +0.137 C 
ATOM     24  C   UNL     1      -3.409 -11.071  11.459  0.00  0.00    +0.137 C 
ATOM     25  C   UNL     1      -4.364  -8.668  10.252  0.00  0.00    +0.179 C 
ATOM     26  C   UNL     1      -2.528  -9.888  11.070  0.00  0.00    +0.179 C 
ATOM     30  H   UNL     1      -4.115 -12.129  13.619  0.00  0.00    +0.150 HD
ENDBRANCH  16   6
ENDBRANCH  11  16
TORSDOF 4
ENDMDL
MODEL 4
REMARK VINA RESULT:      -6.6     27.144     29.869
REMARK  Name = 40779317
REMARK  5 active torsions:
REMARK  status: ('A' for Active; 'I' for Inactive)
REMARK    1  A    between atoms: N_5  and  C_20
REMARK    2  A    between atoms: N_6  and  C_16
REMARK    3  A    between atoms: C_10  and  C_17
REMARK    4  A    between atoms: C_11  and  C_16
REMARK    5  A    between atoms: C_19  and  C_22
REMARK                            x       y       z     vdW  Elec       q    Type
REMARK                         _______ _______ _______ _____ _____    ______ ____
ROOT
ATOM      4  N   UNL     1      -5.515 -10.661  18.236  0.00  0.00    -0.297 NA
ATOM      9  C   UNL     1      -5.507 -12.463  16.356  0.00  0.00    +0.002 C 
ATOM     10  C   UNL     1      -4.265 -11.539  16.228  0.00  0.00    +0.055 C 
ATOM     11  C   UNL     1      -6.838 -10.695  17.558  0.00  0.00    +0.074 C 
ATOM     12  C   UNL     1      -6.789 -11.606  16.312  0.00  0.00    +0.024 C 
ATOM     13  C   UNL     1      -5.440 -13.108  17.758  0.00  0.00    +0.019 C 
ATOM     14  C   UNL     1      -4.445 -10.378  17.247  0.00  0.00    +0.094 C 
ATOM     15  C   UNL     1      -5.267 -12.003  18.815  0.00  0.00    +0.085 C 
ENDROOT
BRANCH  10  17
ATOM      5  N   UNL     1      -2.589 -10.910  14.429  0.00  0.00    -0.270 N 
ATOM      7  N   UNL     1      -2.465 -10.449  13.172  0.00  0.00    -0.168 NA
ATOM     17  C   UNL     1      -3.883 -11.038  14.843  0.00  0.00    +0.044 A 
ATOM     18  C   UNL     1      -4.658 -10.632  13.783  0.00  0.00    +0.056 A 
ATOM     19  C   UNL     1      -3.732 -10.282  12.783  0.00  0.00    +0.128 A 
ATOM     20  C   UNL     1      -1.400 -11.212  15.190  0.00  0.00    +0.172 C 
BRANCH  19  22
ATOM      2  O   UNL     1      -3.269  -9.911  10.349  0.00  0.00    -0.461 OA
ATOM     22  C   UNL     1      -4.070  -9.782  11.439  0.00  0.00    +0.155 A 
ATOM     27  C   UNL     1      -5.232  -9.123  11.109  0.00  0.00    +0.051 A 
ATOM     28  C   UNL     1      -5.138  -8.828   9.728  0.00  0.00    +0.042 A 
ATOM     29  C   UNL     1      -3.926  -9.328   9.312  0.00  0.00    +0.196 A 
ENDBRANCH  19  22
ENDBRANCH  10  17
BRANCH  11  16
ATOM     16  C   UNL     1      -7.356  -9.295  17.220  0.00  0.00    +0.124 C 
BRANCH  16   6
ATOM      1  O   UNL     1      -9.720  -7.768  17.288  0.00  0.00    -0.253 OA
ATOM      3  O   UNL     1     -12.212  -8.562  13.088  0.00  0.00    -0.377 OA
ATOM      6  N   UNL     1      -8.431  -9.362  16.255  0.00  0.00    -0.298 N 
ATOM      8  N   UNL     1     -10.528  -8.754  15.350  0.00  0.00    -0.281 N 
ATOM     21  C   UNL     1      -9.569  -8.571  16.361  0.00  0.00    +0.302 C 
ATOM     23  C   UNL     1     -11.763  -7.966  15.386  0.00  0.00    +0.137 C 
ATOM     24  C   UNL     1     -10.499  -9.786  14.304  0.00  0.00    +0.137 C 
ATOM     25  C   UNL     1     -12.130  -7.464  13.999  0.00  0.00    +0.179 C 
ATOM     26  C   UNL     1     -10.947  -9.213  12.963  0.00  0.00    +0.179 C 
ATOM     30  H   UNL     1      -8.307 -10.017  15.498  0.00  0.00    +0.150 HD
ENDBRANCH  16   6
ENDBRANCH  11  16
TORSDOF 4
ENDMDL
MODEL 5
REMARK VINA RESULT:      -6.6     26.980     29.896
REMARK  Name = 40779317
REMARK  5 active torsions:
REMARK  status: ('A' for Active; 'I' for Inactive)
REMARK    1  A    between atoms: N_5  and  C_20
REMARK    2  A    between atoms: N_6  and  C_16
REMARK    3  A    between atoms: C_10  and  C_17
REMARK    4  A    between atoms: C_11  and  C_16
REMARK    5  A    between atoms: C_19  and  C_22
REMARK                            x       y       z     vdW  Elec       q    Type
REMARK                         _______ _______ _______ _____ _____    ______ ____
ROOT
ATOM      4  N   UNL     1      -4.469 -10.704   8.715  0.00  0.00    -0.297 NA
ATOM      9  C   UNL     1      -7.032 -11.140   8.553  0.00  0.00    +0.002 C 
ATOM     10  C   UNL     1      -6.614  -9.992   7.594  0.00  0.00    +0.055 C 
ATOM     11  C   UNL     1      -5.067 -10.733  10.076  0.00  0.00    +0.074 C 
ATOM     12  C   UNL     1      -6.608 -10.783   9.993  0.00  0.00    +0.024 C 
ATOM     13  C   UNL     1      -6.219 -12.385   8.137  0.00  0.00    +0.019 C 
ATOM     14  C   UNL     1      -5.125  -9.656   7.894  0.00  0.00    +0.094 C 
ATOM     15  C   UNL     1      -4.725 -12.018   8.078  0.00  0.00    +0.085 C 
ENDROOT
BRANCH  10  17
ATOM      5  N   UNL     1      -7.737  -8.059   6.391  0.00  0.00    -0.270 N 
ATOM      7  N   UNL     1      -8.530  -6.987   6.559  0.00  0.00    -0.168 NA
ATOM     17  C   UNL     1      -7.488  -8.746   7.543  0.00  0.00    +0.044 A 
ATOM     18  C   UNL     1      -8.165  -8.076   8.533  0.00  0.00    +0.056 A 
ATOM     19  C   UNL     1      -8.789  -7.004   7.869  0.00  0.00    +0.128 A 
ATOM     20  C   UNL     1      -7.243  -8.371   5.070  0.00  0.00    +0.172 C 
BRANCH  19  22
ATOM      2  O   UNL     1      -9.380  -4.651   8.495  0.00  0.00    -0.461 OA
ATOM     22  C   UNL     1      -9.644  -5.984   8.503  0.00  0.00    +0.155 A 
ATOM     27  C   UNL     1     -10.813  -6.241   9.182  0.00  0.00    +0.051 A 
ATOM     28  C   UNL     1     -11.298  -4.985   9.619  0.00  0.00    +0.042 A 
ATOM     29  C   UNL     1     -10.391  -4.050   9.177  0.00  0.00    +0.196 A 
ENDBRANCH  19  22
ENDBRANCH  10  17
BRANCH  11  16
ATOM     16  C   UNL     1      -4.581  -9.575  10.951  0.00  0.00    +0.124 C 
BRANCH  16   6
ATOM      1  O   UNL     1      -2.123 -10.429  12.025  0.00  0.00    -0.253 OA
ATOM      3  O   UNL     1      -2.681 -11.051  16.901  0.00  0.00    -0.377 OA
ATOM      6  N   UNL     1      -4.362 -10.014  12.312  0.00  0.00    -0.298 N 
ATOM      8  N   UNL     1      -3.059 -10.825  14.110  0.00  0.00    -0.281 N 
ATOM     21  C   UNL     1      -3.113 -10.421  12.765  0.00  0.00    +0.302 C 
ATOM     23  C   UNL     1      -1.783 -11.277  14.670  0.00  0.00    +0.137 C 
ATOM     24  C   UNL     1      -4.209 -10.991  15.011  0.00  0.00    +0.137 C 
ATOM     25  C   UNL     1      -1.571 -10.716  16.066  0.00  0.00    +0.179 C 
ATOM     26  C   UNL     1      -3.884 -10.464  16.405  0.00  0.00    +0.179 C 
ATOM     30  H   UNL     1      -5.170 -10.006  12.916  0.00  0.00    +0.150 HD
ENDBRANCH  16   6
ENDBRANCH  11  16
TORSDOF 4
ENDMDL
MODEL 6
REMARK VINA RESULT:      -6.6     13.657     16.818
REMARK  Name = 40779317
REMARK  5 active torsions:
REMARK  status: ('A' for Active; 'I' for Inactive)
REMARK    1  A    between atoms: N_5  and  C_20
REMARK    2  A    between atoms: N_6  and  C_16
REMARK    3  A    between atoms: C_10  and  C_17
REMARK    4  A    between atoms: C_11  and  C_16
REMARK    5  A    between atoms: C_19  and  C_22
REMARK                            x       y       z     vdW  Elec       q    Type
REMARK                         _______ _______ _______ _____ _____    ______ ____
ROOT
ATOM      4  N   UNL     1      10.355   5.932   6.548  0.00  0.00    -0.297 NA
ATOM      9  C   UNL     1      11.070   8.327   5.814  0.00  0.00    +0.002 C 
ATOM     10  C   UNL     1       9.570   8.307   6.215  0.00  0.00    +0.055 C 
ATOM     11  C   UNL     1      11.064   5.874   5.243  0.00  0.00    +0.074 C 
ATOM     12  C   UNL     1      11.313   7.295   4.692  0.00  0.00    +0.024 C 
ATOM     13  C   UNL     1      11.868   7.852   7.048  0.00  0.00    +0.019 C 
ATOM     14  C   UNL     1       9.171   6.821   6.442  0.00  0.00    +0.094 C 
ATOM     15  C   UNL     1      11.284   6.517   7.544  0.00  0.00    +0.085 C 
ENDROOT
BRANCH  10  17
ATOM      5  N   UNL     1       8.334  10.380   5.428  0.00  0.00    -0.270 N 
ATOM      7  N   UNL     1       7.423  10.835   4.550  0.00  0.00    -0.168 NA
ATOM     17  C   UNL     1       8.578   9.041   5.323  0.00  0.00    +0.044 A 
ATOM     18  C   UNL     1       7.772   8.591   4.306  0.00  0.00    +0.056 A 
ATOM     19  C   UNL     1       7.085   9.738   3.867  0.00  0.00    +0.128 A 
ATOM     20  C   UNL     1       8.940  11.303   6.358  0.00  0.00    +0.172 C 
BRANCH  19  22
ATOM      2  O   UNL     1       4.757   9.947   2.966  0.00  0.00    -0.461 OA
ATOM     22  C   UNL     1       6.092   9.778   2.779  0.00  0.00    +0.155 A 
ATOM     27  C   UNL     1       6.380   9.651   1.440  0.00  0.00    +0.051 A 
ATOM     28  C   UNL     1       5.142   9.748   0.760  0.00  0.00    +0.042 A 
ATOM     29  C   UNL     1       4.186   9.927   1.733  0.00  0.00    +0.196 A 
ENDBRANCH  19  22
ENDBRANCH  10  17
BRANCH  11  16
ATOM     16  C   UNL     1      10.342   4.987   4.226  0.00  0.00    +0.124 C 
BRANCH  16   6
ATOM      1  O   UNL     1      10.052   5.273   1.441  0.00  0.00    -0.253 OA
ATOM      3  O   UNL     1      14.194   3.662  -0.735  0.00  0.00    -0.377 OA
ATOM      6  N   UNL     1      11.263   4.493   3.226  0.00  0.00    -0.298 N 
ATOM      8  N   UNL     1      12.028   4.133   1.019  0.00  0.00    -0.281 N 
ATOM     21  C   UNL     1      11.047   4.676   1.866  0.00  0.00    +0.302 C 
ATOM     23  C   UNL     1      11.876   4.274  -0.432  0.00  0.00    +0.137 C 
ATOM     24  C   UNL     1      13.154   3.283   1.430  0.00  0.00    +0.137 C 
ATOM     25  C   UNL     1      13.201   4.628  -1.087  0.00  0.00    +0.179 C 
ATOM     26  C   UNL     1      14.424   3.662   0.675  0.00  0.00    +0.179 C 
ATOM     30  H   UNL     1      12.076   4.006   3.574  0.00  0.00    +0.150 HD
ENDBRANCH  16   6
ENDBRANCH  11  16
TORSDOF 4
ENDMDL
MODEL 7
REMARK VINA RESULT:      -6.5     27.308     29.705
REMARK  Name = 40779317
REMARK  5 active torsions:
REMARK  status: ('A' for Active; 'I' for Inactive)
REMARK    1  A    between atoms: N_5  and  C_20
REMARK    2  A    between atoms: N_6  and  C_16
REMARK    3  A    between atoms: C_10  and  C_17
REMARK    4  A    between atoms: C_11  and  C_16
REMARK    5  A    between atoms: C_19  and  C_22
REMARK                            x       y       z     vdW  Elec       q    Type
REMARK                         _______ _______ _______ _____ _____    ______ ____
ROOT
ATOM      4  N   UNL     1      -6.762 -12.855  18.445  0.00  0.00    -0.297 NA
ATOM      9  C   UNL     1      -6.359 -10.305  18.095  0.00  0.00    +0.002 C 
ATOM     10  C   UNL     1      -7.609 -10.772  17.301  0.00  0.00    +0.055 C 
ATOM     11  C   UNL     1      -5.345 -12.611  18.068  0.00  0.00    +0.074 C 
ATOM     12  C   UNL     1      -5.135 -11.137  17.657  0.00  0.00    +0.024 C 
ATOM     13  C   UNL     1      -6.625 -10.637  19.580  0.00  0.00    +0.019 C 
ATOM     14  C   UNL     1      -7.665 -12.323  17.394  0.00  0.00    +0.094 C 
ATOM     15  C   UNL     1      -7.031 -12.116  19.702  0.00  0.00    +0.085 C 
ENDROOT
BRANCH  10  17
ATOM      5  N   UNL     1      -8.923  -9.676  15.425  0.00  0.00    -0.270 N 
ATOM      7  N   UNL     1      -8.873  -9.309  14.133  0.00  0.00    -0.168 NA
ATOM     17  C   UNL     1      -7.780 -10.273  15.873  0.00  0.00    +0.044 A 
ATOM     18  C   UNL     1      -6.924 -10.297  14.799  0.00  0.00    +0.056 A 
ATOM     19  C   UNL     1      -7.650  -9.690  13.756  0.00  0.00    +0.128 A 
ATOM     20  C   UNL     1     -10.124  -9.420  16.185  0.00  0.00    +0.172 C 
BRANCH  19  22
ATOM      2  O   UNL     1      -7.956  -9.432  11.283  0.00  0.00    -0.461 OA
ATOM     22  C   UNL     1      -7.160  -9.475  12.383  0.00  0.00    +0.155 A 
ATOM     27  C   UNL     1      -5.842  -9.290  12.033  0.00  0.00    +0.051 A 
ATOM     28  C   UNL     1      -5.828  -9.123  10.627  0.00  0.00    +0.042 A 
ATOM     29  C   UNL     1      -7.139  -9.218  10.219  0.00  0.00    +0.196 A 
ENDBRANCH  19  22
ENDBRANCH  10  17
BRANCH  11  16
ATOM     16  C   UNL     1      -4.853 -13.579  16.990  0.00  0.00    +0.124 C 
BRANCH  16   6
ATOM      1  O   UNL     1      -4.646 -14.127  14.237  0.00  0.00    -0.253 OA
ATOM      3  O   UNL     1      -1.709 -10.717  12.181  0.00  0.00    -0.377 OA
ATOM      6  N   UNL     1      -3.969 -12.911  16.061  0.00  0.00    -0.298 N 
ATOM      8  N   UNL     1      -3.012 -12.508  13.937  0.00  0.00    -0.281 N 
ATOM     21  C   UNL     1      -3.927 -13.242  14.712  0.00  0.00    +0.302 C 
ATOM     23  C   UNL     1      -2.897 -12.796  12.505  0.00  0.00    +0.137 C 
ATOM     24  C   UNL     1      -2.019 -11.551  14.444  0.00  0.00    +0.137 C 
ATOM     25  C   UNL     1      -2.793 -11.512  11.698  0.00  0.00    +0.179 C 
ATOM     26  C   UNL     1      -1.932 -10.328  13.538  0.00  0.00    +0.179 C 
ATOM     30  H   UNL     1      -3.382 -12.187  16.449  0.00  0.00    +0.150 HD
ENDBRANCH  16   6
ENDBRANCH  11  16
TORSDOF 4
ENDMDL
MODEL 8
REMARK VINA RESULT:      -6.5     28.576     30.572
REMARK  Name = 40779317
REMARK  5 active torsions:
REMARK  status: ('A' for Active; 'I' for Inactive)
REMARK    1  A    between atoms: N_5  and  C_20
REMARK    2  A    between atoms: N_6  and  C_16
REMARK    3  A    between atoms: C_10  and  C_17
REMARK    4  A    between atoms: C_11  and  C_16
REMARK    5  A    between atoms: C_19  and  C_22
REMARK                            x       y       z     vdW  Elec       q    Type
REMARK                         _______ _______ _______ _____ _____    ______ ____
ROOT
ATOM      4  N   UNL     1      -5.224 -11.824  14.893  0.00  0.00    -0.297 NA
ATOM      9  C   UNL     1      -4.957 -10.363  17.034  0.00  0.00    +0.002 C 
ATOM     10  C   UNL     1      -5.851 -11.598  17.327  0.00  0.00    +0.055 C 
ATOM     11  C   UNL     1      -5.517 -10.401  14.578  0.00  0.00    +0.074 C 
ATOM     12  C   UNL     1      -5.566  -9.555  15.869  0.00  0.00    +0.024 C 
ATOM     13  C   UNL     1      -3.595 -10.905  16.545  0.00  0.00    +0.019 C 
ATOM     14  C   UNL     1      -6.128 -12.303  15.968  0.00  0.00    +0.094 C 
ATOM     15  C   UNL     1      -3.830 -11.900  15.395  0.00  0.00    +0.085 C 
ENDROOT
BRANCH  10  17
ATOM      5  N   UNL     1      -7.135 -11.336  19.501  0.00  0.00    -0.270 N 
ATOM      7  N   UNL     1      -8.357 -11.144  20.026  0.00  0.00    -0.168 NA
ATOM     17  C   UNL     1      -7.123 -11.388  18.137  0.00  0.00    +0.044 A 
ATOM     18  C   UNL     1      -8.428 -11.217  17.744  0.00  0.00    +0.056 A 
ATOM     19  C   UNL     1      -9.142 -11.072  18.948  0.00  0.00    +0.128 A 
ATOM     20  C   UNL     1      -6.000 -11.465  20.385  0.00  0.00    +0.172 C 
BRANCH  19  22
ATOM      2  O   UNL     1     -11.517 -11.405  18.222  0.00  0.00    -0.461 OA
ATOM     22  C   UNL     1     -10.596 -10.861  19.060  0.00  0.00    +0.155 A 
ATOM     27  C   UNL     1     -11.213 -10.092  20.020  0.00  0.00    +0.051 A 
ATOM     28  C   UNL     1     -12.601 -10.169  19.754  0.00  0.00    +0.042 A 
ATOM     29  C   UNL     1     -12.734 -10.979  18.651  0.00  0.00    +0.196 A 
ENDBRANCH  19  22
ENDBRANCH  10  17
BRANCH  11  16
ATOM     16  C   UNL     1      -6.789 -10.240  13.742  0.00  0.00    +0.124 C 
BRANCH  16   6
ATOM      1  O   UNL     1      -9.526 -10.109  13.101  0.00  0.00    -0.253 OA
ATOM      3  O   UNL     1     -11.868  -7.696  16.731  0.00  0.00    -0.377 OA
ATOM      6  N   UNL     1      -7.790  -9.487  14.466  0.00  0.00    -0.298 N 
ATOM      8  N   UNL     1      -9.977  -8.692  14.881  0.00  0.00    -0.281 N 
ATOM     21  C   UNL     1      -9.126  -9.475  14.083  0.00  0.00    +0.302 C 
ATOM     23  C   UNL     1     -11.401  -8.616  14.546  0.00  0.00    +0.137 C 
ATOM     24  C   UNL     1      -9.561  -7.792  15.967  0.00  0.00    +0.137 C 
ATOM     25  C   UNL     1     -12.261  -8.703  15.796  0.00  0.00    +0.179 C 
ATOM     26  C   UNL     1     -10.517  -7.894  17.151  0.00  0.00    +0.179 C 
ATOM     30  H   UNL     1      -7.462  -8.970  15.268  0.00  0.00    +0.150 HD
ENDBRANCH  16   6
ENDBRANCH  11  16
TORSDOF 4
ENDMDL
MODEL 9
REMARK VINA RESULT:      -6.4     27.976     30.054
REMARK  Name = 40779317
REMARK  5 active torsions:
REMARK  status: ('A' for Active; 'I' for Inactive)
REMARK    1  A    between atoms: N_5  and  C_20
REMARK    2  A    between atoms: N_6  and  C_16
REMARK    3  A    between atoms: C_10  and  C_17
REMARK    4  A    between atoms: C_11  and  C_16
REMARK    5  A    between atoms: C_19  and  C_22
REMARK                            x       y       z     vdW  Elec       q    Type
REMARK                         _______ _______ _______ _____ _____    ______ ____
ROOT
ATOM      4  N   UNL     1      -3.588 -10.424  12.169  0.00  0.00    -0.297 NA
ATOM      9  C   UNL     1      -4.998 -11.728  10.410  0.00  0.00    +0.002 C 
ATOM     10  C   UNL     1      -4.647 -10.311   9.881  0.00  0.00    +0.055 C 
ATOM     11  C   UNL     1      -4.795 -11.003  12.814  0.00  0.00    +0.074 C 
ATOM     12  C   UNL     1      -5.746 -11.602  11.754  0.00  0.00    +0.024 C 
ATOM     13  C   UNL     1      -3.659 -12.440  10.701  0.00  0.00    +0.019 C 
ATOM     14  C   UNL     1      -3.988  -9.530  11.054  0.00  0.00    +0.094 C 
ATOM     15  C   UNL     1      -2.794 -11.541  11.603  0.00  0.00    +0.085 C 
ENDROOT
BRANCH  10  17
ATOM      5  N   UNL     1      -6.034  -9.626   7.869  0.00  0.00    -0.270 N 
ATOM      7  N   UNL     1      -7.036  -8.829   7.459  0.00  0.00    -0.168 NA
ATOM     17  C   UNL     1      -5.744  -9.508   9.197  0.00  0.00    +0.044 A 
ATOM     18  C   UNL     1      -6.617  -8.568   9.689  0.00  0.00    +0.056 A 
ATOM     19  C   UNL     1      -7.388  -8.186   8.575  0.00  0.00    +0.128 A 
ATOM     20  C   UNL     1      -5.386 -10.493   6.912  0.00  0.00    +0.172 C 
BRANCH  19  22
ATOM      2  O   UNL     1      -8.319  -5.882   8.257  0.00  0.00    -0.461 OA
ATOM     22  C   UNL     1      -8.475  -7.191   8.586  0.00  0.00    +0.155 A 
ATOM     27  C   UNL     1      -9.782  -7.451   8.927  0.00  0.00    +0.051 A 
ATOM     28  C   UNL     1     -10.473  -6.222   8.800  0.00  0.00    +0.042 A 
ATOM     29  C   UNL     1      -9.539  -5.299   8.390  0.00  0.00    +0.196 A 
ENDBRANCH  19  22
ENDBRANCH  10  17
BRANCH  11  16
ATOM     16  C   UNL     1      -5.511  -9.999  13.720  0.00  0.00    +0.124 C 
BRANCH  16   6
ATOM      1  O   UNL     1      -7.362  -9.593  15.801  0.00  0.00    -0.253 OA
ATOM      3  O   UNL     1      -5.565 -11.670  19.917  0.00  0.00    -0.377 OA
ATOM      6  N   UNL     1      -5.295 -10.316  15.114  0.00  0.00    -0.298 N 
ATOM      8  N   UNL     1      -5.905 -10.440  17.395  0.00  0.00    -0.281 N 
ATOM     21  C   UNL     1      -6.264 -10.084  16.083  0.00  0.00    +0.302 C 
ATOM     23  C   UNL     1      -6.863 -10.223  18.482  0.00  0.00    +0.137 C 
ATOM     24  C   UNL     1      -4.576 -10.884  17.839  0.00  0.00    +0.137 C 
ATOM     25  C   UNL     1      -6.883 -11.407  19.434  0.00  0.00    +0.179 C 
ATOM     26  C   UNL     1      -4.694 -12.027  18.842  0.00  0.00    +0.179 C 
ATOM     30  H   UNL     1      -4.399 -10.719  15.344  0.00  0.00    +0.150 HD
ENDBRANCH  16   6
ENDBRANCH  11  16
TORSDOF 4
ENDMDL
MODEL 10
REMARK VINA RESULT:      -6.4     27.375     29.761
REMARK  Name = 40779317
REMARK  5 active torsions:
REMARK  status: ('A' for Active; 'I' for Inactive)
REMARK    1  A    between atoms: N_5  and  C_20
REMARK    2  A    between atoms: N_6  and  C_16
REMARK    3  A    between atoms: C_10  and  C_17
REMARK    4  A    between atoms: C_11  and  C_16
REMARK    5  A    between atoms: C_19  and  C_22
REMARK                            x       y       z     vdW  Elec       q    Type
REMARK                         _______ _______ _______ _____ _____    ______ ____
ROOT
ATOM      4  N   UNL     1      -6.498 -10.834  10.250  0.00  0.00    -0.297 NA
ATOM      9  C   UNL     1      -5.377  -8.828  11.478  0.00  0.00    +0.002 C 
ATOM     10  C   UNL     1      -4.708 -10.165  11.899  0.00  0.00    +0.055 C 
ATOM     11  C   UNL     1      -7.538  -9.972  10.871  0.00  0.00    +0.074 C 
ATOM     12  C   UNL     1      -6.891  -8.899  11.773  0.00  0.00    +0.024 C 
ATOM     13  C   UNL     1      -5.219  -8.713   9.946  0.00  0.00    +0.019 C 
ATOM     14  C   UNL     1      -5.554 -11.318  11.289  0.00  0.00    +0.094 C 
ATOM     15  C   UNL     1      -5.736 -10.003   9.286  0.00  0.00    +0.085 C 
ENDROOT
BRANCH  10  17
ATOM      5  N   UNL     1      -3.146 -10.530  13.865  0.00  0.00    -0.270 N 
ATOM      7  N   UNL     1      -3.097 -10.717  15.196  0.00  0.00    -0.168 NA
ATOM     17  C   UNL     1      -4.411 -10.385  13.375  0.00  0.00    +0.044 A 
ATOM     18  C   UNL     1      -5.248 -10.484  14.460  0.00  0.00    +0.056 A 
ATOM     19  C   UNL     1      -4.384 -10.687  15.553  0.00  0.00    +0.128 A 
ATOM     20  C   UNL     1      -1.914 -10.502  13.112  0.00  0.00    +0.172 C 
BRANCH  19  22
ATOM      2  O   UNL     1      -5.869 -10.226  17.518  0.00  0.00    -0.461 OA
ATOM     22  C   UNL     1      -4.803 -10.854  16.956  0.00  0.00    +0.155 A 
ATOM     27  C   UNL     1      -4.177 -11.661  17.879  0.00  0.00    +0.051 A 
ATOM     28  C   UNL     1      -4.905 -11.519  19.084  0.00  0.00    +0.042 A 
ATOM     29  C   UNL     1      -5.924 -10.636  18.812  0.00  0.00    +0.196 A 
ENDBRANCH  19  22
ENDBRANCH  10  17
BRANCH  11  16
ATOM     16  C   UNL     1      -8.596 -10.785  11.621  0.00  0.00    +0.124 C 
BRANCH  16   6
ATOM      1  O   UNL     1      -8.541 -11.619  14.309  0.00  0.00    -0.253 OA
ATOM      3  O   UNL     1     -10.090  -7.870  17.142  0.00  0.00    -0.377 OA
ATOM      6  N   UNL     1      -9.116 -10.040  12.747  0.00  0.00    -0.298 N 
ATOM      8  N   UNL     1      -9.602  -9.688  15.033  0.00  0.00    -0.281 N 
ATOM     21  C   UNL     1      -9.049 -10.524  14.048  0.00  0.00    +0.302 C 
ATOM     23  C   UNL     1      -9.581 -10.123  16.432  0.00  0.00    +0.137 C 
ATOM     24  C   UNL     1     -10.357  -8.449  14.795  0.00  0.00    +0.137 C 
ATOM     25  C   UNL     1      -9.208  -8.974  17.354  0.00  0.00    +0.179 C 
ATOM     26  C   UNL     1      -9.969  -7.376  15.807  0.00  0.00    +0.179 C 
ATOM     30  H   UNL     1      -9.530  -9.145  12.533  0.00  0.00    +0.150 HD
ENDBRANCH  16   6
ENDBRANCH  11  16
TORSDOF 4
ENDMDL
