MODEL 1
REMARK VINA RESULT:      -6.4      0.000      0.000
REMARK  Name = 26742544
REMARK  10 active torsions:
REMARK  status: ('A' for Active; 'I' for Inactive)
REMARK    1  A    between atoms: O_3  and  C_20
REMARK    2  A    between atoms: O_3  and  C_25
REMARK    3  A    between atoms: O_4  and  C_22
REMARK    4  A    between atoms: O_4  and  C_28
REMARK    5  A    between atoms: O_5  and  C_24
REMARK    6  A    between atoms: O_5  and  C_29
REMARK    7  A    between atoms: N_7  and  C_17
REMARK    8  A    between atoms: C_17  and  C_19
REMARK    9  A    between atoms: C_18  and  C_20
REMARK   10  A    between atoms: C_19  and  C_21
REMARK                            x       y       z     vdW  Elec       q    Type
REMARK                         _______ _______ _______ _____ _____    ______ ____
ROOT
ATOM      1  O   UNL     1      -0.797 -11.025  15.420  0.00  0.00    -0.276 OA
ATOM      2  O   UNL     1      -4.835  -8.132  10.488  0.00  0.00    -0.273 OA
ATOM      6  N   UNL     1      -4.113 -10.308  10.865  0.00  0.00    -0.299 N 
ATOM      7  N   UNL     1      -3.047 -11.590  15.446  0.00  0.00    -0.301 N 
ATOM      8  C   UNL     1      -3.777 -12.274  12.353  0.00  0.00    +0.011 C 
ATOM      9  C   UNL     1      -2.274 -11.911  12.423  0.00  0.00    +0.004 C 
ATOM     10  C   UNL     1      -2.045 -10.405  12.199  0.00  0.00    +0.023 C 
ATOM     11  C   UNL     1      -4.375 -11.743  11.035  0.00  0.00    +0.111 C 
ATOM     12  C   UNL     1      -4.623 -11.793  13.547  0.00  0.00    +0.024 C 
ATOM     13  C   UNL     1      -1.557 -12.446  13.669  0.00  0.00    +0.100 C 
ATOM     14  C   UNL     1      -2.699  -9.936  10.901  0.00  0.00    +0.108 C 
ATOM     15  C   UNL     1      -4.159 -12.355  14.886  0.00  0.00    +0.108 C 
ATOM     16  C   UNL     1      -1.758 -11.622  14.928  0.00  0.00    +0.216 C 
ATOM     18  C   UNL     1      -5.084  -9.329  10.653  0.00  0.00    +0.241 C 
ENDROOT
BRANCH   7  17
ATOM     17  C   UNL     1      -3.347 -10.757  16.604  0.00  0.00    +0.112 C 
BRANCH  17  19
ATOM     19  C   UNL     1      -4.694 -10.049  16.482  0.00  0.00    +0.058 C 
BRANCH  19  21
ATOM     21  C   UNL     1      -5.669 -10.450  17.561  0.00  0.00    -0.001 A 
ATOM     22  C   UNL     1      -7.017 -10.103  17.470  0.00  0.00    +0.165 A 
ATOM     23  C   UNL     1      -5.208 -11.177  18.659  0.00  0.00    +0.007 A 
ATOM     24  C   UNL     1      -7.905 -10.482  18.478  0.00  0.00    +0.162 A 
ATOM     26  C   UNL     1      -6.096 -11.556  19.667  0.00  0.00    +0.004 A 
ATOM     27  C   UNL     1      -7.443 -11.209  19.575  0.00  0.00    +0.049 A 
BRANCH  22   4
ATOM      4  O   UNL     1      -7.472  -9.393  16.398  0.00  0.00    -0.491 OA
ATOM     28  C   UNL     1      -7.979 -10.140  15.296  0.00  0.00    +0.277 C 
ENDBRANCH  22   4
BRANCH  24   5
ATOM      5  O   UNL     1      -9.224 -10.151  18.401  0.00  0.00    -0.491 OA
ATOM     29  C   UNL     1     -10.074 -10.637  19.437  0.00  0.00    +0.277 C 
ENDBRANCH  24   5
ENDBRANCH  19  21
ENDBRANCH  17  19
ENDBRANCH   7  17
BRANCH  18  20
ATOM     20  C   UNL     1      -6.518  -9.793  10.631  0.00  0.00    +0.255 C 
BRANCH  20   3
ATOM      3  O   UNL     1      -7.090  -9.277   9.455  0.00  0.00    -0.374 OA
ATOM     25  C   UNL     1      -8.298  -8.563   9.714  0.00  0.00    +0.194 C 
ENDBRANCH  20   3
ENDBRANCH  18  20
TORSDOF 7
ENDMDL
MODEL 2
REMARK VINA RESULT:      -6.3     22.775     26.779
REMARK  Name = 26742544
REMARK  10 active torsions:
REMARK  status: ('A' for Active; 'I' for Inactive)
REMARK    1  A    between atoms: O_3  and  C_20
REMARK    2  A    between atoms: O_3  and  C_25
REMARK    3  A    between atoms: O_4  and  C_22
REMARK    4  A    between atoms: O_4  and  C_28
REMARK    5  A    between atoms: O_5  and  C_24
REMARK    6  A    between atoms: O_5  and  C_29
REMARK    7  A    between atoms: N_7  and  C_17
REMARK    8  A    between atoms: C_17  and  C_19
REMARK    9  A    between atoms: C_18  and  C_20
REMARK   10  A    between atoms: C_19  and  C_21
REMARK                            x       y       z     vdW  Elec       q    Type
REMARK                         _______ _______ _______ _____ _____    ______ ____
ROOT
ATOM      1  O   UNL     1      10.762  10.457   3.102  0.00  0.00    -0.276 OA
ATOM      2  O   UNL     1      11.773   5.911   8.329  0.00  0.00    -0.273 OA
ATOM      6  N   UNL     1       9.915   7.105   7.609  0.00  0.00    -0.299 N 
ATOM      7  N   UNL     1       9.718   8.395   2.911  0.00  0.00    -0.301 N 
ATOM      8  C   UNL     1       8.363   7.867   5.818  0.00  0.00    +0.011 C 
ATOM      9  C   UNL     1       9.061   9.246   5.858  0.00  0.00    +0.004 C 
ATOM     10  C   UNL     1      10.519   9.130   6.342  0.00  0.00    +0.023 C 
ATOM     11  C   UNL     1       8.509   7.174   7.189  0.00  0.00    +0.111 C 
ATOM     12  C   UNL     1       8.840   6.922   4.698  0.00  0.00    +0.024 C 
ATOM     13  C   UNL     1       8.926  10.055   4.562  0.00  0.00    +0.100 C 
ATOM     14  C   UNL     1      10.596   8.397   7.680  0.00  0.00    +0.108 C 
ATOM     15  C   UNL     1       8.637   7.491   3.298  0.00  0.00    +0.108 C 
ATOM     16  C   UNL     1       9.888   9.661   3.456  0.00  0.00    +0.216 C 
ATOM     18  C   UNL     1      10.598   5.940   7.954  0.00  0.00    +0.241 C 
ENDROOT
BRANCH   7  17
ATOM     17  C   UNL     1      10.649   7.903   1.904  0.00  0.00    +0.112 C 
BRANCH  17  19
ATOM     19  C   UNL     1      10.121   6.674   1.168  0.00  0.00    +0.058 C 
BRANCH  19  21
ATOM     21  C   UNL     1      11.018   5.471   1.314  0.00  0.00    -0.001 A 
ATOM     22  C   UNL     1      12.095   5.273   0.449  0.00  0.00    +0.165 A 
ATOM     23  C   UNL     1      10.762   4.549   2.329  0.00  0.00    +0.007 A 
ATOM     24  C   UNL     1      12.914   4.154   0.599  0.00  0.00    +0.162 A 
ATOM     26  C   UNL     1      11.581   3.429   2.479  0.00  0.00    +0.004 A 
ATOM     27  C   UNL     1      12.657   3.233   1.615  0.00  0.00    +0.049 A 
BRANCH  22   4
ATOM      4  O   UNL     1      12.351   6.171  -0.545  0.00  0.00    -0.491 OA
ATOM     28  C   UNL     1      11.838   5.866  -1.839  0.00  0.00    +0.277 C 
ENDBRANCH  22   4
BRANCH  24   5
ATOM      5  O   UNL     1      13.970   3.949  -0.238  0.00  0.00    -0.491 OA
ATOM     29  C   UNL     1      15.274   4.093   0.319  0.00  0.00    +0.277 C 
ENDBRANCH  24   5
ENDBRANCH  19  21
ENDBRANCH  17  19
ENDBRANCH   7  17
BRANCH  18  20
ATOM     20  C   UNL     1       9.826   4.648   7.852  0.00  0.00    +0.255 C 
BRANCH  20   3
ATOM      3  O   UNL     1       9.936   4.014   9.102  0.00  0.00    -0.374 OA
ATOM     25  C   UNL     1       9.066   4.591  10.074  0.00  0.00    +0.194 C 
ENDBRANCH  20   3
ENDBRANCH  18  20
TORSDOF 7
ENDMDL
MODEL 3
REMARK VINA RESULT:      -6.2     23.422     27.657
REMARK  Name = 26742544
REMARK  10 active torsions:
REMARK  status: ('A' for Active; 'I' for Inactive)
REMARK    1  A    between atoms: O_3  and  C_20
REMARK    2  A    between atoms: O_3  and  C_25
REMARK    3  A    between atoms: O_4  and  C_22
REMARK    4  A    between atoms: O_4  and  C_28
REMARK    5  A    between atoms: O_5  and  C_24
REMARK    6  A    between atoms: O_5  and  C_29
REMARK    7  A    between atoms: N_7  and  C_17
REMARK    8  A    between atoms: C_17  and  C_19
REMARK    9  A    between atoms: C_18  and  C_20
REMARK   10  A    between atoms: C_19  and  C_21
REMARK                            x       y       z     vdW  Elec       q    Type
REMARK                         _______ _______ _______ _____ _____    ______ ____
ROOT
ATOM      1  O   UNL     1      13.111   6.756   1.557  0.00  0.00    -0.276 OA
ATOM      2  O   UNL     1      11.781   5.873   8.372  0.00  0.00    -0.273 OA
ATOM      6  N   UNL     1      10.433   6.392   6.552  0.00  0.00    -0.299 N 
ATOM      7  N   UNL     1      11.877   4.883   2.147  0.00  0.00    -0.301 N 
ATOM      8  C   UNL     1       9.636   5.977   4.232  0.00  0.00    +0.011 C 
ATOM      9  C   UNL     1      10.488   7.181   3.768  0.00  0.00    +0.004 C 
ATOM     10  C   UNL     1      11.693   7.414   4.698  0.00  0.00    +0.023 C 
ATOM     11  C   UNL     1       9.250   6.157   5.714  0.00  0.00    +0.111 C 
ATOM     12  C   UNL     1      10.284   4.595   4.021  0.00  0.00    +0.024 C 
ATOM     13  C   UNL     1      10.879   7.140   2.285  0.00  0.00    +0.100 C 
ATOM     14  C   UNL     1      11.247   7.541   6.154  0.00  0.00    +0.108 C 
ATOM     15  C   UNL     1      10.606   4.293   2.562  0.00  0.00    +0.108 C 
ATOM     16  C   UNL     1      12.062   6.247   1.958  0.00  0.00    +0.216 C 
ATOM     18  C   UNL     1      10.794   5.639   7.669  0.00  0.00    +0.241 C 
ENDROOT
BRANCH   7  17
ATOM     17  C   UNL     1      12.987   3.961   1.938  0.00  0.00    +0.112 C 
BRANCH  17  19
ATOM     19  C   UNL     1      12.962   3.319   0.554  0.00  0.00    +0.058 C 
BRANCH  19  21
ATOM     21  C   UNL     1      14.066   3.815  -0.345  0.00  0.00    -0.001 A 
ATOM     22  C   UNL     1      13.822   4.092  -1.691  0.00  0.00    +0.165 A 
ATOM     23  C   UNL     1      15.345   3.997   0.183  0.00  0.00    +0.007 A 
ATOM     24  C   UNL     1      14.856   4.551  -2.508  0.00  0.00    +0.162 A 
ATOM     26  C   UNL     1      16.379   4.455  -0.634  0.00  0.00    +0.004 A 
ATOM     27  C   UNL     1      16.134   4.733  -1.978  0.00  0.00    +0.049 A 
BRANCH  22   4
ATOM      4  O   UNL     1      12.574   3.917  -2.212  0.00  0.00    -0.491 OA
ATOM     28  C   UNL     1      12.287   2.645  -2.787  0.00  0.00    +0.277 C 
ENDBRANCH  22   4
BRANCH  24   5
ATOM      5  O   UNL     1      14.631   4.827  -3.823  0.00  0.00    -0.491 OA
ATOM     29  C   UNL     1      14.320   6.177  -4.157  0.00  0.00    +0.277 C 
ENDBRANCH  24   5
ENDBRANCH  19  21
ENDBRANCH  17  19
ENDBRANCH   7  17
BRANCH  18  20
ATOM     20  C   UNL     1       9.905   4.470   8.012  0.00  0.00    +0.255 C 
BRANCH  20   3
ATOM      3  O   UNL     1      10.083   4.220   9.385  0.00  0.00    -0.374 OA
ATOM     25  C   UNL     1       8.950   4.620  10.154  0.00  0.00    +0.194 C 
ENDBRANCH  20   3
ENDBRANCH  18  20
TORSDOF 7
ENDMDL
MODEL 4
REMARK VINA RESULT:      -6.1      2.900      6.642
REMARK  Name = 26742544
REMARK  10 active torsions:
REMARK  status: ('A' for Active; 'I' for Inactive)
REMARK    1  A    between atoms: O_3  and  C_20
REMARK    2  A    between atoms: O_3  and  C_25
REMARK    3  A    between atoms: O_4  and  C_22
REMARK    4  A    between atoms: O_4  and  C_28
REMARK    5  A    between atoms: O_5  and  C_24
REMARK    6  A    between atoms: O_5  and  C_29
REMARK    7  A    between atoms: N_7  and  C_17
REMARK    8  A    between atoms: C_17  and  C_19
REMARK    9  A    between atoms: C_18  and  C_20
REMARK   10  A    between atoms: C_19  and  C_21
REMARK                            x       y       z     vdW  Elec       q    Type
REMARK                         _______ _______ _______ _____ _____    ______ ____
ROOT
ATOM      1  O   UNL     1      -5.802 -14.084  17.110  0.00  0.00    -0.276 OA
ATOM      2  O   UNL     1      -9.412  -8.724  14.417  0.00  0.00    -0.273 OA
ATOM      6  N   UNL     1      -9.777 -10.121  16.237  0.00  0.00    -0.299 N 
ATOM      7  N   UNL     1      -5.887 -12.140  18.373  0.00  0.00    -0.301 N 
ATOM      8  C   UNL     1      -9.011 -11.242  18.323  0.00  0.00    +0.011 C 
ATOM      9  C   UNL     1      -8.876 -12.556  17.518  0.00  0.00    +0.004 C 
ATOM     10  C   UNL     1      -8.611 -12.281  16.026  0.00  0.00    +0.023 C 
ATOM     11  C   UNL     1     -10.069 -10.336  17.660  0.00  0.00    +0.111 C 
ATOM     12  C   UNL     1      -7.699 -10.459  18.524  0.00  0.00    +0.024 C 
ATOM     13  C   UNL     1      -7.892 -13.564  18.123  0.00  0.00    +0.100 C 
ATOM     14  C   UNL     1      -9.669 -11.345  15.443  0.00  0.00    +0.108 C 
ATOM     15  C   UNL     1      -6.627 -11.250  19.265  0.00  0.00    +0.108 C 
ATOM     16  C   UNL     1      -6.429 -13.294  17.820  0.00  0.00    +0.216 C 
ATOM     18  C   UNL     1      -9.632  -8.879  15.621  0.00  0.00    +0.241 C 
ENDROOT
BRANCH   7  17
ATOM     17  C   UNL     1      -4.514 -11.759  18.065  0.00  0.00    +0.112 C 
BRANCH  17  19
ATOM     19  C   UNL     1      -4.419 -10.376  17.427  0.00  0.00    +0.058 C 
BRANCH  19  21
ATOM     21  C   UNL     1      -4.578 -10.408  15.927  0.00  0.00    -0.001 A 
ATOM     22  C   UNL     1      -3.530 -10.828  15.107  0.00  0.00    +0.165 A 
ATOM     23  C   UNL     1      -5.790 -10.013  15.361  0.00  0.00    +0.007 A 
ATOM     24  C   UNL     1      -3.694 -10.851  13.722  0.00  0.00    +0.162 A 
ATOM     26  C   UNL     1      -5.954 -10.036  13.976  0.00  0.00    +0.004 A 
ATOM     27  C   UNL     1      -4.907 -10.456  13.157  0.00  0.00    +0.049 A 
BRANCH  22   4
ATOM      4  O   UNL     1      -2.343 -11.216  15.655  0.00  0.00    -0.491 OA
ATOM     28  C   UNL     1      -1.312 -10.234  15.728  0.00  0.00    +0.277 C 
ENDBRANCH  22   4
BRANCH  24   5
ATOM      5  O   UNL     1      -2.679 -11.260  12.910  0.00  0.00    -0.491 OA
ATOM     29  C   UNL     1      -2.958 -12.337  12.019  0.00  0.00    +0.277 C 
ENDBRANCH  24   5
ENDBRANCH  19  21
ENDBRANCH  17  19
ENDBRANCH   7  17
BRANCH  18  20
ATOM     20  C   UNL     1      -9.755  -7.666  16.508  0.00  0.00    +0.255 C 
BRANCH  20   3
ATOM      3  O   UNL     1     -10.085  -6.586  15.670  0.00  0.00    -0.374 OA
ATOM     25  C   UNL     1     -11.386  -6.070  15.946  0.00  0.00    +0.194 C 
ENDBRANCH  20   3
ENDBRANCH  18  20
TORSDOF 7
ENDMDL
MODEL 5
REMARK VINA RESULT:      -6.0     22.612     26.706
REMARK  Name = 26742544
REMARK  10 active torsions:
REMARK  status: ('A' for Active; 'I' for Inactive)
REMARK    1  A    between atoms: O_3  and  C_20
REMARK    2  A    between atoms: O_3  and  C_25
REMARK    3  A    between atoms: O_4  and  C_22
REMARK    4  A    between atoms: O_4  and  C_28
REMARK    5  A    between atoms: O_5  and  C_24
REMARK    6  A    between atoms: O_5  and  C_29
REMARK    7  A    between atoms: N_7  and  C_17
REMARK    8  A    between atoms: C_17  and  C_19
REMARK    9  A    between atoms: C_18  and  C_20
REMARK   10  A    between atoms: C_19  and  C_21
REMARK                            x       y       z     vdW  Elec       q    Type
REMARK                         _______ _______ _______ _____ _____    ______ ____
ROOT
ATOM      1  O   UNL     1      10.602  10.342   2.972  0.00  0.00    -0.276 OA
ATOM      2  O   UNL     1      11.897   5.811   8.149  0.00  0.00    -0.273 OA
ATOM      6  N   UNL     1      10.063   7.141   7.633  0.00  0.00    -0.299 N 
ATOM      7  N   UNL     1       9.384   8.368   2.963  0.00  0.00    -0.301 N 
ATOM      8  C   UNL     1       8.365   7.998   6.028  0.00  0.00    +0.011 C 
ATOM      9  C   UNL     1       9.169   9.317   5.946  0.00  0.00    +0.004 C 
ATOM     10  C   UNL     1      10.662   9.089   6.249  0.00  0.00    +0.023 C 
ATOM     11  C   UNL     1       8.626   7.318   7.387  0.00  0.00    +0.111 C 
ATOM     12  C   UNL     1       8.622   7.000   4.883  0.00  0.00    +0.024 C 
ATOM     13  C   UNL     1       8.937  10.113   4.656  0.00  0.00    +0.100 C 
ATOM     14  C   UNL     1      10.848   8.374   7.586  0.00  0.00    +0.108 C 
ATOM     15  C   UNL     1       8.291   7.561   3.504  0.00  0.00    +0.108 C 
ATOM     16  C   UNL     1       9.720   9.625   3.451  0.00  0.00    +0.216 C 
ATOM     18  C   UNL     1      10.690   5.929   7.921  0.00  0.00    +0.241 C 
ENDROOT
BRANCH   7  17
ATOM     17  C   UNL     1      10.140   7.786   1.862  0.00  0.00    +0.112 C 
BRANCH  17  19
ATOM     19  C   UNL     1      10.075   6.261   1.848  0.00  0.00    +0.058 C 
BRANCH  19  21
ATOM     21  C   UNL     1      10.293   5.676   0.475  0.00  0.00    -0.001 A 
ATOM     22  C   UNL     1      11.078   4.536   0.301  0.00  0.00    +0.165 A 
ATOM     23  C   UNL     1       9.698   6.288  -0.629  0.00  0.00    +0.007 A 
ATOM     24  C   UNL     1      11.270   4.009  -0.976  0.00  0.00    +0.162 A 
ATOM     26  C   UNL     1       9.889   5.760  -1.907  0.00  0.00    +0.004 A 
ATOM     27  C   UNL     1      10.674   4.621  -2.080  0.00  0.00    +0.049 A 
BRANCH  22   4
ATOM      4  O   UNL     1      11.661   3.934   1.377  0.00  0.00    -0.491 OA
ATOM     28  C   UNL     1      13.037   4.225   1.614  0.00  0.00    +0.277 C 
ENDBRANCH  22   4
BRANCH  24   5
ATOM      5  O   UNL     1      12.033   2.895  -1.160  0.00  0.00    -0.491 OA
ATOM     29  C   UNL     1      11.907   2.224  -2.412  0.00  0.00    +0.277 C 
ENDBRANCH  24   5
ENDBRANCH  19  21
ENDBRANCH  17  19
ENDBRANCH   7  17
BRANCH  18  20
ATOM     20  C   UNL     1       9.812   4.703   7.948  0.00  0.00    +0.255 C 
BRANCH  20   3
ATOM      3  O   UNL     1       9.967   4.126   9.221  0.00  0.00    -0.374 OA
ATOM     25  C   UNL     1       9.051   4.668  10.171  0.00  0.00    +0.194 C 
ENDBRANCH  20   3
ENDBRANCH  18  20
TORSDOF 7
ENDMDL
MODEL 6
REMARK VINA RESULT:      -5.9      2.345      6.982
REMARK  Name = 26742544
REMARK  10 active torsions:
REMARK  status: ('A' for Active; 'I' for Inactive)
REMARK    1  A    between atoms: O_3  and  C_20
REMARK    2  A    between atoms: O_3  and  C_25
REMARK    3  A    between atoms: O_4  and  C_22
REMARK    4  A    between atoms: O_4  and  C_28
REMARK    5  A    between atoms: O_5  and  C_24
REMARK    6  A    between atoms: O_5  and  C_29
REMARK    7  A    between atoms: N_7  and  C_17
REMARK    8  A    between atoms: C_17  and  C_19
REMARK    9  A    between atoms: C_18  and  C_20
REMARK   10  A    between atoms: C_19  and  C_21
REMARK                            x       y       z     vdW  Elec       q    Type
REMARK                         _______ _______ _______ _____ _____    ______ ____
ROOT
ATOM      1  O   UNL     1      -4.300 -13.666  15.497  0.00  0.00    -0.276 OA
ATOM      2  O   UNL     1     -10.517 -10.498  16.063  0.00  0.00    -0.273 OA
ATOM      6  N   UNL     1      -8.867 -11.032  17.609  0.00  0.00    -0.299 N 
ATOM      7  N   UNL     1      -4.278 -11.404  16.007  0.00  0.00    -0.301 N 
ATOM      8  C   UNL     1      -6.494 -11.051  18.359  0.00  0.00    +0.011 C 
ATOM      9  C   UNL     1      -6.430 -12.550  17.980  0.00  0.00    +0.004 C 
ATOM     10  C   UNL     1      -7.437 -12.896  16.867  0.00  0.00    +0.023 C 
ATOM     11  C   UNL     1      -7.949 -10.665  18.695  0.00  0.00    +0.111 C 
ATOM     12  C   UNL     1      -5.924 -10.084  17.304  0.00  0.00    +0.024 C 
ATOM     13  C   UNL     1      -5.015 -13.062  17.684  0.00  0.00    +0.100 C 
ATOM     14  C   UNL     1      -8.848 -12.449  17.245  0.00  0.00    +0.108 C 
ATOM     15  C   UNL     1      -4.453 -10.332  16.985  0.00  0.00    +0.108 C 
ATOM     16  C   UNL     1      -4.495 -12.745  16.294  0.00  0.00    +0.216 C 
ATOM     18  C   UNL     1      -9.735 -10.159  16.956  0.00  0.00    +0.241 C 
ENDROOT
BRANCH   7  17
ATOM     17  C   UNL     1      -3.860 -11.003  14.669  0.00  0.00    +0.112 C 
BRANCH  17  19
ATOM     19  C   UNL     1      -5.028 -10.528  13.808  0.00  0.00    +0.058 C 
BRANCH  19  21
ATOM     21  C   UNL     1      -4.595 -10.036  12.450  0.00  0.00    -0.001 A 
ATOM     22  C   UNL     1      -5.457  -9.278  11.657  0.00  0.00    +0.165 A 
ATOM     23  C   UNL     1      -3.316 -10.348  11.988  0.00  0.00    +0.007 A 
ATOM     24  C   UNL     1      -5.040  -8.832  10.402  0.00  0.00    +0.162 A 
ATOM     26  C   UNL     1      -2.899  -9.902  10.733  0.00  0.00    +0.004 A 
ATOM     27  C   UNL     1      -3.760  -9.144   9.941  0.00  0.00    +0.049 A 
BRANCH  22   4
ATOM      4  O   UNL     1      -6.708  -8.970  12.104  0.00  0.00    -0.491 OA
ATOM     28  C   UNL     1      -7.748  -9.896  11.801  0.00  0.00    +0.277 C 
ENDBRANCH  22   4
BRANCH  24   5
ATOM      5  O   UNL     1      -5.870  -8.089   9.618  0.00  0.00    -0.491 OA
ATOM     29  C   UNL     1      -6.523  -8.764   8.545  0.00  0.00    +0.277 C 
ENDBRANCH  24   5
ENDBRANCH  19  21
ENDBRANCH  17  19
ENDBRANCH   7  17
BRANCH  18  20
ATOM     20  C   UNL     1      -9.693  -8.715  17.388  0.00  0.00    +0.255 C 
BRANCH  20   3
ATOM      3  O   UNL     1      -9.369  -7.962  16.245  0.00  0.00    -0.374 OA
ATOM     25  C   UNL     1     -10.335  -6.948  15.978  0.00  0.00    +0.194 C 
ENDBRANCH  20   3
ENDBRANCH  18  20
TORSDOF 7
ENDMDL
MODEL 7
REMARK VINA RESULT:      -5.6      1.940      7.473
REMARK  Name = 26742544
REMARK  10 active torsions:
REMARK  status: ('A' for Active; 'I' for Inactive)
REMARK    1  A    between atoms: O_3  and  C_20
REMARK    2  A    between atoms: O_3  and  C_25
REMARK    3  A    between atoms: O_4  and  C_22
REMARK    4  A    between atoms: O_4  and  C_28
REMARK    5  A    between atoms: O_5  and  C_24
REMARK    6  A    between atoms: O_5  and  C_29
REMARK    7  A    between atoms: N_7  and  C_17
REMARK    8  A    between atoms: C_17  and  C_19
REMARK    9  A    between atoms: C_18  and  C_20
REMARK   10  A    between atoms: C_19  and  C_21
REMARK                            x       y       z     vdW  Elec       q    Type
REMARK                         _______ _______ _______ _____ _____    ______ ____
ROOT
ATOM      1  O   UNL     1      -2.123 -12.394  14.835  0.00  0.00    -0.276 OA
ATOM      2  O   UNL     1      -7.952 -13.130  18.642  0.00  0.00    -0.273 OA
ATOM      6  N   UNL     1      -6.721 -11.275  17.977  0.00  0.00    -0.299 N 
ATOM      7  N   UNL     1      -4.097 -11.633  13.884  0.00  0.00    -0.301 N 
ATOM      8  C   UNL     1      -5.560  -9.930  16.234  0.00  0.00    +0.011 C 
ATOM      9  C   UNL     1      -4.213 -10.452  16.787  0.00  0.00    +0.004 C 
ATOM     10  C   UNL     1      -4.374 -11.825  17.467  0.00  0.00    +0.023 C 
ATOM     11  C   UNL     1      -6.621  -9.949  17.354  0.00  0.00    +0.111 C 
ATOM     12  C   UNL     1      -6.092 -10.673  14.994  0.00  0.00    +0.024 C 
ATOM     13  C   UNL     1      -3.064 -10.419  15.773  0.00  0.00    +0.100 C 
ATOM     14  C   UNL     1      -5.468 -11.786  18.533  0.00  0.00    +0.108 C 
ATOM     15  C   UNL     1      -5.144 -10.617  13.801  0.00  0.00    +0.108 C 
ATOM     16  C   UNL     1      -3.044 -11.574  14.788  0.00  0.00    +0.216 C 
ATOM     18  C   UNL     1      -7.889 -12.028  18.091  0.00  0.00    +0.241 C 
ENDROOT
BRANCH   7  17
ATOM     17  C   UNL     1      -4.202 -12.754  12.958  0.00  0.00    +0.112 C 
BRANCH  17  19
ATOM     19  C   UNL     1      -3.232 -12.638  11.785  0.00  0.00    +0.058 C 
BRANCH  19  21
ATOM     21  C   UNL     1      -3.470 -11.409  10.944  0.00  0.00    -0.001 A 
ATOM     22  C   UNL     1      -4.501 -11.375  10.005  0.00  0.00    +0.165 A 
ATOM     23  C   UNL     1      -2.645 -10.297  11.114  0.00  0.00    +0.007 A 
ATOM     24  C   UNL     1      -4.707 -10.230   9.236  0.00  0.00    +0.162 A 
ATOM     26  C   UNL     1      -2.851  -9.151  10.344  0.00  0.00    +0.004 A 
ATOM     27  C   UNL     1      -3.882  -9.118   9.406  0.00  0.00    +0.049 A 
BRANCH  22   4
ATOM      4  O   UNL     1      -5.311 -12.460   9.836  0.00  0.00    -0.491 OA
ATOM     28  C   UNL     1      -6.619 -12.383  10.397  0.00  0.00    +0.277 C 
ENDBRANCH  22   4
BRANCH  24   5
ATOM      5  O   UNL     1      -5.711 -10.183   8.316  0.00  0.00    -0.491 OA
ATOM     29  C   UNL     1      -5.351 -10.390   6.953  0.00  0.00    +0.277 C 
ENDBRANCH  24   5
ENDBRANCH  19  21
ENDBRANCH  17  19
ENDBRANCH   7  17
BRANCH  18  20
ATOM     20  C   UNL     1      -9.138 -11.433  17.491  0.00  0.00    +0.255 C 
BRANCH  20   3
ATOM      3  O   UNL     1      -9.934 -10.999  18.566  0.00  0.00    -0.374 OA
ATOM     25  C   UNL     1     -10.418  -9.671  18.374  0.00  0.00    +0.194 C 
ENDBRANCH  20   3
ENDBRANCH  18  20
TORSDOF 7
ENDMDL
MODEL 8
REMARK VINA RESULT:      -5.5     23.662     26.402
REMARK  Name = 26742544
REMARK  10 active torsions:
REMARK  status: ('A' for Active; 'I' for Inactive)
REMARK    1  A    between atoms: O_3  and  C_20
REMARK    2  A    between atoms: O_3  and  C_25
REMARK    3  A    between atoms: O_4  and  C_22
REMARK    4  A    between atoms: O_4  and  C_28
REMARK    5  A    between atoms: O_5  and  C_24
REMARK    6  A    between atoms: O_5  and  C_29
REMARK    7  A    between atoms: N_7  and  C_17
REMARK    8  A    between atoms: C_17  and  C_19
REMARK    9  A    between atoms: C_18  and  C_20
REMARK   10  A    between atoms: C_19  and  C_21
REMARK                            x       y       z     vdW  Elec       q    Type
REMARK                         _______ _______ _______ _____ _____    ______ ____
ROOT
ATOM      1  O   UNL     1      14.668   6.133   2.436  0.00  0.00    -0.276 OA
ATOM      2  O   UNL     1      11.040   6.126  -3.551  0.00  0.00    -0.273 OA
ATOM      6  N   UNL     1      12.166   4.464  -2.382  0.00  0.00    -0.299 N 
ATOM      7  N   UNL     1      12.646   4.996   2.440  0.00  0.00    -0.301 N 
ATOM      8  C   UNL     1      12.674   3.224  -0.285  0.00  0.00    +0.011 C 
ATOM      9  C   UNL     1      14.011   3.997  -0.201  0.00  0.00    +0.004 C 
ATOM     10  C   UNL     1      13.921   5.364  -0.905  0.00  0.00    +0.023 C 
ATOM     11  C   UNL     1      12.219   3.137  -1.756  0.00  0.00    +0.111 C 
ATOM     12  C   UNL     1      11.535   3.789   0.585  0.00  0.00    +0.024 C 
ATOM     13  C   UNL     1      14.592   4.092   1.215  0.00  0.00    +0.100 C 
ATOM     14  C   UNL     1      13.424   5.210  -2.342  0.00  0.00    +0.108 C 
ATOM     15  C   UNL     1      11.864   3.817   2.073  0.00  0.00    +0.108 C 
ATOM     16  C   UNL     1      13.979   5.170   2.089  0.00  0.00    +0.216 C 
ATOM     18  C   UNL     1      11.051   5.017  -3.009  0.00  0.00    +0.241 C 
ENDROOT
BRANCH   7  17
ATOM     17  C   UNL     1      11.953   6.024   3.207  0.00  0.00    +0.112 C 
BRANCH  17  19
ATOM     19  C   UNL     1      10.795   5.462   4.028  0.00  0.00    +0.058 C 
BRANCH  19  21
ATOM     21  C   UNL     1       9.838   6.528   4.501  0.00  0.00    -0.001 A 
ATOM     22  C   UNL     1       9.711   6.822   5.859  0.00  0.00    +0.165 A 
ATOM     23  C   UNL     1       9.075   7.224   3.563  0.00  0.00    +0.007 A 
ATOM     24  C   UNL     1       8.821   7.810   6.279  0.00  0.00    +0.162 A 
ATOM     26  C   UNL     1       8.185   8.213   3.982  0.00  0.00    +0.004 A 
ATOM     27  C   UNL     1       8.058   8.506   5.340  0.00  0.00    +0.049 A 
BRANCH  22   4
ATOM      4  O   UNL     1      10.455   6.145   6.780  0.00  0.00    -0.491 OA
ATOM     28  C   UNL     1       9.815   5.072   7.465  0.00  0.00    +0.277 C 
ENDBRANCH  22   4
BRANCH  24   5
ATOM      5  O   UNL     1       8.687   8.109   7.601  0.00  0.00    -0.491 OA
ATOM     29  C   UNL     1       9.417   9.232   8.088  0.00  0.00    +0.277 C 
ENDBRANCH  24   5
ENDBRANCH  19  21
ENDBRANCH  17  19
ENDBRANCH   7  17
BRANCH  18  20
ATOM     20  C   UNL     1       9.792   4.187  -3.007  0.00  0.00    +0.255 C 
BRANCH  20   3
ATOM      3  O   UNL     1       9.806   3.433  -4.194  0.00  0.00    -0.374 OA
ATOM     25  C   UNL     1       9.418   2.078  -3.972  0.00  0.00    +0.194 C 
ENDBRANCH  20   3
ENDBRANCH  18  20
TORSDOF 7
ENDMDL
MODEL 9
REMARK VINA RESULT:      -5.5      1.946      6.861
REMARK  Name = 26742544
REMARK  10 active torsions:
REMARK  status: ('A' for Active; 'I' for Inactive)
REMARK    1  A    between atoms: O_3  and  C_20
REMARK    2  A    between atoms: O_3  and  C_25
REMARK    3  A    between atoms: O_4  and  C_22
REMARK    4  A    between atoms: O_4  and  C_28
REMARK    5  A    between atoms: O_5  and  C_24
REMARK    6  A    between atoms: O_5  and  C_29
REMARK    7  A    between atoms: N_7  and  C_17
REMARK    8  A    between atoms: C_17  and  C_19
REMARK    9  A    between atoms: C_18  and  C_20
REMARK   10  A    between atoms: C_19  and  C_21
REMARK                            x       y       z     vdW  Elec       q    Type
REMARK                         _______ _______ _______ _____ _____    ______ ____
ROOT
ATOM      1  O   UNL     1      -8.166  -9.115  16.444  0.00  0.00    -0.276 OA
ATOM      2  O   UNL     1      -1.564 -10.061  14.318  0.00  0.00    -0.273 OA
ATOM      6  N   UNL     1      -3.111 -11.459  15.343  0.00  0.00    -0.299 N 
ATOM      7  N   UNL     1      -7.843 -10.526  14.632  0.00  0.00    -0.301 N 
ATOM      8  C   UNL     1      -5.382 -12.463  15.504  0.00  0.00    +0.011 C 
ATOM      9  C   UNL     1      -5.678 -11.503  16.681  0.00  0.00    +0.004 C 
ATOM     10  C   UNL     1      -4.837 -10.216  16.586  0.00  0.00    +0.023 C 
ATOM     11  C   UNL     1      -3.863 -12.718  15.414  0.00  0.00    +0.111 C 
ATOM     12  C   UNL     1      -5.921 -12.007  14.135  0.00  0.00    +0.024 C 
ATOM     13  C   UNL     1      -7.169 -11.226  16.905  0.00  0.00    +0.100 C 
ATOM     14  C   UNL     1      -3.349 -10.539  16.455  0.00  0.00    +0.108 C 
ATOM     15  C   UNL     1      -7.435 -11.828  14.108  0.00  0.00    +0.108 C 
ATOM     16  C   UNL     1      -7.775 -10.188  15.978  0.00  0.00    +0.216 C 
ATOM     18  C   UNL     1      -2.204 -11.116  14.341  0.00  0.00    +0.241 C 
ENDROOT
BRANCH   7  17
ATOM     17  C   UNL     1      -8.333  -9.557  13.660  0.00  0.00    +0.112 C 
BRANCH  17  19
ATOM     19  C   UNL     1      -8.381 -10.122  12.243  0.00  0.00    +0.058 C 
BRANCH  19  21
ATOM     21  C   UNL     1      -7.464  -9.397  11.290  0.00  0.00    -0.001 A 
ATOM     22  C   UNL     1      -7.929  -8.951  10.052  0.00  0.00    +0.165 A 
ATOM     23  C   UNL     1      -6.137  -9.172  11.659  0.00  0.00    +0.007 A 
ATOM     24  C   UNL     1      -7.066  -8.282   9.183  0.00  0.00    +0.162 A 
ATOM     26  C   UNL     1      -5.275  -8.503  10.789  0.00  0.00    +0.004 A 
ATOM     27  C   UNL     1      -5.740  -8.057   9.552  0.00  0.00    +0.049 A 
BRANCH  22   4
ATOM      4  O   UNL     1      -9.225  -9.167   9.687  0.00  0.00    -0.491 OA
ATOM     28  C   UNL     1      -9.486 -10.314   8.882  0.00  0.00    +0.277 C 
ENDBRANCH  22   4
BRANCH  24   5
ATOM      5  O   UNL     1      -7.507  -7.841   7.971  0.00  0.00    -0.491 OA
ATOM     29  C   UNL     1      -8.035  -6.517   7.918  0.00  0.00    +0.277 C 
ENDBRANCH  24   5
ENDBRANCH  19  21
ENDBRANCH  17  19
ENDBRANCH   7  17
BRANCH  18  20
ATOM     20  C   UNL     1      -2.015 -12.116  13.229  0.00  0.00    +0.255 C 
BRANCH  20   3
ATOM      3  O   UNL     1      -1.872 -11.375  12.042  0.00  0.00    -0.374 OA
ATOM     25  C   UNL     1      -3.049 -11.422  11.236  0.00  0.00    +0.194 C 
ENDBRANCH  20   3
ENDBRANCH  18  20
TORSDOF 7
ENDMDL
MODEL 10
REMARK VINA RESULT:      -5.5      2.418      6.915
REMARK  Name = 26742544
REMARK  10 active torsions:
REMARK  status: ('A' for Active; 'I' for Inactive)
REMARK    1  A    between atoms: O_3  and  C_20
REMARK    2  A    between atoms: O_3  and  C_25
REMARK    3  A    between atoms: O_4  and  C_22
REMARK    4  A    between atoms: O_4  and  C_28
REMARK    5  A    between atoms: O_5  and  C_24
REMARK    6  A    between atoms: O_5  and  C_29
REMARK    7  A    between atoms: N_7  and  C_17
REMARK    8  A    between atoms: C_17  and  C_19
REMARK    9  A    between atoms: C_18  and  C_20
REMARK   10  A    between atoms: C_19  and  C_21
REMARK                            x       y       z     vdW  Elec       q    Type
REMARK                         _______ _______ _______ _____ _____    ______ ____
ROOT
ATOM      1  O   UNL     1      -4.343 -12.559  18.608  0.00  0.00    -0.276 OA
ATOM      2  O   UNL     1     -10.671 -12.234  15.631  0.00  0.00    -0.273 OA
ATOM      6  N   UNL     1      -9.538 -10.831  17.096  0.00  0.00    -0.299 N 
ATOM      7  N   UNL     1      -4.664 -10.908  17.012  0.00  0.00    -0.301 N 
ATOM      8  C   UNL     1      -7.516  -9.547  17.772  0.00  0.00    +0.011 C 
ATOM      9  C   UNL     1      -7.217 -10.649  18.816  0.00  0.00    +0.004 C 
ATOM     10  C   UNL     1      -7.802 -12.008  18.388  0.00  0.00    +0.023 C 
ATOM     11  C   UNL     1      -9.031  -9.508  17.482  0.00  0.00    +0.111 C 
ATOM     12  C   UNL     1      -6.731  -9.663  16.452  0.00  0.00    +0.024 C 
ATOM     13  C   UNL     1      -5.743 -10.737  19.229  0.00  0.00    +0.100 C 
ATOM     14  C   UNL     1      -9.292 -11.890  18.074  0.00  0.00    +0.108 C 
ATOM     15  C   UNL     1      -5.218  -9.608  16.639  0.00  0.00    +0.108 C 
ATOM     16  C   UNL     1      -4.849 -11.489  18.260  0.00  0.00    +0.216 C 
ATOM     18  C   UNL     1     -10.232 -11.118  15.921  0.00  0.00    +0.241 C 
ENDROOT
BRANCH   7  17
ATOM     17  C   UNL     1      -3.890 -11.603  15.991  0.00  0.00    +0.112 C 
BRANCH  17  19
ATOM     19  C   UNL     1      -4.599 -11.637  14.640  0.00  0.00    +0.058 C 
BRANCH  19  21
ATOM     21  C   UNL     1      -3.751 -11.095  13.516  0.00  0.00    -0.001 A 
ATOM     22  C   UNL     1      -4.298 -10.876  12.251  0.00  0.00    +0.165 A 
ATOM     23  C   UNL     1      -2.406 -10.812  13.753  0.00  0.00    +0.007 A 
ATOM     24  C   UNL     1      -3.498 -10.374  11.223  0.00  0.00    +0.162 A 
ATOM     26  C   UNL     1      -1.607 -10.310  12.726  0.00  0.00    +0.004 A 
ATOM     27  C   UNL     1      -2.153 -10.091  11.462  0.00  0.00    +0.049 A 
BRANCH  22   4
ATOM      4  O   UNL     1      -5.612 -11.150  12.014  0.00  0.00    -0.491 OA
ATOM     28  C   UNL     1      -5.925 -12.460  11.547  0.00  0.00    +0.277 C 
ENDBRANCH  22   4
BRANCH  24   5
ATOM      5  O   UNL     1      -4.019 -10.154   9.984  0.00  0.00    -0.491 OA
ATOM     29  C   UNL     1      -4.134  -8.797   9.562  0.00  0.00    +0.277 C 
ENDBRANCH  24   5
ENDBRANCH  19  21
ENDBRANCH  17  19
ENDBRANCH   7  17
BRANCH  18  20
ATOM     20  C   UNL     1     -10.443  -9.972  14.963  0.00  0.00    +0.255 C 
BRANCH  20   3
ATOM      3  O   UNL     1     -10.025 -10.424  13.698  0.00  0.00    -0.374 OA
ATOM     25  C   UNL     1      -8.753  -9.892  13.333  0.00  0.00    +0.194 C 
ENDBRANCH  20   3
ENDBRANCH  18  20
TORSDOF 7
ENDMDL
