MODEL 1
REMARK VINA RESULT:      -6.9      0.000      0.000
REMARK  Name = 11941199
REMARK  15 active torsions:
REMARK  status: ('A' for Active; 'I' for Inactive)
REMARK    1  A    between atoms: O_3  and  C_30
REMARK    2  A    between atoms: O_3  and  C_34
REMARK    3  A    between atoms: O_4  and  C_32
REMARK    4  A    between atoms: O_4  and  C_35
REMARK    5  A    between atoms: O_5  and  C_33
REMARK    6  A    between atoms: O_5  and  C_36
REMARK    7  A    between atoms: N_8  and  C_20
REMARK    8  A    between atoms: N_9  and  C_21
REMARK    9  A    between atoms: C_10  and  C_16
REMARK   10  A    between atoms: C_11  and  C_15
REMARK   11  A    between atoms: C_15  and  C_17
REMARK   12  A    between atoms: C_16  and  C_19
REMARK   13  A    between atoms: C_20  and  C_22
REMARK   14  A    between atoms: C_27  and  C_33
REMARK   15  A    between atoms: C_36  and  C_37
REMARK                            x       y       z     vdW  Elec       q    Type
REMARK                         _______ _______ _______ _____ _____    ______ ____
ROOT
ATOM      1  O   UNL     1      -5.622 -13.607   9.113  0.00  0.00    -0.252 OA
ATOM      7  N   UNL     1      -5.426 -11.868  10.624  0.00  0.00    -0.285 N 
ATOM      9  N   UNL     1      -6.063 -11.446   8.393  0.00  0.00    -0.269 N 
ATOM     10  C   UNL     1      -3.660 -10.857  12.681  0.00  0.00    +0.004 C 
ATOM     11  C   UNL     1      -4.168  -9.938  11.538  0.00  0.00    +0.010 C 
ATOM     12  C   UNL     1      -3.658 -12.339  12.266  0.00  0.00    +0.023 C 
ATOM     13  C   UNL     1      -5.522 -10.457  11.025  0.00  0.00    +0.113 C 
ATOM     14  C   UNL     1      -5.014 -12.766  11.704  0.00  0.00    +0.109 C 
ATOM     18  C   UNL     1      -5.711 -12.399   9.347  0.00  0.00    +0.306 C 
ATOM     39  H   UNL     1      -6.519 -10.597   8.703  0.00  0.00    +0.156 HD
ENDROOT
BRANCH   9  21
ATOM     21  C   UNL     1      -5.842 -11.509   6.994  0.00  0.00    +0.036 A 
ATOM     23  C   UNL     1      -4.615 -11.952   6.501  0.00  0.00    +0.038 A 
ATOM     24  C   UNL     1      -6.852 -11.126   6.111  0.00  0.00    +0.023 A 
ATOM     27  C   UNL     1      -4.398 -12.013   5.124  0.00  0.00    +0.061 A 
ATOM     28  C   UNL     1      -6.636 -11.186   4.735  0.00  0.00    +0.003 A 
ATOM     29  C   UNL     1      -5.408 -11.630   4.242  0.00  0.00    +0.015 A 
BRANCH  27  33
ATOM      6  O   UNL     1      -2.709 -12.262   3.459  0.00  0.00    -0.245 OA
ATOM     33  C   UNL     1      -3.120 -12.476   4.608  0.00  0.00    +0.339 C 
BRANCH  33   5
ATOM      5  O   UNL     1      -2.422 -13.180   5.551  0.00  0.00    -0.461 OA
BRANCH   5  36
ATOM     36  C   UNL     1      -1.766 -14.374   5.112  0.00  0.00    +0.229 C 
ATOM     37  C   UNL     1      -0.291 -14.273   5.434  0.00  0.00    +0.048 C 
ENDBRANCH   5  36
ENDBRANCH  33   5
ENDBRANCH  27  33
ENDBRANCH   9  21
BRANCH  11  15
ATOM     15  C   UNL     1      -3.179  -9.780  10.378  0.00  0.00    +0.002 C 
ATOM     17  C   UNL     1      -3.764  -8.925   9.274  0.00  0.00    +0.004 C 
ENDBRANCH  11  15
BRANCH  10  16
ATOM     16  C   UNL     1      -2.289 -10.445  13.217  0.00  0.00    +0.099 C 
BRANCH  16  19
ATOM      2  O   UNL     1      -1.138 -11.045  15.259  0.00  0.00    -0.276 OA
ATOM      8  N   UNL     1      -3.363 -10.380  15.356  0.00  0.00    -0.311 N 
ATOM     19  C   UNL     1      -2.168 -10.664  14.711  0.00  0.00    +0.214 C 
ATOM     38  H   UNL     1      -4.155 -10.054  14.811  0.00  0.00    +0.149 HD
BRANCH   8  20
ATOM     20  C   UNL     1      -3.537 -10.504  16.785  0.00  0.00    +0.139 C 
BRANCH  20  22
ATOM     22  C   UNL     1      -4.974 -10.355  17.192  0.00  0.00    -0.027 A 
ATOM     25  C   UNL     1      -5.417 -10.894  18.400  0.00  0.00    +0.054 A 
ATOM     26  C   UNL     1      -5.868  -9.680  16.360  0.00  0.00    +0.009 A 
ATOM     30  C   UNL     1      -6.753 -10.757  18.777  0.00  0.00    +0.162 A 
ATOM     31  C   UNL     1      -7.203  -9.544  16.737  0.00  0.00    +0.050 A 
ATOM     32  C   UNL     1      -7.646 -10.082  17.946  0.00  0.00    +0.162 A 
BRANCH  30   3
ATOM      3  O   UNL     1      -7.173 -11.288  19.959  0.00  0.00    -0.491 OA
ATOM     34  C   UNL     1      -7.791 -12.573  19.909  0.00  0.00    +0.277 C 
ENDBRANCH  30   3
BRANCH  32   4
ATOM      4  O   UNL     1      -8.952  -9.941  18.303  0.00  0.00    -0.491 OA
ATOM     35  C   UNL     1      -9.933 -10.262  17.317  0.00  0.00    +0.277 C 
ENDBRANCH  32   4
ENDBRANCH  20  22
ENDBRANCH   8  20
ENDBRANCH  16  19
ENDBRANCH  10  16
TORSDOF 11
ENDMDL
MODEL 2
REMARK VINA RESULT:      -6.8      2.807      4.439
REMARK  Name = 11941199
REMARK  15 active torsions:
REMARK  status: ('A' for Active; 'I' for Inactive)
REMARK    1  A    between atoms: O_3  and  C_30
REMARK    2  A    between atoms: O_3  and  C_34
REMARK    3  A    between atoms: O_4  and  C_32
REMARK    4  A    between atoms: O_4  and  C_35
REMARK    5  A    between atoms: O_5  and  C_33
REMARK    6  A    between atoms: O_5  and  C_36
REMARK    7  A    between atoms: N_8  and  C_20
REMARK    8  A    between atoms: N_9  and  C_21
REMARK    9  A    between atoms: C_10  and  C_16
REMARK   10  A    between atoms: C_11  and  C_15
REMARK   11  A    between atoms: C_15  and  C_17
REMARK   12  A    between atoms: C_16  and  C_19
REMARK   13  A    between atoms: C_20  and  C_22
REMARK   14  A    between atoms: C_27  and  C_33
REMARK   15  A    between atoms: C_36  and  C_37
REMARK                            x       y       z     vdW  Elec       q    Type
REMARK                         _______ _______ _______ _____ _____    ______ ____
ROOT
ATOM      1  O   UNL     1      -7.575  -8.232   8.974  0.00  0.00    -0.252 OA
ATOM      7  N   UNL     1      -5.397  -8.705   9.589  0.00  0.00    -0.285 N 
ATOM      9  N   UNL     1      -6.094  -8.982   7.354  0.00  0.00    -0.269 N 
ATOM     10  C   UNL     1      -3.878 -10.056  11.648  0.00  0.00    +0.004 C 
ATOM     11  C   UNL     1      -3.620 -10.341  10.145  0.00  0.00    +0.010 C 
ATOM     12  C   UNL     1      -5.310  -9.547  11.897  0.00  0.00    +0.023 C 
ATOM     13  C   UNL     1      -4.010  -9.107   9.313  0.00  0.00    +0.113 C 
ATOM     14  C   UNL     1      -5.649  -8.364  10.990  0.00  0.00    +0.109 C 
ATOM     18  C   UNL     1      -6.444  -8.603   8.648  0.00  0.00    +0.306 C 
ATOM     39  H   UNL     1      -5.132  -8.863   7.058  0.00  0.00    +0.156 HD
ENDROOT
BRANCH   9  21
ATOM     21  C   UNL     1      -6.938  -9.548   6.365  0.00  0.00    +0.036 A 
ATOM     23  C   UNL     1      -7.244  -8.826   5.212  0.00  0.00    +0.038 A 
ATOM     24  C   UNL     1      -7.464 -10.827   6.547  0.00  0.00    +0.023 A 
ATOM     27  C   UNL     1      -8.076  -9.383   4.240  0.00  0.00    +0.061 A 
ATOM     28  C   UNL     1      -8.295 -11.385   5.577  0.00  0.00    +0.003 A 
ATOM     29  C   UNL     1      -8.600 -10.663   4.423  0.00  0.00    +0.015 A 
BRANCH  27  33
ATOM      6  O   UNL     1      -7.573  -8.336   2.158  0.00  0.00    -0.245 OA
ATOM     33  C   UNL     1      -8.394  -8.632   3.037  0.00  0.00    +0.339 C 
BRANCH  33   5
ATOM      5  O   UNL     1      -9.718  -8.288   2.994  0.00  0.00    -0.461 OA
BRANCH   5  36
ATOM     36  C   UNL     1     -10.060  -6.972   3.441  0.00  0.00    +0.229 C 
ATOM     37  C   UNL     1     -10.911  -7.082   4.688  0.00  0.00    +0.048 C 
ENDBRANCH   5  36
ENDBRANCH  33   5
ENDBRANCH  27  33
ENDBRANCH   9  21
BRANCH  11  15
ATOM     15  C   UNL     1      -4.332 -11.592   9.615  0.00  0.00    +0.002 C 
ATOM     17  C   UNL     1      -4.107 -11.761   8.128  0.00  0.00    +0.004 C 
ENDBRANCH  11  15
BRANCH  10  16
ATOM     16  C   UNL     1      -3.568 -11.253  12.548  0.00  0.00    +0.099 C 
BRANCH  16  19
ATOM      2  O   UNL     1      -1.771 -10.320  13.872  0.00  0.00    -0.276 OA
ATOM      8  N   UNL     1      -3.672 -11.131  14.936  0.00  0.00    -0.311 N 
ATOM     19  C   UNL     1      -2.882 -10.841  13.833  0.00  0.00    +0.214 C 
ATOM     38  H   UNL     1      -4.586 -11.548  14.795  0.00  0.00    +0.149 HD
BRANCH   8  20
ATOM     20  C   UNL     1      -3.266 -10.847  16.294  0.00  0.00    +0.139 C 
BRANCH  20  22
ATOM     22  C   UNL     1      -4.431 -10.847  17.240  0.00  0.00    -0.027 A 
ATOM     25  C   UNL     1      -5.568 -10.091  16.948  0.00  0.00    +0.054 A 
ATOM     26  C   UNL     1      -4.378 -11.600  18.413  0.00  0.00    +0.009 A 
ATOM     30  C   UNL     1      -6.650 -10.091  17.827  0.00  0.00    +0.162 A 
ATOM     31  C   UNL     1      -5.460 -11.598  19.292  0.00  0.00    +0.050 A 
ATOM     32  C   UNL     1      -6.596 -10.844  19.000  0.00  0.00    +0.162 A 
BRANCH  30   3
ATOM      3  O   UNL     1      -7.753  -9.349  17.531  0.00  0.00    -0.491 OA
ATOM     34  C   UNL     1      -8.587  -9.820  16.474  0.00  0.00    +0.277 C 
ENDBRANCH  30   3
BRANCH  32   4
ATOM      4  O   UNL     1      -7.646 -10.851  19.866  0.00  0.00    -0.491 OA
ATOM     35  C   UNL     1      -8.610 -11.891  19.709  0.00  0.00    +0.277 C 
ENDBRANCH  32   4
ENDBRANCH  20  22
ENDBRANCH   8  20
ENDBRANCH  16  19
ENDBRANCH  10  16
TORSDOF 11
ENDMDL
MODEL 3
REMARK VINA RESULT:      -6.8      2.375      3.286
REMARK  Name = 11941199
REMARK  15 active torsions:
REMARK  status: ('A' for Active; 'I' for Inactive)
REMARK    1  A    between atoms: O_3  and  C_30
REMARK    2  A    between atoms: O_3  and  C_34
REMARK    3  A    between atoms: O_4  and  C_32
REMARK    4  A    between atoms: O_4  and  C_35
REMARK    5  A    between atoms: O_5  and  C_33
REMARK    6  A    between atoms: O_5  and  C_36
REMARK    7  A    between atoms: N_8  and  C_20
REMARK    8  A    between atoms: N_9  and  C_21
REMARK    9  A    between atoms: C_10  and  C_16
REMARK   10  A    between atoms: C_11  and  C_15
REMARK   11  A    between atoms: C_15  and  C_17
REMARK   12  A    between atoms: C_16  and  C_19
REMARK   13  A    between atoms: C_20  and  C_22
REMARK   14  A    between atoms: C_27  and  C_33
REMARK   15  A    between atoms: C_36  and  C_37
REMARK                            x       y       z     vdW  Elec       q    Type
REMARK                         _______ _______ _______ _____ _____    ______ ____
ROOT
ATOM      1  O   UNL     1      -8.937  -9.769   9.976  0.00  0.00    -0.252 OA
ATOM      7  N   UNL     1      -6.987  -9.307  11.129  0.00  0.00    -0.285 N 
ATOM      9  N   UNL     1      -7.446  -8.234   9.080  0.00  0.00    -0.269 N 
ATOM     10  C   UNL     1      -4.831 -10.630  12.534  0.00  0.00    +0.004 C 
ATOM     11  C   UNL     1      -4.542  -9.581  11.427  0.00  0.00    +0.010 C 
ATOM     12  C   UNL     1      -6.207 -11.294  12.348  0.00  0.00    +0.023 C 
ATOM     13  C   UNL     1      -5.718  -8.594  11.335  0.00  0.00    +0.113 C 
ATOM     14  C   UNL     1      -7.316 -10.254  12.196  0.00  0.00    +0.109 C 
ATOM     18  C   UNL     1      -7.879  -9.138  10.048  0.00  0.00    +0.306 C 
ATOM     39  H   UNL     1      -6.844  -7.471   9.365  0.00  0.00    +0.156 HD
ENDROOT
BRANCH   9  21
ATOM     21  C   UNL     1      -7.738  -8.255   7.693  0.00  0.00    +0.036 A 
ATOM     23  C   UNL     1      -7.253  -9.290   6.893  0.00  0.00    +0.038 A 
ATOM     24  C   UNL     1      -8.510  -7.240   7.128  0.00  0.00    +0.023 A 
ATOM     27  C   UNL     1      -7.540  -9.309   5.528  0.00  0.00    +0.061 A 
ATOM     28  C   UNL     1      -8.798  -7.259   5.764  0.00  0.00    +0.003 A 
ATOM     29  C   UNL     1      -8.312  -8.294   4.964  0.00  0.00    +0.015 A 
BRANCH  27  33
ATOM      6  O   UNL     1      -7.015 -10.364   3.455  0.00  0.00    -0.245 OA
ATOM     33  C   UNL     1      -7.035 -10.388   4.694  0.00  0.00    +0.339 C 
BRANCH  33   5
ATOM      5  O   UNL     1      -6.582 -11.437   5.446  0.00  0.00    -0.461 OA
BRANCH   5  36
ATOM     36  C   UNL     1      -5.330 -12.015   5.063  0.00  0.00    +0.229 C 
ATOM     37  C   UNL     1      -4.327 -11.803   6.176  0.00  0.00    +0.048 C 
ENDBRANCH   5  36
ENDBRANCH  33   5
ENDBRANCH  27  33
ENDBRANCH   9  21
BRANCH  11  15
ATOM     15  C   UNL     1      -4.242 -10.190  10.053  0.00  0.00    +0.002 C 
ATOM     17  C   UNL     1      -4.073  -9.113   9.002  0.00  0.00    +0.004 C 
ENDBRANCH  11  15
BRANCH  10  16
ATOM     16  C   UNL     1      -3.733 -11.687  12.660  0.00  0.00    +0.099 C 
BRANCH  16  19
ATOM      2  O   UNL     1      -3.176 -13.090  14.550  0.00  0.00    -0.276 OA
ATOM      8  N   UNL     1      -3.282 -10.786  14.831  0.00  0.00    -0.311 N 
ATOM     19  C   UNL     1      -3.367 -11.963  14.103  0.00  0.00    +0.214 C 
ATOM     38  H   UNL     1      -3.443  -9.900  14.363  0.00  0.00    +0.149 HD
BRANCH   8  20
ATOM     20  C   UNL     1      -2.950 -10.750  16.238  0.00  0.00    +0.139 C 
BRANCH  20  22
ATOM     22  C   UNL     1      -4.175 -10.764  17.105  0.00  0.00    -0.027 A 
ATOM     25  C   UNL     1      -5.295 -10.014  16.742  0.00  0.00    +0.054 A 
ATOM     26  C   UNL     1      -4.194 -11.525  18.274  0.00  0.00    +0.009 A 
ATOM     30  C   UNL     1      -6.433 -10.027  17.548  0.00  0.00    +0.162 A 
ATOM     31  C   UNL     1      -5.332 -11.537  19.079  0.00  0.00    +0.050 A 
ATOM     32  C   UNL     1      -6.452 -10.787  18.717  0.00  0.00    +0.162 A 
BRANCH  30   3
ATOM      3  O   UNL     1      -7.520  -9.290  17.185  0.00  0.00    -0.491 OA
ATOM     34  C   UNL     1      -8.338  -9.815  16.141  0.00  0.00    +0.277 C 
ENDBRANCH  30   3
BRANCH  32   4
ATOM      4  O   UNL     1      -7.557 -10.808  19.512  0.00  0.00    -0.491 OA
ATOM     35  C   UNL     1      -8.212 -12.064  19.682  0.00  0.00    +0.277 C 
ENDBRANCH  32   4
ENDBRANCH  20  22
ENDBRANCH   8  20
ENDBRANCH  16  19
ENDBRANCH  10  16
TORSDOF 11
ENDMDL
MODEL 4
REMARK VINA RESULT:      -6.5     26.064     30.013
REMARK  Name = 11941199
REMARK  15 active torsions:
REMARK  status: ('A' for Active; 'I' for Inactive)
REMARK    1  A    between atoms: O_3  and  C_30
REMARK    2  A    between atoms: O_3  and  C_34
REMARK    3  A    between atoms: O_4  and  C_32
REMARK    4  A    between atoms: O_4  and  C_35
REMARK    5  A    between atoms: O_5  and  C_33
REMARK    6  A    between atoms: O_5  and  C_36
REMARK    7  A    between atoms: N_8  and  C_20
REMARK    8  A    between atoms: N_9  and  C_21
REMARK    9  A    between atoms: C_10  and  C_16
REMARK   10  A    between atoms: C_11  and  C_15
REMARK   11  A    between atoms: C_15  and  C_17
REMARK   12  A    between atoms: C_16  and  C_19
REMARK   13  A    between atoms: C_20  and  C_22
REMARK   14  A    between atoms: C_27  and  C_33
REMARK   15  A    between atoms: C_36  and  C_37
REMARK                            x       y       z     vdW  Elec       q    Type
REMARK                         _______ _______ _______ _____ _____    ______ ____
ROOT
ATOM      1  O   UNL     1      10.488   8.428  17.616  0.00  0.00    -0.252 OA
ATOM      7  N   UNL     1      12.626   8.842  16.840  0.00  0.00    -0.285 N 
ATOM      9  N   UNL     1      12.265   8.263  19.098  0.00  0.00    -0.269 N 
ATOM     10  C   UNL     1      14.112  10.721  15.217  0.00  0.00    +0.004 C 
ATOM     11  C   UNL     1      14.596  10.332  16.639  0.00  0.00    +0.010 C 
ATOM     12  C   UNL     1      12.592  10.536  15.059  0.00  0.00    +0.023 C 
ATOM     13  C   UNL     1      14.087   8.924  16.989  0.00  0.00    +0.113 C 
ATOM     14  C   UNL     1      12.150   9.137  15.488  0.00  0.00    +0.109 C 
ATOM     18  C   UNL     1      11.699   8.493  17.845  0.00  0.00    +0.306 C 
ATOM     39  H   UNL     1      13.217   7.917  19.142  0.00  0.00    +0.156 HD
ENDROOT
BRANCH   9  21
ATOM     21  C   UNL     1      11.665   8.475  20.365  0.00  0.00    +0.036 A 
ATOM     23  C   UNL     1      11.689   9.743  20.945  0.00  0.00    +0.038 A 
ATOM     24  C   UNL     1      11.052   7.414  21.031  0.00  0.00    +0.023 A 
ATOM     27  C   UNL     1      11.099   9.950  22.192  0.00  0.00    +0.061 A 
ATOM     28  C   UNL     1      10.462   7.621  22.277  0.00  0.00    +0.003 A 
ATOM     29  C   UNL     1      10.486   8.889  22.858  0.00  0.00    +0.015 A 
BRANCH  27  33
ATOM      6  O   UNL     1      11.154  12.333  22.160  0.00  0.00    -0.245 OA
ATOM     33  C   UNL     1      11.122  11.272  22.797  0.00  0.00    +0.339 C 
BRANCH  33   5
ATOM      5  O   UNL     1      11.106  11.201  24.163  0.00  0.00    -0.461 OA
BRANCH   5  36
ATOM     36  C   UNL     1      11.714  12.284  24.875  0.00  0.00    +0.229 C 
ATOM     37  C   UNL     1      10.630  13.106  25.540  0.00  0.00    +0.048 C 
ENDBRANCH   5  36
ENDBRANCH  33   5
ENDBRANCH  27  33
ENDBRANCH   9  21
BRANCH  11  15
ATOM     15  C   UNL     1      14.198  11.334  17.729  0.00  0.00    +0.002 C 
ATOM     17  C   UNL     1      14.755  10.926  19.077  0.00  0.00    +0.004 C 
ENDBRANCH  11  15
BRANCH  10  16
ATOM     16  C   UNL     1      14.529  12.133  14.806  0.00  0.00    +0.099 C 
BRANCH  16  19
ATOM      2  O   UNL     1      15.015  11.708  12.474  0.00  0.00    -0.276 OA
ATOM      8  N   UNL     1      13.503  13.381  13.039  0.00  0.00    -0.311 N 
ATOM     19  C   UNL     1      14.398  12.357  13.314  0.00  0.00    +0.214 C 
ATOM     38  H   UNL     1      13.031  13.846  13.808  0.00  0.00    +0.149 HD
BRANCH   8  20
ATOM     20  C   UNL     1      13.185  13.812  11.697  0.00  0.00    +0.139 C 
BRANCH  20  22
ATOM     22  C   UNL     1      12.137  12.944  11.062  0.00  0.00    -0.027 A 
ATOM     25  C   UNL     1      10.830  12.958  11.550  0.00  0.00    +0.054 A 
ATOM     26  C   UNL     1      12.471  12.122   9.986  0.00  0.00    +0.009 A 
ATOM     30  C   UNL     1       9.857  12.152  10.960  0.00  0.00    +0.162 A 
ATOM     31  C   UNL     1      11.498  11.315   9.397  0.00  0.00    +0.050 A 
ATOM     32  C   UNL     1      10.191  11.330   9.884  0.00  0.00    +0.162 A 
BRANCH  30   3
ATOM      3  O   UNL     1       8.584  12.174  11.446  0.00  0.00    -0.491 OA
ATOM     34  C   UNL     1       7.717  13.190  10.944  0.00  0.00    +0.277 C 
ENDBRANCH  30   3
BRANCH  32   4
ATOM      4  O   UNL     1       9.250  10.538   9.300  0.00  0.00    -0.491 OA
ATOM     35  C   UNL     1       9.606   9.902   8.073  0.00  0.00    +0.277 C 
ENDBRANCH  32   4
ENDBRANCH  20  22
ENDBRANCH   8  20
ENDBRANCH  16  19
ENDBRANCH  10  16
TORSDOF 11
ENDMDL
MODEL 5
REMARK VINA RESULT:      -6.4     21.421     24.043
REMARK  Name = 11941199
REMARK  15 active torsions:
REMARK  status: ('A' for Active; 'I' for Inactive)
REMARK    1  A    between atoms: O_3  and  C_30
REMARK    2  A    between atoms: O_3  and  C_34
REMARK    3  A    between atoms: O_4  and  C_32
REMARK    4  A    between atoms: O_4  and  C_35
REMARK    5  A    between atoms: O_5  and  C_33
REMARK    6  A    between atoms: O_5  and  C_36
REMARK    7  A    between atoms: N_8  and  C_20
REMARK    8  A    between atoms: N_9  and  C_21
REMARK    9  A    between atoms: C_10  and  C_16
REMARK   10  A    between atoms: C_11  and  C_15
REMARK   11  A    between atoms: C_15  and  C_17
REMARK   12  A    between atoms: C_16  and  C_19
REMARK   13  A    between atoms: C_20  and  C_22
REMARK   14  A    between atoms: C_27  and  C_33
REMARK   15  A    between atoms: C_36  and  C_37
REMARK                            x       y       z     vdW  Elec       q    Type
REMARK                         _______ _______ _______ _____ _____    ______ ____
ROOT
ATOM      1  O   UNL     1     -11.693   6.763  21.249  0.00  0.00    -0.252 OA
ATOM      7  N   UNL     1     -13.828   5.899  21.443  0.00  0.00    -0.285 N 
ATOM      9  N   UNL     1     -13.450   7.892  20.240  0.00  0.00    -0.269 N 
ATOM     10  C   UNL     1     -15.636   4.770  23.400  0.00  0.00    +0.004 C 
ATOM     11  C   UNL     1     -16.082   5.931  22.473  0.00  0.00    +0.010 C 
ATOM     12  C   UNL     1     -14.109   4.750  23.598  0.00  0.00    +0.023 C 
ATOM     13  C   UNL     1     -15.273   5.886  21.166  0.00  0.00    +0.113 C 
ATOM     14  C   UNL     1     -13.371   4.774  22.259  0.00  0.00    +0.109 C 
ATOM     18  C   UNL     1     -12.894   6.851  20.982  0.00  0.00    +0.306 C 
ATOM     39  H   UNL     1     -14.294   7.710  19.709  0.00  0.00    +0.156 HD
ENDROOT
BRANCH   9  21
ATOM     21  C   UNL     1     -12.979   9.225  20.141  0.00  0.00    +0.036 A 
ATOM     23  C   UNL     1     -12.199   9.610  19.050  0.00  0.00    +0.038 A 
ATOM     24  C   UNL     1     -13.294  10.152  21.135  0.00  0.00    +0.023 A 
ATOM     27  C   UNL     1     -11.734  10.922  18.954  0.00  0.00    +0.061 A 
ATOM     28  C   UNL     1     -12.830  11.463  21.039  0.00  0.00    +0.003 A 
ATOM     29  C   UNL     1     -12.050  11.848  19.948  0.00  0.00    +0.015 A 
BRANCH  27  33
ATOM      6  O   UNL     1      -9.995  12.144  17.874  0.00  0.00    -0.245 OA
ATOM     33  C   UNL     1     -10.922  11.324  17.817  0.00  0.00    +0.339 C 
BRANCH  33   5
ATOM      5  O   UNL     1     -11.307  10.684  16.671  0.00  0.00    -0.461 OA
BRANCH   5  36
ATOM     36  C   UNL     1     -10.293   9.969  15.957  0.00  0.00    +0.229 C 
ATOM     37  C   UNL     1     -10.715   8.522  15.818  0.00  0.00    +0.048 C 
ENDBRANCH   5  36
ENDBRANCH  33   5
ENDBRANCH  27  33
ENDBRANCH   9  21
BRANCH  11  15
ATOM     15  C   UNL     1     -15.984   7.319  23.118  0.00  0.00    +0.002 C 
ATOM     17  C   UNL     1     -16.470   8.397  22.173  0.00  0.00    +0.004 C 
ENDBRANCH  11  15
BRANCH  10  16
ATOM     16  C   UNL     1     -16.354   4.769  24.750  0.00  0.00    +0.099 C 
BRANCH  16  19
ATOM      2  O   UNL     1     -16.042   2.382  24.991  0.00  0.00    -0.276 OA
ATOM      8  N   UNL     1     -16.022   3.733  26.882  0.00  0.00    -0.311 N 
ATOM     19  C   UNL     1     -16.124   3.487  25.521  0.00  0.00    +0.214 C 
ATOM     38  H   UNL     1     -16.087   4.689  27.219  0.00  0.00    +0.149 HD
BRANCH   8  20
ATOM     20  C   UNL     1     -15.803   2.690  27.859  0.00  0.00    +0.139 C 
BRANCH  20  22
ATOM     22  C   UNL     1     -15.500   3.249  29.219  0.00  0.00    -0.027 A 
ATOM     25  C   UNL     1     -14.805   2.477  30.151  0.00  0.00    +0.054 A 
ATOM     26  C   UNL     1     -15.914   4.538  29.551  0.00  0.00    +0.009 A 
ATOM     30  C   UNL     1     -14.524   2.996  31.415  0.00  0.00    +0.162 A 
ATOM     31  C   UNL     1     -15.633   5.056  30.815  0.00  0.00    +0.050 A 
ATOM     32  C   UNL     1     -14.939   4.285  31.747  0.00  0.00    +0.162 A 
BRANCH  30   3
ATOM      3  O   UNL     1     -13.846   2.233  32.317  0.00  0.00    -0.491 OA
ATOM     34  C   UNL     1     -14.626   1.486  33.249  0.00  0.00    +0.277 C 
ENDBRANCH  30   3
BRANCH  32   4
ATOM      4  O   UNL     1     -14.671   4.803  32.978  0.00  0.00    -0.491 OA
ATOM     35  C   UNL     1     -14.332   6.187  33.040  0.00  0.00    +0.277 C 
ENDBRANCH  32   4
ENDBRANCH  20  22
ENDBRANCH   8  20
ENDBRANCH  16  19
ENDBRANCH  10  16
TORSDOF 11
ENDMDL
MODEL 6
REMARK VINA RESULT:      -6.3     23.856     28.193
REMARK  Name = 11941199
REMARK  15 active torsions:
REMARK  status: ('A' for Active; 'I' for Inactive)
REMARK    1  A    between atoms: O_3  and  C_30
REMARK    2  A    between atoms: O_3  and  C_34
REMARK    3  A    between atoms: O_4  and  C_32
REMARK    4  A    between atoms: O_4  and  C_35
REMARK    5  A    between atoms: O_5  and  C_33
REMARK    6  A    between atoms: O_5  and  C_36
REMARK    7  A    between atoms: N_8  and  C_20
REMARK    8  A    between atoms: N_9  and  C_21
REMARK    9  A    between atoms: C_10  and  C_16
REMARK   10  A    between atoms: C_11  and  C_15
REMARK   11  A    between atoms: C_15  and  C_17
REMARK   12  A    between atoms: C_16  and  C_19
REMARK   13  A    between atoms: C_20  and  C_22
REMARK   14  A    between atoms: C_27  and  C_33
REMARK   15  A    between atoms: C_36  and  C_37
REMARK                            x       y       z     vdW  Elec       q    Type
REMARK                         _______ _______ _______ _____ _____    ______ ____
ROOT
ATOM      1  O   UNL     1       8.614   7.621   8.263  0.00  0.00    -0.252 OA
ATOM      7  N   UNL     1      10.214   7.027   6.703  0.00  0.00    -0.285 N 
ATOM      9  N   UNL     1      10.355   9.093   7.832  0.00  0.00    -0.269 N 
ATOM     10  C   UNL     1      10.467   5.901   4.050  0.00  0.00    +0.004 C 
ATOM     11  C   UNL     1      11.187   7.222   4.432  0.00  0.00    +0.010 C 
ATOM     12  C   UNL     1       9.222   5.654   4.921  0.00  0.00    +0.023 C 
ATOM     13  C   UNL     1      11.456   7.241   5.946  0.00  0.00    +0.113 C 
ATOM     14  C   UNL     1       9.552   5.756   6.410  0.00  0.00    +0.109 C 
ATOM     18  C   UNL     1       9.654   7.901   7.661  0.00  0.00    +0.306 C 
ATOM     39  H   UNL     1      11.354   9.095   7.667  0.00  0.00    +0.156 HD
ENDROOT
BRANCH   9  21
ATOM     21  C   UNL     1       9.827  10.354   8.208  0.00  0.00    +0.036 A 
ATOM     23  C   UNL     1       9.822  10.736   9.550  0.00  0.00    +0.038 A 
ATOM     24  C   UNL     1       9.312  11.212   7.236  0.00  0.00    +0.023 A 
ATOM     27  C   UNL     1       9.302  11.977   9.919  0.00  0.00    +0.061 A 
ATOM     28  C   UNL     1       8.792  12.452   7.605  0.00  0.00    +0.003 A 
ATOM     29  C   UNL     1       8.787  12.834   8.947  0.00  0.00    +0.015 A 
BRANCH  27  33
ATOM      6  O   UNL     1       8.320  12.274  12.071  0.00  0.00    -0.245 OA
ATOM     33  C   UNL     1       9.297  12.377  11.317  0.00  0.00    +0.339 C 
BRANCH  33   5
ATOM      5  O   UNL     1      10.509  12.883  11.700  0.00  0.00    -0.461 OA
BRANCH   5  36
ATOM     36  C   UNL     1      11.239  12.140  12.683  0.00  0.00    +0.229 C 
ATOM     37  C   UNL     1      12.399  12.979  13.173  0.00  0.00    +0.048 C 
ENDBRANCH   5  36
ENDBRANCH  33   5
ENDBRANCH  27  33
ENDBRANCH   9  21
BRANCH  11  15
ATOM     15  C   UNL     1      10.436   8.488   4.003  0.00  0.00    +0.002 C 
ATOM     17  C   UNL     1      11.227   9.734   4.343  0.00  0.00    +0.004 C 
ENDBRANCH  11  15
BRANCH  10  16
ATOM     16  C   UNL     1      10.111   5.819   2.565  0.00  0.00    +0.099 C 
BRANCH  16  19
ATOM      2  O   UNL     1      10.018   3.894   1.103  0.00  0.00    -0.276 OA
ATOM      8  N   UNL     1      11.935   4.282   2.360  0.00  0.00    -0.311 N 
ATOM     19  C   UNL     1      10.651   4.563   1.915  0.00  0.00    +0.214 C 
ATOM     38  H   UNL     1      12.379   4.910   3.022  0.00  0.00    +0.149 HD
BRANCH   8  20
ATOM     20  C   UNL     1      12.694   3.139   1.906  0.00  0.00    +0.139 C 
BRANCH  20  22
ATOM     22  C   UNL     1      13.702   3.513   0.859  0.00  0.00    -0.027 A 
ATOM     25  C   UNL     1      13.302   3.670  -0.469  0.00  0.00    +0.054 A 
ATOM     26  C   UNL     1      15.038   3.703   1.212  0.00  0.00    +0.009 A 
ATOM     30  C   UNL     1      14.239   4.017  -1.443  0.00  0.00    +0.162 A 
ATOM     31  C   UNL     1      15.973   4.050   0.238  0.00  0.00    +0.050 A 
ATOM     32  C   UNL     1      15.575   4.207  -1.089  0.00  0.00    +0.162 A 
BRANCH  30   3
ATOM      3  O   UNL     1      13.837   4.166  -2.736  0.00  0.00    -0.491 OA
ATOM     34  C   UNL     1      12.504   4.625  -2.951  0.00  0.00    +0.277 C 
ENDBRANCH  30   3
BRANCH  32   4
ATOM      4  O   UNL     1      16.498   4.547  -2.030  0.00  0.00    -0.491 OA
ATOM     35  C   UNL     1      17.320   5.680  -1.754  0.00  0.00    +0.277 C 
ENDBRANCH  32   4
ENDBRANCH  20  22
ENDBRANCH   8  20
ENDBRANCH  16  19
ENDBRANCH  10  16
TORSDOF 11
ENDMDL
MODEL 7
REMARK VINA RESULT:      -6.2     28.372     31.742
REMARK  Name = 11941199
REMARK  15 active torsions:
REMARK  status: ('A' for Active; 'I' for Inactive)
REMARK    1  A    between atoms: O_3  and  C_30
REMARK    2  A    between atoms: O_3  and  C_34
REMARK    3  A    between atoms: O_4  and  C_32
REMARK    4  A    between atoms: O_4  and  C_35
REMARK    5  A    between atoms: O_5  and  C_33
REMARK    6  A    between atoms: O_5  and  C_36
REMARK    7  A    between atoms: N_8  and  C_20
REMARK    8  A    between atoms: N_9  and  C_21
REMARK    9  A    between atoms: C_10  and  C_16
REMARK   10  A    between atoms: C_11  and  C_15
REMARK   11  A    between atoms: C_15  and  C_17
REMARK   12  A    between atoms: C_16  and  C_19
REMARK   13  A    between atoms: C_20  and  C_22
REMARK   14  A    between atoms: C_27  and  C_33
REMARK   15  A    between atoms: C_36  and  C_37
REMARK                            x       y       z     vdW  Elec       q    Type
REMARK                         _______ _______ _______ _____ _____    ______ ____
ROOT
ATOM      1  O   UNL     1      19.134   9.641  21.430  0.00  0.00    -0.252 OA
ATOM      7  N   UNL     1      17.481   8.026  21.388  0.00  0.00    -0.285 N 
ATOM      9  N   UNL     1      19.742   7.414  21.659  0.00  0.00    -0.269 N 
ATOM     10  C   UNL     1      15.113   7.260  19.911  0.00  0.00    +0.004 C 
ATOM     11  C   UNL     1      16.244   6.237  20.198  0.00  0.00    +0.010 C 
ATOM     12  C   UNL     1      15.637   8.708  19.912  0.00  0.00    +0.023 C 
ATOM     13  C   UNL     1      16.990   6.642  21.480  0.00  0.00    +0.113 C 
ATOM     14  C   UNL     1      16.424   9.018  21.185  0.00  0.00    +0.109 C 
ATOM     18  C   UNL     1      18.823   8.449  21.499  0.00  0.00    +0.306 C 
ATOM     39  H   UNL     1      19.439   6.564  22.118  0.00  0.00    +0.156 HD
ENDROOT
BRANCH   9  21
ATOM     21  C   UNL     1      21.094   7.391  21.231  0.00  0.00    +0.036 A 
ATOM     23  C   UNL     1      21.624   8.477  20.534  0.00  0.00    +0.038 A 
ATOM     24  C   UNL     1      21.893   6.282  21.507  0.00  0.00    +0.023 A 
ATOM     27  C   UNL     1      22.953   8.454  20.113  0.00  0.00    +0.061 A 
ATOM     28  C   UNL     1      23.222   6.258  21.087  0.00  0.00    +0.003 A 
ATOM     29  C   UNL     1      23.752   7.345  20.390  0.00  0.00    +0.015 A 
BRANCH  27  33
ATOM      6  O   UNL     1      24.193  10.479  19.902  0.00  0.00    -0.245 OA
ATOM     33  C   UNL     1      23.507   9.586  19.387  0.00  0.00    +0.339 C 
BRANCH  33   5
ATOM      5  O   UNL     1      23.175   9.544  18.061  0.00  0.00    -0.461 OA
BRANCH   5  36
ATOM     36  C   UNL     1      23.603  10.646  17.252  0.00  0.00    +0.229 C 
ATOM     37  C   UNL     1      24.250  10.110  15.993  0.00  0.00    +0.048 C 
ENDBRANCH   5  36
ENDBRANCH  33   5
ENDBRANCH  27  33
ENDBRANCH   9  21
BRANCH  11  15
ATOM     15  C   UNL     1      17.229   6.054  19.038  0.00  0.00    +0.002 C 
ATOM     17  C   UNL     1      18.419   5.218  19.458  0.00  0.00    +0.004 C 
ENDBRANCH  11  15
BRANCH  10  16
ATOM     16  C   UNL     1      14.349   6.965  18.620  0.00  0.00    +0.099 C 
BRANCH  16  19
ATOM      2  O   UNL     1      12.133   7.390  17.748  0.00  0.00    -0.276 OA
ATOM      8  N   UNL     1      12.541   7.673  20.019  0.00  0.00    -0.311 N 
ATOM     19  C   UNL     1      12.891   7.358  18.714  0.00  0.00    +0.214 C 
ATOM     38  H   UNL     1      13.240   7.599  20.751  0.00  0.00    +0.149 HD
BRANCH   8  20
ATOM     20  C   UNL     1      11.209   8.085  20.401  0.00  0.00    +0.139 C 
BRANCH  20  22
ATOM     22  C   UNL     1      11.228   9.303  21.279  0.00  0.00    -0.027 A 
ATOM     25  C   UNL     1      11.758  10.501  20.799  0.00  0.00    +0.054 A 
ATOM     26  C   UNL     1      10.718   9.236  22.576  0.00  0.00    +0.009 A 
ATOM     30  C   UNL     1      11.777  11.632  21.615  0.00  0.00    +0.162 A 
ATOM     31  C   UNL     1      10.737  10.367  23.391  0.00  0.00    +0.050 A 
ATOM     32  C   UNL     1      11.266  11.565  22.911  0.00  0.00    +0.162 A 
BRANCH  30   3
ATOM      3  O   UNL     1      12.298  12.795  21.136  0.00  0.00    -0.491 OA
ATOM     34  C   UNL     1      13.720  12.908  21.115  0.00  0.00    +0.277 C 
ENDBRANCH  30   3
BRANCH  32   4
ATOM      4  O   UNL     1      11.278  12.662  23.718  0.00  0.00    -0.491 OA
ATOM     35  C   UNL     1      10.760  12.504  25.038  0.00  0.00    +0.277 C 
ENDBRANCH  32   4
ENDBRANCH  20  22
ENDBRANCH   8  20
ENDBRANCH  16  19
ENDBRANCH  10  16
TORSDOF 11
ENDMDL
MODEL 8
REMARK VINA RESULT:      -6.2     25.532     29.025
REMARK  Name = 11941199
REMARK  15 active torsions:
REMARK  status: ('A' for Active; 'I' for Inactive)
REMARK    1  A    between atoms: O_3  and  C_30
REMARK    2  A    between atoms: O_3  and  C_34
REMARK    3  A    between atoms: O_4  and  C_32
REMARK    4  A    between atoms: O_4  and  C_35
REMARK    5  A    between atoms: O_5  and  C_33
REMARK    6  A    between atoms: O_5  and  C_36
REMARK    7  A    between atoms: N_8  and  C_20
REMARK    8  A    between atoms: N_9  and  C_21
REMARK    9  A    between atoms: C_10  and  C_16
REMARK   10  A    between atoms: C_11  and  C_15
REMARK   11  A    between atoms: C_15  and  C_17
REMARK   12  A    between atoms: C_16  and  C_19
REMARK   13  A    between atoms: C_20  and  C_22
REMARK   14  A    between atoms: C_27  and  C_33
REMARK   15  A    between atoms: C_36  and  C_37
REMARK                            x       y       z     vdW  Elec       q    Type
REMARK                         _______ _______ _______ _____ _____    ______ ____
ROOT
ATOM      1  O   UNL     1      10.871   3.651   1.561  0.00  0.00    -0.252 OA
ATOM      7  N   UNL     1      13.141   4.076   1.454  0.00  0.00    -0.285 N 
ATOM      9  N   UNL     1      11.824   5.037   3.158  0.00  0.00    -0.269 N 
ATOM     10  C   UNL     1      15.218   4.773  -0.436  0.00  0.00    +0.004 C 
ATOM     11  C   UNL     1      15.029   5.576   0.879  0.00  0.00    +0.010 C 
ATOM     12  C   UNL     1      13.915   4.084  -0.879  0.00  0.00    +0.023 C 
ATOM     13  C   UNL     1      14.393   4.671   1.947  0.00  0.00    +0.113 C 
ATOM     14  C   UNL     1      13.305   3.257   0.253  0.00  0.00    +0.109 C 
ATOM     18  C   UNL     1      11.862   4.210   2.038  0.00  0.00    +0.306 C 
ATOM     39  H   UNL     1      12.655   5.112   3.734  0.00  0.00    +0.156 HD
ENDROOT
BRANCH   9  21
ATOM     21  C   UNL     1      10.736   5.830   3.605  0.00  0.00    +0.036 A 
ATOM     23  C   UNL     1      10.348   5.790   4.944  0.00  0.00    +0.038 A 
ATOM     24  C   UNL     1      10.055   6.648   2.705  0.00  0.00    +0.023 A 
ATOM     27  C   UNL     1       9.277   6.569   5.383  0.00  0.00    +0.061 A 
ATOM     28  C   UNL     1       8.985   7.428   3.143  0.00  0.00    +0.003 A 
ATOM     29  C   UNL     1       8.596   7.388   4.483  0.00  0.00    +0.015 A 
BRANCH  27  33
ATOM      6  O   UNL     1       8.188   7.399   7.335  0.00  0.00    -0.245 OA
ATOM     33  C   UNL     1       8.872   6.529   6.779  0.00  0.00    +0.339 C 
BRANCH  33   5
ATOM      5  O   UNL     1       9.341   5.408   7.407  0.00  0.00    -0.461 OA
BRANCH   5  36
ATOM     36  C   UNL     1       9.944   5.591   8.693  0.00  0.00    +0.229 C 
ATOM     37  C   UNL     1       9.290   4.650   9.682  0.00  0.00    +0.048 C 
ENDBRANCH   5  36
ENDBRANCH  33   5
ENDBRANCH  27  33
ENDBRANCH   9  21
BRANCH  11  15
ATOM     15  C   UNL     1      14.214   6.864   0.712  0.00  0.00    +0.002 C 
ATOM     17  C   UNL     1      14.068   7.593   2.030  0.00  0.00    +0.004 C 
ENDBRANCH  11  15
BRANCH  10  16
ATOM     16  C   UNL     1      15.798   5.613  -1.574  0.00  0.00    +0.099 C 
BRANCH  16  19
ATOM      2  O   UNL     1      18.187   5.233  -1.539  0.00  0.00    -0.276 OA
ATOM      8  N   UNL     1      17.347   7.284  -0.840  0.00  0.00    -0.311 N 
ATOM     19  C   UNL     1      17.244   5.990  -1.329  0.00  0.00    +0.214 C 
ATOM     38  H   UNL     1      16.505   7.837  -0.716  0.00  0.00    +0.149 HD
BRANCH   8  20
ATOM     20  C   UNL     1      18.611   7.906  -0.515  0.00  0.00    +0.139 C 
BRANCH  20  22
ATOM     22  C   UNL     1      18.834   7.985   0.967  0.00  0.00    -0.027 A 
ATOM     25  C   UNL     1      20.110   7.780   1.493  0.00  0.00    +0.054 A 
ATOM     26  C   UNL     1      17.764   8.260   1.819  0.00  0.00    +0.009 A 
ATOM     30  C   UNL     1      20.317   7.853   2.870  0.00  0.00    +0.162 A 
ATOM     31  C   UNL     1      17.972   8.332   3.196  0.00  0.00    +0.050 A 
ATOM     32  C   UNL     1      19.247   8.128   3.722  0.00  0.00    +0.162 A 
BRANCH  30   3
ATOM      3  O   UNL     1      21.567   7.650   3.372  0.00  0.00    -0.491 OA
ATOM     34  C   UNL     1      21.845   6.361   3.917  0.00  0.00    +0.277 C 
ENDBRANCH  30   3
BRANCH  32   4
ATOM      4  O   UNL     1      19.436   8.202   5.069  0.00  0.00    -0.491 OA
ATOM     35  C   UNL     1      18.907   9.345   5.738  0.00  0.00    +0.277 C 
ENDBRANCH  32   4
ENDBRANCH  20  22
ENDBRANCH   8  20
ENDBRANCH  16  19
ENDBRANCH  10  16
TORSDOF 11
ENDMDL
MODEL 9
REMARK VINA RESULT:      -6.2     21.951     24.312
REMARK  Name = 11941199
REMARK  15 active torsions:
REMARK  status: ('A' for Active; 'I' for Inactive)
REMARK    1  A    between atoms: O_3  and  C_30
REMARK    2  A    between atoms: O_3  and  C_34
REMARK    3  A    between atoms: O_4  and  C_32
REMARK    4  A    between atoms: O_4  and  C_35
REMARK    5  A    between atoms: O_5  and  C_33
REMARK    6  A    between atoms: O_5  and  C_36
REMARK    7  A    between atoms: N_8  and  C_20
REMARK    8  A    between atoms: N_9  and  C_21
REMARK    9  A    between atoms: C_10  and  C_16
REMARK   10  A    between atoms: C_11  and  C_15
REMARK   11  A    between atoms: C_15  and  C_17
REMARK   12  A    between atoms: C_16  and  C_19
REMARK   13  A    between atoms: C_20  and  C_22
REMARK   14  A    between atoms: C_27  and  C_33
REMARK   15  A    between atoms: C_36  and  C_37
REMARK                            x       y       z     vdW  Elec       q    Type
REMARK                         _______ _______ _______ _____ _____    ______ ____
ROOT
ATOM      1  O   UNL     1     -11.714   7.068  21.199  0.00  0.00    -0.252 OA
ATOM      7  N   UNL     1     -13.785   6.070  21.441  0.00  0.00    -0.285 N 
ATOM      9  N   UNL     1     -13.577   8.134  20.319  0.00  0.00    -0.269 N 
ATOM     10  C   UNL     1     -15.435   4.748  23.417  0.00  0.00    +0.004 C 
ATOM     11  C   UNL     1     -15.989   5.921  22.565  0.00  0.00    +0.010 C 
ATOM     12  C   UNL     1     -13.902   4.811  23.549  0.00  0.00    +0.023 C 
ATOM     13  C   UNL     1     -15.238   5.984  21.225  0.00  0.00    +0.113 C 
ATOM     14  C   UNL     1     -13.228   4.939  22.183  0.00  0.00    +0.109 C 
ATOM     18  C   UNL     1     -12.929   7.096  20.987  0.00  0.00    +0.306 C 
ATOM     39  H   UNL     1     -14.432   7.926  19.816  0.00  0.00    +0.156 HD
ENDROOT
BRANCH   9  21
ATOM     21  C   UNL     1     -13.188   9.496  20.264  0.00  0.00    +0.036 A 
ATOM     23  C   UNL     1     -12.271   9.921  19.302  0.00  0.00    +0.038 A 
ATOM     24  C   UNL     1     -13.722  10.411  21.171  0.00  0.00    +0.023 A 
ATOM     27  C   UNL     1     -11.888  11.261  19.249  0.00  0.00    +0.061 A 
ATOM     28  C   UNL     1     -13.340  11.751  21.118  0.00  0.00    +0.003 A 
ATOM     29  C   UNL     1     -12.423  12.176  20.156  0.00  0.00    +0.015 A 
BRANCH  27  33
ATOM      6  O   UNL     1      -9.849  11.150  18.018  0.00  0.00    -0.245 OA
ATOM     33  C   UNL     1     -10.933  11.705  18.247  0.00  0.00    +0.339 C 
BRANCH  33   5
ATOM      5  O   UNL     1     -11.377  12.816  17.585  0.00  0.00    -0.461 OA
BRANCH   5  36
ATOM     36  C   UNL     1     -10.470  13.920  17.489  0.00  0.00    +0.229 C 
ATOM     37  C   UNL     1     -11.059  15.107  18.219  0.00  0.00    +0.048 C 
ENDBRANCH   5  36
ENDBRANCH  33   5
ENDBRANCH  27  33
ENDBRANCH   9  21
BRANCH  11  15
ATOM     15  C   UNL     1     -15.943   7.282  23.271  0.00  0.00    +0.002 C 
ATOM     17  C   UNL     1     -17.280   7.987  23.186  0.00  0.00    +0.004 C 
ENDBRANCH  11  15
BRANCH  10  16
ATOM     16  C   UNL     1     -16.091   4.644  24.794  0.00  0.00    +0.099 C 
BRANCH  16  19
ATOM      2  O   UNL     1     -16.171   2.243  24.508  0.00  0.00    -0.276 OA
ATOM      8  N   UNL     1     -16.378   3.147  26.639  0.00  0.00    -0.311 N 
ATOM     19  C   UNL     1     -16.213   3.210  25.263  0.00  0.00    +0.214 C 
ATOM     38  H   UNL     1     -16.382   4.007  27.178  0.00  0.00    +0.149 HD
BRANCH   8  20
ATOM     20  C   UNL     1     -16.522   1.902  27.360  0.00  0.00    +0.139 C 
BRANCH  20  22
ATOM     22  C   UNL     1     -15.821   1.937  28.687  0.00  0.00    -0.027 A 
ATOM     25  C   UNL     1     -15.523   3.161  29.287  0.00  0.00    +0.054 A 
ATOM     26  C   UNL     1     -15.466   0.746  29.320  0.00  0.00    +0.009 A 
ATOM     30  C   UNL     1     -14.871   3.193  30.519  0.00  0.00    +0.162 A 
ATOM     31  C   UNL     1     -14.814   0.779  30.552  0.00  0.00    +0.050 A 
ATOM     32  C   UNL     1     -14.516   2.002  31.152  0.00  0.00    +0.162 A 
BRANCH  30   3
ATOM      3  O   UNL     1     -14.584   4.395  31.094  0.00  0.00    -0.491 OA
ATOM     34  C   UNL     1     -15.618   5.008  31.863  0.00  0.00    +0.277 C 
ENDBRANCH  30   3
BRANCH  32   4
ATOM      4  O   UNL     1     -13.879   2.020  32.355  0.00  0.00    -0.491 OA
ATOM     35  C   UNL     1     -14.619   1.568  33.488  0.00  0.00    +0.277 C 
ENDBRANCH  32   4
ENDBRANCH  20  22
ENDBRANCH   8  20
ENDBRANCH  16  19
ENDBRANCH  10  16
TORSDOF 11
ENDMDL
MODEL 10
REMARK VINA RESULT:      -6.1      4.089      5.971
REMARK  Name = 11941199
REMARK  15 active torsions:
REMARK  status: ('A' for Active; 'I' for Inactive)
REMARK    1  A    between atoms: O_3  and  C_30
REMARK    2  A    between atoms: O_3  and  C_34
REMARK    3  A    between atoms: O_4  and  C_32
REMARK    4  A    between atoms: O_4  and  C_35
REMARK    5  A    between atoms: O_5  and  C_33
REMARK    6  A    between atoms: O_5  and  C_36
REMARK    7  A    between atoms: N_8  and  C_20
REMARK    8  A    between atoms: N_9  and  C_21
REMARK    9  A    between atoms: C_10  and  C_16
REMARK   10  A    between atoms: C_11  and  C_15
REMARK   11  A    between atoms: C_15  and  C_17
REMARK   12  A    between atoms: C_16  and  C_19
REMARK   13  A    between atoms: C_20  and  C_22
REMARK   14  A    between atoms: C_27  and  C_33
REMARK   15  A    between atoms: C_36  and  C_37
REMARK                            x       y       z     vdW  Elec       q    Type
REMARK                         _______ _______ _______ _____ _____    ______ ____
ROOT
ATOM      1  O   UNL     1      -5.413  -7.402   9.551  0.00  0.00    -0.252 OA
ATOM      7  N   UNL     1      -4.494  -9.520   9.436  0.00  0.00    -0.285 N 
ATOM      9  N   UNL     1      -6.405  -8.977   8.167  0.00  0.00    -0.269 N 
ATOM     10  C   UNL     1      -3.451 -11.621  11.131  0.00  0.00    +0.004 C 
ATOM     11  C   UNL     1      -4.526 -11.921  10.053  0.00  0.00    +0.010 C 
ATOM     12  C   UNL     1      -3.496 -10.153  11.592  0.00  0.00    +0.023 C 
ATOM     13  C   UNL     1      -4.413 -10.893   8.914  0.00  0.00    +0.113 C 
ATOM     14  C   UNL     1      -3.448  -9.191  10.405  0.00  0.00    +0.109 C 
ATOM     18  C   UNL     1      -5.441  -8.539   9.073  0.00  0.00    +0.306 C 
ATOM     39  H   UNL     1      -6.158  -9.710   7.513  0.00  0.00    +0.156 HD
ENDROOT
BRANCH   9  21
ATOM     21  C   UNL     1      -7.743  -8.522   8.048  0.00  0.00    +0.036 A 
ATOM     23  C   UNL     1      -8.063  -7.205   8.378  0.00  0.00    +0.038 A 
ATOM     24  C   UNL     1      -8.738  -9.392   7.603  0.00  0.00    +0.023 A 
ATOM     27  C   UNL     1      -9.380  -6.758   8.262  0.00  0.00    +0.061 A 
ATOM     28  C   UNL     1     -10.054  -8.945   7.486  0.00  0.00    +0.003 A 
ATOM     29  C   UNL     1     -10.375  -7.628   7.816  0.00  0.00    +0.015 A 
BRANCH  27  33
ATOM      6  O   UNL     1      -8.902  -4.451   8.625  0.00  0.00    -0.245 OA
ATOM     33  C   UNL     1      -9.715  -5.385   8.604  0.00  0.00    +0.339 C 
BRANCH  33   5
ATOM      5  O   UNL     1     -11.043  -5.250   8.902  0.00  0.00    -0.461 OA
BRANCH   5  36
ATOM     36  C   UNL     1     -11.548  -3.915   9.018  0.00  0.00    +0.229 C 
ATOM     37  C   UNL     1     -11.928  -3.657  10.461  0.00  0.00    +0.048 C 
ENDBRANCH   5  36
ENDBRANCH  33   5
ENDBRANCH  27  33
ENDBRANCH   9  21
BRANCH  11  15
ATOM     15  C   UNL     1      -5.959 -11.966  10.596  0.00  0.00    +0.002 C 
ATOM     17  C   UNL     1      -6.952 -12.271   9.494  0.00  0.00    +0.004 C 
ENDBRANCH  11  15
BRANCH  10  16
ATOM     16  C   UNL     1      -3.525 -12.566  12.331  0.00  0.00    +0.099 C 
BRANCH  16  19
ATOM      2  O   UNL     1      -1.534 -12.143  13.639  0.00  0.00    -0.276 OA
ATOM      8  N   UNL     1      -3.599 -11.443  14.444  0.00  0.00    -0.311 N 
ATOM     19  C   UNL     1      -2.752 -12.041  13.522  0.00  0.00    +0.214 C 
ATOM     38  H   UNL     1      -4.593 -11.395  14.245  0.00  0.00    +0.149 HD
BRANCH   8  20
ATOM     20  C   UNL     1      -3.132 -10.856  15.679  0.00  0.00    +0.139 C 
BRANCH  20  22
ATOM     22  C   UNL     1      -4.208 -10.818  16.725  0.00  0.00    -0.027 A 
ATOM     25  C   UNL     1      -5.342 -10.028  16.531  0.00  0.00    +0.054 A 
ATOM     26  C   UNL     1      -4.074 -11.571  17.891  0.00  0.00    +0.009 A 
ATOM     30  C   UNL     1      -6.342  -9.993  17.503  0.00  0.00    +0.162 A 
ATOM     31  C   UNL     1      -5.074 -11.535  18.863  0.00  0.00    +0.050 A 
ATOM     32  C   UNL     1      -6.207 -10.746  18.670  0.00  0.00    +0.162 A 
BRANCH  30   3
ATOM      3  O   UNL     1      -7.444  -9.217  17.304  0.00  0.00    -0.491 OA
ATOM     34  C   UNL     1      -8.320  -9.597  16.243  0.00  0.00    +0.277 C 
ENDBRANCH  30   3
BRANCH  32   4
ATOM      4  O   UNL     1      -7.176 -10.720  19.626  0.00  0.00    -0.491 OA
ATOM     35  C   UNL     1      -8.086 -11.818  19.659  0.00  0.00    +0.277 C 
ENDBRANCH  32   4
ENDBRANCH  20  22
ENDBRANCH   8  20
ENDBRANCH  16  19
ENDBRANCH  10  16
TORSDOF 11
ENDMDL
