MODEL 1
REMARK VINA RESULT:      -6.4      0.000      0.000
REMARK  Name = 51137045
REMARK  3 active torsions:
REMARK  status: ('A' for Active; 'I' for Inactive)
REMARK    1  A    between atoms: N_3  and  C_6
REMARK    2  A    between atoms: N_4  and  C_16
REMARK    3  A    between atoms: C_7  and  C_15
REMARK                            x       y       z     vdW  Elec       q    Type
REMARK                         _______ _______ _______ _____ _____    ______ ____
ROOT
ATOM      3  N   UNL     1      -4.136 -11.091  17.435  0.00  0.00    -0.299 NA
ATOM      7  C   UNL     1      -5.917 -10.528  18.853  0.00  0.00    +0.090 C 
ATOM      8  C   UNL     1      -5.406 -10.363  17.415  0.00  0.00    +0.097 C 
ATOM      9  C   UNL     1      -4.413 -12.315  18.185  0.00  0.00    +0.085 C 
ATOM     10  C   UNL     1      -5.240 -11.813  19.362  0.00  0.00    +0.029 C 
ENDROOT
BRANCH   7  15
ATOM      1 CL   UNL     1     -13.417 -10.959  19.958  0.00  0.00    -0.083 Cl
ATOM      2  O   UNL     1      -8.080  -9.823  17.981  0.00  0.00    -0.439 OA
ATOM      5  N   UNL     1      -8.190 -11.111  19.841  0.00  0.00    -0.213 NA
ATOM     15  C   UNL     1      -7.425 -10.524  18.947  0.00  0.00    +0.201 A 
ATOM     17  C   UNL     1      -9.460 -10.775  19.440  0.00  0.00    +0.111 A 
ATOM     18  C   UNL     1      -9.397  -9.986  18.301  0.00  0.00    +0.155 A 
ATOM     19  C   UNL     1     -10.717 -11.092  19.977  0.00  0.00    +0.051 A 
ATOM     20  C   UNL     1     -10.501  -9.471  17.632  0.00  0.00    +0.050 A 
ATOM     21  C   UNL     1     -11.855 -10.589  19.329  0.00  0.00    +0.043 A 
ATOM     22  C   UNL     1     -11.746  -9.796  18.180  0.00  0.00    +0.024 A 
ENDBRANCH   7  15
BRANCH   3   6
ATOM      4  N   UNL     1      -2.570 -10.376  13.550  0.00  0.00    -0.305 NA
ATOM      6  C   UNL     1      -3.629 -11.363  16.092  0.00  0.00    +0.059 C 
ATOM     11  C   UNL     1      -4.524 -10.723  15.027  0.00  0.00    +0.034 C 
ATOM     12  C   UNL     1      -2.195 -10.843  15.951  0.00  0.00    +0.034 C 
ATOM     13  C   UNL     1      -3.934 -10.914  13.628  0.00  0.00    +0.085 C 
ATOM     14  C   UNL     1      -1.682 -11.030  14.522  0.00  0.00    +0.085 C 
ATOM     16  C   UNL     1      -2.040 -10.521  12.194  0.00  0.00    +0.104 C 
ENDBRANCH   3   6
TORSDOF 2
ENDMDL
MODEL 2
REMARK VINA RESULT:      -6.3      3.381      5.899
REMARK  Name = 51137045
REMARK  3 active torsions:
REMARK  status: ('A' for Active; 'I' for Inactive)
REMARK    1  A    between atoms: N_3  and  C_6
REMARK    2  A    between atoms: N_4  and  C_16
REMARK    3  A    between atoms: C_7  and  C_15
REMARK                            x       y       z     vdW  Elec       q    Type
REMARK                         _______ _______ _______ _____ _____    ______ ____
ROOT
ATOM      3  N   UNL     1      -2.634 -11.024  11.455  0.00  0.00    -0.299 NA
ATOM      7  C   UNL     1      -2.483 -10.972  13.794  0.00  0.00    +0.090 C 
ATOM      8  C   UNL     1      -3.164 -10.285  12.602  0.00  0.00    +0.097 C 
ATOM      9  C   UNL     1      -2.671 -12.429  11.859  0.00  0.00    +0.085 C 
ATOM     10  C   UNL     1      -2.143 -12.385  13.288  0.00  0.00    +0.029 C 
ENDROOT
BRANCH   7  15
ATOM      1 CL   UNL     1      -6.099 -11.153  20.469  0.00  0.00    -0.083 Cl
ATOM      2  O   UNL     1      -4.532 -10.323  14.943  0.00  0.00    -0.439 OA
ATOM      5  N   UNL     1      -3.027 -11.409  16.243  0.00  0.00    -0.213 NA
ATOM     15  C   UNL     1      -3.319 -10.932  15.053  0.00  0.00    +0.201 A 
ATOM     17  C   UNL     1      -4.137 -11.094  16.990  0.00  0.00    +0.111 A 
ATOM     18  C   UNL     1      -5.061 -10.429  16.197  0.00  0.00    +0.155 A 
ATOM     19  C   UNL     1      -4.446 -11.331  18.337  0.00  0.00    +0.051 A 
ATOM     20  C   UNL     1      -6.295  -9.967  16.637  0.00  0.00    +0.050 A 
ATOM     21  C   UNL     1      -5.684 -10.878  18.819  0.00  0.00    +0.043 A 
ATOM     22  C   UNL     1      -6.588 -10.211  17.983  0.00  0.00    +0.024 A 
ENDBRANCH   7  15
BRANCH   3   6
ATOM      4  N   UNL     1      -5.792  -9.723   8.926  0.00  0.00    -0.305 NA
ATOM      6  C   UNL     1      -3.395 -10.777  10.232  0.00  0.00    +0.059 C 
ATOM     11  C   UNL     1      -4.735 -11.519  10.262  0.00  0.00    +0.034 C 
ATOM     12  C   UNL     1      -3.634  -9.275  10.051  0.00  0.00    +0.034 C 
ATOM     13  C   UNL     1      -5.580 -11.172   9.033  0.00  0.00    +0.085 C 
ATOM     14  C   UNL     1      -4.514  -9.003   8.829  0.00  0.00    +0.085 C 
ATOM     16  C   UNL     1      -6.643  -9.414   7.777  0.00  0.00    +0.104 C 
ENDBRANCH   3   6
TORSDOF 2
ENDMDL
MODEL 3
REMARK VINA RESULT:      -6.2      3.720      8.196
REMARK  Name = 51137045
REMARK  3 active torsions:
REMARK  status: ('A' for Active; 'I' for Inactive)
REMARK    1  A    between atoms: N_3  and  C_6
REMARK    2  A    between atoms: N_4  and  C_16
REMARK    3  A    between atoms: C_7  and  C_15
REMARK                            x       y       z     vdW  Elec       q    Type
REMARK                         _______ _______ _______ _____ _____    ______ ____
ROOT
ATOM      3  N   UNL     1      -5.959 -11.977  17.782  0.00  0.00    -0.299 NA
ATOM      7  C   UNL     1      -4.326 -11.696  16.124  0.00  0.00    +0.090 C 
ATOM      8  C   UNL     1      -5.762 -12.192  16.348  0.00  0.00    +0.097 C 
ATOM      9  C   UNL     1      -5.382 -10.660  18.050  0.00  0.00    +0.085 C 
ATOM     10  C   UNL     1      -4.077 -10.696  17.266  0.00  0.00    +0.029 C 
ENDROOT
BRANCH   7  15
ATOM      1 CL   UNL     1      -3.988  -8.843   9.095  0.00  0.00    -0.083 Cl
ATOM      2  O   UNL     1      -2.808 -11.069  14.324  0.00  0.00    -0.439 OA
ATOM      5  N   UNL     1      -5.001 -10.723  13.870  0.00  0.00    -0.213 NA
ATOM     15  C   UNL     1      -4.104 -11.143  14.735  0.00  0.00    +0.201 A 
ATOM     17  C   UNL     1      -4.243 -10.336  12.791  0.00  0.00    +0.111 A 
ATOM     18  C   UNL     1      -2.899 -10.547  13.065  0.00  0.00    +0.155 A 
ATOM     19  C   UNL     1      -4.605  -9.801  11.547  0.00  0.00    +0.051 A 
ATOM     20  C   UNL     1      -1.858 -10.265  12.189  0.00  0.00    +0.050 A 
ATOM     21  C   UNL     1      -3.581  -9.501  10.635  0.00  0.00    +0.043 A 
ATOM     22  C   UNL     1      -2.236  -9.731  10.952  0.00  0.00    +0.024 A 
ENDBRANCH   7  15
BRANCH   3   6
ATOM      4  N   UNL     1      -9.554 -11.197  19.912  0.00  0.00    -0.305 NA
ATOM      6  C   UNL     1      -7.367 -12.056  18.169  0.00  0.00    +0.059 C 
ATOM     11  C   UNL     1      -7.512 -12.562  19.607  0.00  0.00    +0.034 C 
ATOM     12  C   UNL     1      -8.034 -10.685  18.027  0.00  0.00    +0.034 C 
ATOM     13  C   UNL     1      -8.978 -12.541  20.050  0.00  0.00    +0.085 C 
ATOM     14  C   UNL     1      -9.481 -10.726  18.521  0.00  0.00    +0.085 C 
ATOM     16  C   UNL     1     -10.938 -11.182  20.385  0.00  0.00    +0.104 C 
ENDBRANCH   3   6
TORSDOF 2
ENDMDL
MODEL 4
REMARK VINA RESULT:      -6.2      3.478      8.005
REMARK  Name = 51137045
REMARK  3 active torsions:
REMARK  status: ('A' for Active; 'I' for Inactive)
REMARK    1  A    between atoms: N_3  and  C_6
REMARK    2  A    between atoms: N_4  and  C_16
REMARK    3  A    between atoms: C_7  and  C_15
REMARK                            x       y       z     vdW  Elec       q    Type
REMARK                         _______ _______ _______ _____ _____    ______ ____
ROOT
ATOM      3  N   UNL     1      -7.191 -11.791  19.301  0.00  0.00    -0.299 NA
ATOM      7  C   UNL     1      -5.293 -12.278  18.013  0.00  0.00    +0.090 C 
ATOM      8  C   UNL     1      -6.780 -11.914  17.901  0.00  0.00    +0.097 C 
ATOM      9  C   UNL     1      -6.104 -11.058  19.950  0.00  0.00    +0.085 C 
ATOM     10  C   UNL     1      -4.858 -11.724  19.381  0.00  0.00    +0.029 C 
ENDROOT
BRANCH   7  15
ATOM      1 CL   UNL     1      -1.766 -10.077  11.659  0.00  0.00    -0.083 Cl
ATOM      2  O   UNL     1      -3.286 -11.202  17.146  0.00  0.00    -0.439 OA
ATOM      5  N   UNL     1      -4.767 -11.852  15.559  0.00  0.00    -0.213 NA
ATOM     15  C   UNL     1      -4.477 -11.787  16.840  0.00  0.00    +0.201 A 
ATOM     17  C   UNL     1      -3.680 -11.261  14.959  0.00  0.00    +0.111 A 
ATOM     18  C   UNL     1      -2.771 -10.862  15.928  0.00  0.00    +0.155 A 
ATOM     19  C   UNL     1      -3.381 -11.022  13.610  0.00  0.00    +0.051 A 
ATOM     20  C   UNL     1      -1.561 -10.231  15.667  0.00  0.00    +0.050 A 
ATOM     21  C   UNL     1      -2.168 -10.386  13.307  0.00  0.00    +0.043 A 
ATOM     22  C   UNL     1      -1.278 -10.000  14.316  0.00  0.00    +0.024 A 
ENDBRANCH   7  15
BRANCH   3   6
ATOM      4  N   UNL     1     -11.261 -10.789  18.596  0.00  0.00    -0.305 NA
ATOM      6  C   UNL     1      -8.480 -11.118  19.446  0.00  0.00    +0.059 C 
ATOM     11  C   UNL     1      -8.859 -10.378  18.159  0.00  0.00    +0.034 C 
ATOM     12  C   UNL     1      -9.570 -12.132  19.805  0.00  0.00    +0.034 C 
ATOM     13  C   UNL     1     -10.258  -9.766  18.272  0.00  0.00    +0.085 C 
ATOM     14  C   UNL     1     -10.944 -11.463  19.864  0.00  0.00    +0.085 C 
ATOM     16  C   UNL     1     -12.597 -10.197  18.650  0.00  0.00    +0.104 C 
ENDBRANCH   3   6
TORSDOF 2
ENDMDL
MODEL 5
REMARK VINA RESULT:      -6.1     24.682     28.434
REMARK  Name = 51137045
REMARK  3 active torsions:
REMARK  status: ('A' for Active; 'I' for Inactive)
REMARK    1  A    between atoms: N_3  and  C_6
REMARK    2  A    between atoms: N_4  and  C_16
REMARK    3  A    between atoms: C_7  and  C_15
REMARK                            x       y       z     vdW  Elec       q    Type
REMARK                         _______ _______ _______ _____ _____    ______ ____
ROOT
ATOM      3  N   UNL     1       9.590   7.010   5.043  0.00  0.00    -0.299 NA
ATOM      7  C   UNL     1      10.544   6.967   2.902  0.00  0.00    +0.090 C 
ATOM      8  C   UNL     1      10.555   6.241   4.255  0.00  0.00    +0.097 C 
ATOM      9  C   UNL     1       8.471   7.258   4.134  0.00  0.00    +0.085 C 
ATOM     10  C   UNL     1       9.168   7.653   2.839  0.00  0.00    +0.029 C 
ENDROOT
BRANCH   7  15
ATOM      1 CL   UNL     1      11.471   2.675  -3.293  0.00  0.00    -0.083 Cl
ATOM      2  O   UNL     1      11.930   5.233   1.897  0.00  0.00    -0.439 OA
ATOM      5  N   UNL     1      10.214   5.939   0.596  0.00  0.00    -0.213 NA
ATOM     15  C   UNL     1      10.852   6.050   1.740  0.00  0.00    +0.201 A 
ATOM     17  C   UNL     1      10.923   4.967  -0.067  0.00  0.00    +0.111 A 
ATOM     18  C   UNL     1      11.974   4.532   0.726  0.00  0.00    +0.155 A 
ATOM     19  C   UNL     1      10.749   4.394  -1.336  0.00  0.00    +0.051 A 
ATOM     20  C   UNL     1      12.890   3.553   0.360  0.00  0.00    +0.050 A 
ATOM     21  C   UNL     1      11.655   3.403  -1.741  0.00  0.00    +0.043 A 
ATOM     22  C   UNL     1      12.703   2.992  -0.908  0.00  0.00    +0.024 A 
ENDBRANCH   7  15
BRANCH   3   6
ATOM      4  N   UNL     1       9.806   5.326   8.940  0.00  0.00    -0.305 NA
ATOM      6  C   UNL     1       9.176   6.307   6.256  0.00  0.00    +0.059 C 
ATOM     11  C   UNL     1      10.038   5.063   6.489  0.00  0.00    +0.034 C 
ATOM     12  C   UNL     1       9.267   7.241   7.467  0.00  0.00    +0.034 C 
ATOM     13  C   UNL     1       9.678   4.388   7.816  0.00  0.00    +0.085 C 
ATOM     14  C   UNL     1       8.933   6.495   8.761  0.00  0.00    +0.085 C 
ATOM     16  C   UNL     1       9.508   4.653  10.204  0.00  0.00    +0.104 C 
ENDBRANCH   3   6
TORSDOF 2
ENDMDL
MODEL 6
REMARK VINA RESULT:      -6.1      5.525      8.792
REMARK  Name = 51137045
REMARK  3 active torsions:
REMARK  status: ('A' for Active; 'I' for Inactive)
REMARK    1  A    between atoms: N_3  and  C_6
REMARK    2  A    between atoms: N_4  and  C_16
REMARK    3  A    between atoms: C_7  and  C_15
REMARK                            x       y       z     vdW  Elec       q    Type
REMARK                         _______ _______ _______ _____ _____    ______ ____
ROOT
ATOM      3  N   UNL     1      -5.089  -9.837   8.839  0.00  0.00    -0.299 NA
ATOM      7  C   UNL     1      -3.559 -10.176  10.583  0.00  0.00    +0.090 C 
ATOM      8  C   UNL     1      -4.754  -9.308  10.162  0.00  0.00    +0.097 C 
ATOM      9  C   UNL     1      -5.004 -11.290   8.980  0.00  0.00    +0.085 C 
ATOM     10  C   UNL     1      -3.723 -11.479   9.781  0.00  0.00    +0.029 C 
ENDROOT
BRANCH   7  15
ATOM      1 CL   UNL     1      -3.847 -11.206  18.100  0.00  0.00    -0.083 Cl
ATOM      2  O   UNL     1      -2.216 -10.237  12.615  0.00  0.00    -0.439 OA
ATOM      5  N   UNL     1      -4.427 -10.619  12.935  0.00  0.00    -0.213 NA
ATOM     15  C   UNL     1      -3.463 -10.358  12.080  0.00  0.00    +0.201 A 
ATOM     17  C   UNL     1      -3.772 -10.676  14.142  0.00  0.00    +0.111 A 
ATOM     18  C   UNL     1      -2.418 -10.443  13.950  0.00  0.00    +0.155 A 
ATOM     19  C   UNL     1      -4.240 -10.919  15.441  0.00  0.00    +0.051 A 
ATOM     20  C   UNL     1      -1.465 -10.429  14.961  0.00  0.00    +0.050 A 
ATOM     21  C   UNL     1      -3.307 -10.913  16.489  0.00  0.00    +0.043 A 
ATOM     22  C   UNL     1      -1.949 -10.672  16.251  0.00  0.00    +0.024 A 
ENDBRANCH   7  15
BRANCH   3   6
ATOM      4  N   UNL     1      -8.055  -7.469   6.925  0.00  0.00    -0.305 NA
ATOM      6  C   UNL     1      -6.407  -9.399   8.381  0.00  0.00    +0.059 C 
ATOM     11  C   UNL     1      -6.758  -8.024   8.959  0.00  0.00    +0.034 C 
ATOM     12  C   UNL     1      -6.446  -9.348   6.851  0.00  0.00    +0.034 C 
ATOM     13  C   UNL     1      -8.087  -7.516   8.393  0.00  0.00    +0.085 C 
ATOM     14  C   UNL     1      -7.785  -8.797   6.355  0.00  0.00    +0.085 C 
ATOM     16  C   UNL     1      -9.313  -6.934   6.403  0.00  0.00    +0.104 C 
ENDBRANCH   3   6
TORSDOF 2
ENDMDL
MODEL 7
REMARK VINA RESULT:      -6.0     18.457     20.459
REMARK  Name = 51137045
REMARK  3 active torsions:
REMARK  status: ('A' for Active; 'I' for Inactive)
REMARK    1  A    between atoms: N_3  and  C_6
REMARK    2  A    between atoms: N_4  and  C_16
REMARK    3  A    between atoms: C_7  and  C_15
REMARK                            x       y       z     vdW  Elec       q    Type
REMARK                         _______ _______ _______ _____ _____    ______ ____
ROOT
ATOM      3  N   UNL     1     -14.507   6.515  22.771  0.00  0.00    -0.299 NA
ATOM      7  C   UNL     1     -12.982   7.481  21.275  0.00  0.00    +0.090 C 
ATOM      8  C   UNL     1     -13.803   6.208  21.525  0.00  0.00    +0.097 C 
ATOM      9  C   UNL     1     -14.964   7.896  22.617  0.00  0.00    +0.085 C 
ATOM     10  C   UNL     1     -13.748   8.590  22.017  0.00  0.00    +0.029 C 
ENDROOT
BRANCH   7  15
ATOM      1 CL   UNL     1     -12.548   8.848  13.818  0.00  0.00    -0.083 Cl
ATOM      2  O   UNL     1     -11.437   7.791  19.416  0.00  0.00    -0.439 OA
ATOM      5  N   UNL     1     -13.627   7.944  18.856  0.00  0.00    -0.213 NA
ATOM     15  C   UNL     1     -12.741   7.747  19.807  0.00  0.00    +0.201 A 
ATOM     17  C   UNL     1     -12.853   8.133  17.736  0.00  0.00    +0.111 A 
ATOM     18  C   UNL     1     -11.511   8.040  18.075  0.00  0.00    +0.155 A 
ATOM     19  C   UNL     1     -13.199   8.387  16.401  0.00  0.00    +0.051 A 
ATOM     20  C   UNL     1     -10.457   8.181  17.181  0.00  0.00    +0.050 A 
ATOM     21  C   UNL     1     -12.161   8.537  15.469  0.00  0.00    +0.043 A 
ATOM     22  C   UNL     1     -10.819   8.434  15.854  0.00  0.00    +0.024 A 
ENDBRANCH   7  15
BRANCH   3   6
ATOM      4  N   UNL     1     -16.876   2.991  22.582  0.00  0.00    -0.305 NA
ATOM      6  C   UNL     1     -15.609   5.590  23.030  0.00  0.00    +0.059 C 
ATOM     11  C   UNL     1     -16.363   5.260  21.738  0.00  0.00    +0.034 C 
ATOM     12  C   UNL     1     -15.081   4.303  23.670  0.00  0.00    +0.034 C 
ATOM     13  C   UNL     1     -17.446   4.208  21.989  0.00  0.00    +0.085 C 
ATOM     14  C   UNL     1     -16.206   3.283  23.858  0.00  0.00    +0.085 C 
ATOM     16  C   UNL     1     -17.915   1.978  22.769  0.00  0.00    +0.104 C 
ENDBRANCH   3   6
TORSDOF 2
ENDMDL
MODEL 8
REMARK VINA RESULT:      -6.0     28.692     31.376
REMARK  Name = 51137045
REMARK  3 active torsions:
REMARK  status: ('A' for Active; 'I' for Inactive)
REMARK    1  A    between atoms: N_3  and  C_6
REMARK    2  A    between atoms: N_4  and  C_16
REMARK    3  A    between atoms: C_7  and  C_15
REMARK                            x       y       z     vdW  Elec       q    Type
REMARK                         _______ _______ _______ _____ _____    ______ ____
ROOT
ATOM      3  N   UNL     1      22.058   4.845  21.342  0.00  0.00    -0.299 NA
ATOM      7  C   UNL     1      20.442   6.362  20.576  0.00  0.00    +0.090 C 
ATOM      8  C   UNL     1      20.841   4.880  20.528  0.00  0.00    +0.097 C 
ATOM      9  C   UNL     1      21.763   5.688  22.500  0.00  0.00    +0.085 C 
ATOM     10  C   UNL     1      21.072   6.893  21.876  0.00  0.00    +0.029 C 
ENDROOT
BRANCH   7  15
ATOM      1 CL   UNL     1      12.956   6.894  19.422  0.00  0.00    -0.083 Cl
ATOM      2  O   UNL     1      18.411   7.488  21.314  0.00  0.00    -0.439 OA
ATOM      5  N   UNL     1      18.103   5.990  19.642  0.00  0.00    -0.213 NA
ATOM     15  C   UNL     1      18.950   6.574  20.460  0.00  0.00    +0.201 A 
ATOM     17  C   UNL     1      16.898   6.560  19.974  0.00  0.00    +0.111 A 
ATOM     18  C   UNL     1      17.082   7.479  20.998  0.00  0.00    +0.155 A 
ATOM     19  C   UNL     1      15.606   6.363  19.466  0.00  0.00    +0.051 A 
ATOM     20  C   UNL     1      16.070   8.236  21.574  0.00  0.00    +0.050 A 
ATOM     21  C   UNL     1      14.557   7.109  20.023  0.00  0.00    +0.043 A 
ATOM     22  C   UNL     1      14.788   8.027  21.055  0.00  0.00    +0.024 A 
ENDBRANCH   7  15
BRANCH   3   6
ATOM      4  N   UNL     1      24.430   1.624  22.778  0.00  0.00    -0.305 NA
ATOM      6  C   UNL     1      22.433   3.485  21.724  0.00  0.00    +0.059 C 
ATOM     11  C   UNL     1      23.609   2.984  20.880  0.00  0.00    +0.034 C 
ATOM     12  C   UNL     1      22.798   3.434  23.210  0.00  0.00    +0.034 C 
ATOM     13  C   UNL     1      24.074   1.604  21.353  0.00  0.00    +0.085 C 
ATOM     14  C   UNL     1      23.289   2.040  23.607  0.00  0.00    +0.085 C 
ATOM     16  C   UNL     1      24.920   0.312  23.201  0.00  0.00    +0.104 C 
ENDBRANCH   3   6
TORSDOF 2
ENDMDL
MODEL 9
REMARK VINA RESULT:      -6.0     28.765     30.792
REMARK  Name = 51137045
REMARK  3 active torsions:
REMARK  status: ('A' for Active; 'I' for Inactive)
REMARK    1  A    between atoms: N_3  and  C_6
REMARK    2  A    between atoms: N_4  and  C_16
REMARK    3  A    between atoms: C_7  and  C_15
REMARK                            x       y       z     vdW  Elec       q    Type
REMARK                         _______ _______ _______ _____ _____    ______ ____
ROOT
ATOM      3  N   UNL     1      14.024   7.693  19.190  0.00  0.00    -0.299 NA
ATOM      7  C   UNL     1      15.741   6.528  20.282  0.00  0.00    +0.090 C 
ATOM      8  C   UNL     1      15.384   7.206  18.951  0.00  0.00    +0.097 C 
ATOM      9  C   UNL     1      14.057   8.259  20.539  0.00  0.00    +0.085 C 
ATOM     10  C   UNL     1      14.845   7.219  21.324  0.00  0.00    +0.029 C 
ENDROOT
BRANCH   7  15
ATOM      1 CL   UNL     1      23.258   6.171  21.298  0.00  0.00    -0.083 Cl
ATOM      2  O   UNL     1      17.612   7.498  21.505  0.00  0.00    -0.439 OA
ATOM      5  N   UNL     1      18.182   5.833  20.079  0.00  0.00    -0.213 NA
ATOM     15  C   UNL     1      17.221   6.572  20.586  0.00  0.00    +0.201 A 
ATOM     17  C   UNL     1      19.309   6.302  20.711  0.00  0.00    +0.111 A 
ATOM     18  C   UNL     1      18.964   7.322  21.585  0.00  0.00    +0.155 A 
ATOM     19  C   UNL     1      20.656   5.926  20.606  0.00  0.00    +0.051 A 
ATOM     20  C   UNL     1      19.862   8.018  22.385  0.00  0.00    +0.050 A 
ATOM     21  C   UNL     1      21.593   6.607  21.398  0.00  0.00    +0.043 A 
ATOM     22  C   UNL     1      21.201   7.631  22.269  0.00  0.00    +0.024 A 
ENDBRANCH   7  15
BRANCH   3   6
ATOM      4  N   UNL     1      14.266  10.473  15.984  0.00  0.00    -0.305 NA
ATOM      6  C   UNL     1      13.598   8.668  18.188  0.00  0.00    +0.059 C 
ATOM     11  C   UNL     1      14.277  10.022  18.418  0.00  0.00    +0.034 C 
ATOM     12  C   UNL     1      13.918   8.156  16.781  0.00  0.00    +0.034 C 
ATOM     13  C   UNL     1      13.916  11.011  17.305  0.00  0.00    +0.085 C 
ATOM     14  C   UNL     1      13.569   9.205  15.723  0.00  0.00    +0.085 C 
ATOM     16  C   UNL     1      13.963  11.449  14.938  0.00  0.00    +0.104 C 
ENDBRANCH   3   6
TORSDOF 2
ENDMDL
MODEL 10
REMARK VINA RESULT:      -6.0      4.622      7.444
REMARK  Name = 51137045
REMARK  3 active torsions:
REMARK  status: ('A' for Active; 'I' for Inactive)
REMARK    1  A    between atoms: N_3  and  C_6
REMARK    2  A    between atoms: N_4  and  C_16
REMARK    3  A    between atoms: C_7  and  C_15
REMARK                            x       y       z     vdW  Elec       q    Type
REMARK                         _______ _______ _______ _____ _____    ______ ____
ROOT
ATOM      3  N   UNL     1      -3.890  -9.994   9.514  0.00  0.00    -0.299 NA
ATOM      7  C   UNL     1      -3.212 -10.440  11.714  0.00  0.00    +0.090 C 
ATOM      8  C   UNL     1      -3.990  -9.428  10.860  0.00  0.00    +0.097 C 
ATOM      9  C   UNL     1      -4.119 -11.428   9.689  0.00  0.00    +0.085 C 
ATOM     10  C   UNL     1      -3.287 -11.757  10.922  0.00  0.00    +0.029 C 
ENDROOT
BRANCH   7  15
ATOM      1 CL   UNL     1      -5.057 -11.150  19.045  0.00  0.00    -0.083 Cl
ATOM      2  O   UNL     1      -4.997 -10.100  13.338  0.00  0.00    -0.439 OA
ATOM      5  N   UNL     1      -3.084 -10.951  14.205  0.00  0.00    -0.213 NA
ATOM     15  C   UNL     1      -3.718 -10.523  13.135  0.00  0.00    +0.201 A 
ATOM     17  C   UNL     1      -4.016 -10.803  15.204  0.00  0.00    +0.111 A 
ATOM     18  C   UNL     1      -5.188 -10.282  14.677  0.00  0.00    +0.155 A 
ATOM     19  C   UNL     1      -3.955 -11.082  16.577  0.00  0.00    +0.051 A 
ATOM     20  C   UNL     1      -6.335 -10.008  15.413  0.00  0.00    +0.050 A 
ATOM     21  C   UNL     1      -5.093 -10.818  17.354  0.00  0.00    +0.043 A 
ATOM     22  C   UNL     1      -6.258 -10.292  16.781  0.00  0.00    +0.024 A 
ENDBRANCH   7  15
BRANCH   3   6
ATOM      4  N   UNL     1      -7.489  -9.373   7.340  0.00  0.00    -0.305 NA
ATOM      6  C   UNL     1      -4.840  -9.388   8.583  0.00  0.00    +0.059 C 
ATOM     11  C   UNL     1      -5.231 -10.376   7.479  0.00  0.00    +0.034 C 
ATOM     12  C   UNL     1      -6.092  -8.922   9.332  0.00  0.00    +0.034 C 
ATOM     13  C   UNL     1      -6.308  -9.781   6.568  0.00  0.00    +0.085 C 
ATOM     14  C   UNL     1      -7.140  -8.375   8.361  0.00  0.00    +0.085 C 
ATOM     16  C   UNL     1      -8.528  -8.854   6.450  0.00  0.00    +0.104 C 
ENDBRANCH   3   6
TORSDOF 2
ENDMDL
