MODEL 1
REMARK VINA RESULT:      -7.7      0.000      0.000
REMARK  Name = 40533382
REMARK  5 active torsions:
REMARK  status: ('A' for Active; 'I' for Inactive)
REMARK    1  A    between atoms: N_3  and  C_10
REMARK    2  A    between atoms: N_4  and  C_11
REMARK    3  A    between atoms: N_4  and  C_14
REMARK    4  A    between atoms: C_14  and  C_17
REMARK    5  A    between atoms: C_16  and  C_18
REMARK                            x       y       z     vdW  Elec       q    Type
REMARK                         _______ _______ _______ _____ _____    ______ ____
ROOT
ATOM      1  O   UNL     1      12.248   7.073  18.525  0.00  0.00    -0.370 OA
ATOM      2  O   UNL     1      13.066   9.326  20.493  0.00  0.00    -0.370 OA
ATOM      8  C   UNL     1      13.620   8.880  19.239  0.00  0.00    +0.175 C 
ATOM      9  C   UNL     1      13.477   7.371  19.208  0.00  0.00    +0.168 C 
ATOM     10  C   UNL     1      12.756   9.367  18.089  0.00  0.00    +0.166 C 
ATOM     11  C   UNL     1      13.378   6.976  20.665  0.00  0.00    +0.111 C 
ATOM     12  C   UNL     1      11.674   8.291  18.030  0.00  0.00    +0.189 C 
ATOM     13  C   UNL     1      12.679   8.183  21.270  0.00  0.00    +0.181 C 
ENDROOT
BRANCH  10   3
ATOM      3  N   UNL     1      13.572   9.547  16.823  0.00  0.00    -0.243 N 
ATOM      5  N   UNL     1      13.675   8.553  15.926  0.00  0.00    -0.065 NA
ATOM      6  N   UNL     1      14.441   8.994  14.934  0.00  0.00    -0.128 NA
ATOM     15  C   UNL     1      14.266  10.650  16.430  0.00  0.00    +0.140 A 
ATOM     16  C   UNL     1      14.811  10.277  15.228  0.00  0.00    +0.131 A 
BRANCH  16  18
ATOM      7  N   UNL     1      15.269  11.179  13.103  0.00  0.00    -0.253 NA
ATOM     18  C   UNL     1      15.639  11.095  14.401  0.00  0.00    +0.092 A 
ATOM     23  C   UNL     1      16.741  11.741  14.936  0.00  0.00    +0.030 A 
ATOM     25  C   UNL     1      17.514  12.524  14.086  0.00  0.00    +0.004 A 
ATOM     26  C   UNL     1      16.044  11.949  12.306  0.00  0.00    +0.111 A 
ATOM     27  C   UNL     1      17.166  12.635  12.744  0.00  0.00    +0.020 A 
ENDBRANCH  16  18
ENDBRANCH  10   3
BRANCH  11   4
ATOM      4  N   UNL     1      14.709   6.832  21.250  0.00  0.00    -0.305 NA
ATOM     28  H   UNL     1      14.676   6.140  22.000  0.00  0.00    +0.123 HD
BRANCH   4  14
ATOM     14  C   UNL     1      15.665   6.381  20.251  0.00  0.00    +0.116 C 
BRANCH  14  17
ATOM     17  C   UNL     1      17.072   6.794  20.596  0.00  0.00    -0.034 A 
ATOM     19  C   UNL     1      18.147   5.994  20.211  0.00  0.00    +0.005 A 
ATOM     20  C   UNL     1      17.300   7.977  21.298  0.00  0.00    +0.005 A 
ATOM     21  C   UNL     1      19.450   6.376  20.530  0.00  0.00    +0.000 A 
ATOM     22  C   UNL     1      18.603   8.360  21.616  0.00  0.00    +0.000 A 
ATOM     24  C   UNL     1      19.678   7.559  21.232  0.00  0.00    +0.000 A 
ENDBRANCH  14  17
ENDBRANCH   4  14
ENDBRANCH  11   4
TORSDOF 5
ENDMDL
MODEL 2
REMARK VINA RESULT:      -7.6     28.980     32.814
REMARK  Name = 40533382
REMARK  5 active torsions:
REMARK  status: ('A' for Active; 'I' for Inactive)
REMARK    1  A    between atoms: N_3  and  C_10
REMARK    2  A    between atoms: N_4  and  C_11
REMARK    3  A    between atoms: N_4  and  C_14
REMARK    4  A    between atoms: C_14  and  C_17
REMARK    5  A    between atoms: C_16  and  C_18
REMARK                            x       y       z     vdW  Elec       q    Type
REMARK                         _______ _______ _______ _____ _____    ______ ____
ROOT
ATOM      1  O   UNL     1     -17.568   4.526  25.721  0.00  0.00    -0.370 OA
ATOM      2  O   UNL     1     -16.235   2.615  23.675  0.00  0.00    -0.370 OA
ATOM      8  C   UNL     1     -16.016   2.842  25.081  0.00  0.00    +0.175 C 
ATOM      9  C   UNL     1     -16.202   4.327  25.321  0.00  0.00    +0.168 C 
ATOM     10  C   UNL     1     -17.119   2.185  25.890  0.00  0.00    +0.166 C 
ATOM     11  C   UNL     1     -15.954   4.957  23.968  0.00  0.00    +0.111 C 
ATOM     12  C   UNL     1     -18.212   3.251  25.856  0.00  0.00    +0.189 C 
ATOM     13  C   UNL     1     -16.452   3.875  23.022  0.00  0.00    +0.181 C 
ENDROOT
BRANCH  10   3
ATOM      3  N   UNL     1     -16.632   1.788  27.270  0.00  0.00    -0.243 N 
ATOM      5  N   UNL     1     -16.861   0.554  27.750  0.00  0.00    -0.065 NA
ATOM      6  N   UNL     1     -16.326   0.497  28.964  0.00  0.00    -0.128 NA
ATOM     15  C   UNL     1     -15.943   2.552  28.162  0.00  0.00    +0.140 A 
ATOM     16  C   UNL     1     -15.759   1.713  29.231  0.00  0.00    +0.131 A 
BRANCH  16  18
ATOM      7  N   UNL     1     -15.255   1.183  31.468  0.00  0.00    -0.253 NA
ATOM     18  C   UNL     1     -15.081   2.046  30.442  0.00  0.00    +0.092 A 
ATOM     23  C   UNL     1     -14.306   3.193  30.517  0.00  0.00    +0.030 A 
ATOM     25  C   UNL     1     -13.668   3.470  31.721  0.00  0.00    +0.004 A 
ATOM     26  C   UNL     1     -14.620   1.485  32.622  0.00  0.00    +0.111 A 
ATOM     27  C   UNL     1     -13.823   2.605  32.799  0.00  0.00    +0.020 A 
ENDBRANCH  16  18
ENDBRANCH  10   3
BRANCH  11   4
ATOM      4  N   UNL     1     -14.525   5.177  23.757  0.00  0.00    -0.305 NA
ATOM     28  H   UNL     1     -13.994   4.489  24.293  0.00  0.00    +0.123 HD
BRANCH   4  14
ATOM     14  C   UNL     1     -14.183   5.027  22.351  0.00  0.00    +0.116 C 
BRANCH  14  17
ATOM     17  C   UNL     1     -13.506   6.257  21.805  0.00  0.00    -0.034 A 
ATOM     19  C   UNL     1     -12.252   6.153  21.204  0.00  0.00    +0.005 A 
ATOM     20  C   UNL     1     -14.133   7.499  21.901  0.00  0.00    +0.005 A 
ATOM     21  C   UNL     1     -11.625   7.291  20.697  0.00  0.00    +0.000 A 
ATOM     22  C   UNL     1     -13.506   8.637  21.395  0.00  0.00    +0.000 A 
ATOM     24  C   UNL     1     -12.252   8.534  20.793  0.00  0.00    +0.000 A 
ENDBRANCH  14  17
ENDBRANCH   4  14
ENDBRANCH  11   4
TORSDOF 5
ENDMDL
MODEL 3
REMARK VINA RESULT:      -7.0     26.688     29.726
REMARK  Name = 40533382
REMARK  5 active torsions:
REMARK  status: ('A' for Active; 'I' for Inactive)
REMARK    1  A    between atoms: N_3  and  C_10
REMARK    2  A    between atoms: N_4  and  C_11
REMARK    3  A    between atoms: N_4  and  C_14
REMARK    4  A    between atoms: C_14  and  C_17
REMARK    5  A    between atoms: C_16  and  C_18
REMARK                            x       y       z     vdW  Elec       q    Type
REMARK                         _______ _______ _______ _____ _____    ______ ____
ROOT
ATOM      1  O   UNL     1      -4.393 -12.661  15.256  0.00  0.00    -0.370 OA
ATOM      2  O   UNL     1      -2.350 -10.616  16.379  0.00  0.00    -0.370 OA
ATOM      8  C   UNL     1      -3.751 -10.516  16.059  0.00  0.00    +0.175 C 
ATOM      9  C   UNL     1      -3.979 -11.356  14.817  0.00  0.00    +0.168 C 
ATOM     10  C   UNL     1      -4.579 -11.197  17.135  0.00  0.00    +0.166 C 
ATOM     11  C   UNL     1      -2.618 -11.429  14.162  0.00  0.00    +0.111 C 
ATOM     12  C   UNL     1      -4.547 -12.655  16.682  0.00  0.00    +0.189 C 
ATOM     13  C   UNL     1      -1.688 -11.385  15.364  0.00  0.00    +0.181 C 
ENDROOT
BRANCH  10   3
ATOM      3  N   UNL     1      -5.957 -10.575  17.249  0.00  0.00    -0.243 N 
ATOM      5  N   UNL     1      -6.283  -9.492  16.523  0.00  0.00    -0.065 NA
ATOM      6  N   UNL     1      -7.537  -9.176  16.827  0.00  0.00    -0.128 NA
ATOM     15  C   UNL     1      -6.992 -10.981  18.034  0.00  0.00    +0.140 A 
ATOM     16  C   UNL     1      -7.985 -10.079  17.752  0.00  0.00    +0.131 A 
BRANCH  16  18
ATOM      7  N   UNL     1      -9.425 -10.754  19.487  0.00  0.00    -0.253 NA
ATOM     18  C   UNL     1      -9.292 -10.072  18.327  0.00  0.00    +0.092 A 
ATOM     23  C   UNL     1     -10.328  -9.397  17.702  0.00  0.00    +0.030 A 
ATOM     25  C   UNL     1     -11.580  -9.424  18.305  0.00  0.00    +0.004 A 
ATOM     26  C   UNL     1     -10.656 -10.758  20.044  0.00  0.00    +0.111 A 
ATOM     27  C   UNL     1     -11.757 -10.115  19.498  0.00  0.00    +0.020 A 
ENDBRANCH  16  18
ENDBRANCH  10   3
BRANCH  11   4
ATOM      4  N   UNL     1      -2.390 -10.257  13.320  0.00  0.00    -0.305 NA
ATOM     28  H   UNL     1      -1.722  -9.636  13.778  0.00  0.00    +0.123 HD
BRANCH   4  14
ATOM     14  C   UNL     1      -1.844 -10.648  12.030  0.00  0.00    +0.116 C 
BRANCH  14  17
ATOM     17  C   UNL     1      -2.840 -10.454  10.917  0.00  0.00    -0.034 A 
ATOM     19  C   UNL     1      -2.996  -9.198  10.332  0.00  0.00    +0.005 A 
ATOM     20  C   UNL     1      -3.607 -11.530  10.471  0.00  0.00    +0.005 A 
ATOM     21  C   UNL     1      -3.918  -9.017   9.302  0.00  0.00    +0.000 A 
ATOM     22  C   UNL     1      -4.530 -11.350   9.441  0.00  0.00    +0.000 A 
ATOM     24  C   UNL     1      -4.685 -10.094   8.856  0.00  0.00    +0.000 A 
ENDBRANCH  14  17
ENDBRANCH   4  14
ENDBRANCH  11   4
TORSDOF 5
ENDMDL
MODEL 4
REMARK VINA RESULT:      -6.9     26.748     29.249
REMARK  Name = 40533382
REMARK  5 active torsions:
REMARK  status: ('A' for Active; 'I' for Inactive)
REMARK    1  A    between atoms: N_3  and  C_10
REMARK    2  A    between atoms: N_4  and  C_11
REMARK    3  A    between atoms: N_4  and  C_14
REMARK    4  A    between atoms: C_14  and  C_17
REMARK    5  A    between atoms: C_16  and  C_18
REMARK                            x       y       z     vdW  Elec       q    Type
REMARK                         _______ _______ _______ _____ _____    ______ ____
ROOT
ATOM      1  O   UNL     1      -4.431 -12.671  15.347  0.00  0.00    -0.370 OA
ATOM      2  O   UNL     1      -2.329 -10.617  16.336  0.00  0.00    -0.370 OA
ATOM      8  C   UNL     1      -3.746 -10.519  16.092  0.00  0.00    +0.175 C 
ATOM      9  C   UNL     1      -4.042 -11.371  14.873  0.00  0.00    +0.168 C 
ATOM     10  C   UNL     1      -4.513 -11.188  17.219  0.00  0.00    +0.166 C 
ATOM     11  C   UNL     1      -2.718 -11.452  14.145  0.00  0.00    +0.111 C 
ATOM     12  C   UNL     1      -4.506 -12.650  16.780  0.00  0.00    +0.189 C 
ATOM     13  C   UNL     1      -1.724 -11.397  15.294  0.00  0.00    +0.181 C 
ENDROOT
BRANCH  10   3
ATOM      3  N   UNL     1      -5.883 -10.564  17.401  0.00  0.00    -0.243 N 
ATOM      5  N   UNL     1      -6.488 -10.576  18.600  0.00  0.00    -0.065 NA
ATOM      6  N   UNL     1      -7.659  -9.965  18.458  0.00  0.00    -0.128 NA
ATOM     15  C   UNL     1      -6.648  -9.945  16.461  0.00  0.00    +0.140 A 
ATOM     16  C   UNL     1      -7.773  -9.573  17.153  0.00  0.00    +0.131 A 
BRANCH  16  18
ATOM      7  N   UNL     1      -9.171  -9.144  15.309  0.00  0.00    -0.253 NA
ATOM     18  C   UNL     1      -8.895  -8.881  16.606  0.00  0.00    +0.092 A 
ATOM     23  C   UNL     1      -9.626  -8.003  17.392  0.00  0.00    +0.030 A 
ATOM     25  C   UNL     1     -10.709  -7.356  16.809  0.00  0.00    +0.004 A 
ATOM     26  C   UNL     1     -10.231  -8.496  14.777  0.00  0.00    +0.111 A 
ATOM     27  C   UNL     1     -11.025  -7.600  15.477  0.00  0.00    +0.020 A 
ENDBRANCH  16  18
ENDBRANCH  10   3
BRANCH  11   4
ATOM      4  N   UNL     1      -2.536 -10.289  13.280  0.00  0.00    -0.305 NA
ATOM     28  H   UNL     1      -1.908  -9.624  13.733  0.00  0.00    +0.123 HD
BRANCH   4  14
ATOM     14  C   UNL     1      -1.951 -10.680  12.007  0.00  0.00    +0.116 C 
BRANCH  14  17
ATOM     17  C   UNL     1      -2.908 -10.475  10.863  0.00  0.00    -0.034 A 
ATOM     19  C   UNL     1      -3.078  -9.203  10.316  0.00  0.00    +0.005 A 
ATOM     20  C   UNL     1      -3.625 -11.556  10.350  0.00  0.00    +0.005 A 
ATOM     21  C   UNL     1      -3.964  -9.013   9.256  0.00  0.00    +0.000 A 
ATOM     22  C   UNL     1      -4.511 -11.365   9.290  0.00  0.00    +0.000 A 
ATOM     24  C   UNL     1      -4.680 -10.094   8.743  0.00  0.00    +0.000 A 
ENDBRANCH  14  17
ENDBRANCH   4  14
ENDBRANCH  11   4
TORSDOF 5
ENDMDL
MODEL 5
REMARK VINA RESULT:      -6.9     27.401     30.113
REMARK  Name = 40533382
REMARK  5 active torsions:
REMARK  status: ('A' for Active; 'I' for Inactive)
REMARK    1  A    between atoms: N_3  and  C_10
REMARK    2  A    between atoms: N_4  and  C_11
REMARK    3  A    between atoms: N_4  and  C_14
REMARK    4  A    between atoms: C_14  and  C_17
REMARK    5  A    between atoms: C_16  and  C_18
REMARK                            x       y       z     vdW  Elec       q    Type
REMARK                         _______ _______ _______ _____ _____    ______ ____
ROOT
ATOM      1  O   UNL     1      -4.583 -12.901  17.604  0.00  0.00    -0.370 OA
ATOM      2  O   UNL     1      -3.763 -10.053  16.693  0.00  0.00    -0.370 OA
ATOM      8  C   UNL     1      -5.044 -10.666  16.936  0.00  0.00    +0.175 C 
ATOM      9  C   UNL     1      -4.941 -12.103  16.463  0.00  0.00    +0.168 C 
ATOM     10  C   UNL     1      -5.292 -10.774  18.430  0.00  0.00    +0.166 C 
ATOM     11  C   UNL     1      -3.809 -12.085  15.460  0.00  0.00    +0.111 C 
ATOM     12  C   UNL     1      -4.569 -12.074  18.776  0.00  0.00    +0.189 C 
ATOM     13  C   UNL     1      -2.912 -10.992  16.019  0.00  0.00    +0.181 C 
ENDROOT
BRANCH  10   3
ATOM      3  N   UNL     1      -6.775 -10.743  18.748  0.00  0.00    -0.243 N 
ATOM      5  N   UNL     1      -7.246 -11.305  19.873  0.00  0.00    -0.065 NA
ATOM      6  N   UNL     1      -8.562 -11.124  19.883  0.00  0.00    -0.128 NA
ATOM     15  C   UNL     1      -7.773 -10.187  18.009  0.00  0.00    +0.140 A 
ATOM     16  C   UNL     1      -8.901 -10.441  18.747  0.00  0.00    +0.131 A 
BRANCH  16  18
ATOM      7  N   UNL     1     -10.420  -9.726  17.099  0.00  0.00    -0.253 NA
ATOM     18  C   UNL     1     -10.230 -10.056  18.396  0.00  0.00    +0.092 A 
ATOM     23  C   UNL     1     -11.229 -10.036  19.356  0.00  0.00    +0.030 A 
ATOM     25  C   UNL     1     -12.505  -9.653  18.959  0.00  0.00    +0.004 A 
ATOM     26  C   UNL     1     -11.674  -9.358  16.750  0.00  0.00    +0.111 A 
ATOM     27  C   UNL     1     -12.741  -9.305  17.633  0.00  0.00    +0.020 A 
ENDBRANCH  16  18
ENDBRANCH  10   3
BRANCH  11   4
ATOM      4  N   UNL     1      -4.299 -11.693  14.140  0.00  0.00    -0.305 NA
ATOM     28  H   UNL     1      -4.960 -10.921  14.240  0.00  0.00    +0.123 HD
BRANCH   4  14
ATOM     14  C   UNL     1      -3.202 -11.252  13.293  0.00  0.00    +0.116 C 
BRANCH  14  17
ATOM     17  C   UNL     1      -3.679 -10.362  12.176  0.00  0.00    -0.034 A 
ATOM     19  C   UNL     1      -4.978  -9.856  12.195  0.00  0.00    +0.005 A 
ATOM     20  C   UNL     1      -2.822 -10.044  11.123  0.00  0.00    +0.005 A 
ATOM     21  C   UNL     1      -5.421  -9.032  11.160  0.00  0.00    +0.000 A 
ATOM     22  C   UNL     1      -3.264  -9.219  10.088  0.00  0.00    +0.000 A 
ATOM     24  C   UNL     1      -4.564  -8.713  10.107  0.00  0.00    +0.000 A 
ENDBRANCH  14  17
ENDBRANCH   4  14
ENDBRANCH  11   4
TORSDOF 5
ENDMDL
MODEL 6
REMARK VINA RESULT:      -6.8     26.748     28.721
REMARK  Name = 40533382
REMARK  5 active torsions:
REMARK  status: ('A' for Active; 'I' for Inactive)
REMARK    1  A    between atoms: N_3  and  C_10
REMARK    2  A    between atoms: N_4  and  C_11
REMARK    3  A    between atoms: N_4  and  C_14
REMARK    4  A    between atoms: C_14  and  C_17
REMARK    5  A    between atoms: C_16  and  C_18
REMARK                            x       y       z     vdW  Elec       q    Type
REMARK                         _______ _______ _______ _____ _____    ______ ____
ROOT
ATOM      1  O   UNL     1      -1.692  -9.943  13.180  0.00  0.00    -0.370 OA
ATOM      2  O   UNL     1      -2.700 -12.867  12.964  0.00  0.00    -0.370 OA
ATOM      8  C   UNL     1      -3.356 -11.596  12.790  0.00  0.00    +0.175 C 
ATOM      9  C   UNL     1      -2.766 -10.652  13.819  0.00  0.00    +0.168 C 
ATOM     10  C   UNL     1      -2.966 -10.992  11.452  0.00  0.00    +0.166 C 
ATOM     11  C   UNL     1      -2.225 -11.566  14.896  0.00  0.00    +0.111 C 
ATOM     12  C   UNL     1      -1.647 -10.300  11.792  0.00  0.00    +0.189 C 
ATOM     13  C   UNL     1      -1.815 -12.790  14.092  0.00  0.00    +0.181 C 
ENDROOT
BRANCH  10   3
ATOM      3  N   UNL     1      -4.060 -10.090  10.913  0.00  0.00    -0.243 N 
ATOM      5  N   UNL     1      -3.758  -8.921  10.325  0.00  0.00    -0.065 NA
ATOM      6  N   UNL     1      -4.903  -8.357   9.958  0.00  0.00    -0.128 NA
ATOM     15  C   UNL     1      -5.404 -10.306  10.937  0.00  0.00    +0.140 A 
ATOM     16  C   UNL     1      -5.921  -9.193  10.325  0.00  0.00    +0.131 A 
BRANCH  16  18
ATOM      7  N   UNL     1      -7.585  -8.024   9.140  0.00  0.00    -0.253 NA
ATOM     18  C   UNL     1      -7.306  -8.935  10.100  0.00  0.00    +0.092 A 
ATOM     23  C   UNL     1      -8.271  -9.599  10.842  0.00  0.00    +0.030 A 
ATOM     25  C   UNL     1      -9.605  -9.309  10.583  0.00  0.00    +0.004 A 
ATOM     26  C   UNL     1      -8.893  -7.769   8.916  0.00  0.00    +0.111 A 
ATOM     27  C   UNL     1      -9.931  -8.378   9.603  0.00  0.00    +0.020 A 
ENDBRANCH  16  18
ENDBRANCH  10   3
BRANCH  11   4
ATOM      4  N   UNL     1      -3.280 -11.928  15.841  0.00  0.00    -0.305 NA
ATOM     28  H   UNL     1      -3.094 -12.859  16.215  0.00  0.00    +0.123 HD
BRANCH   4  14
ATOM     14  C   UNL     1      -3.323 -10.987  16.949  0.00  0.00    +0.116 C 
BRANCH  14  17
ATOM     17  C   UNL     1      -4.734 -10.574  17.279  0.00  0.00    -0.034 A 
ATOM     19  C   UNL     1      -5.513  -9.929  16.319  0.00  0.00    +0.005 A 
ATOM     20  C   UNL     1      -5.260 -10.837  18.543  0.00  0.00    +0.005 A 
ATOM     21  C   UNL     1      -6.819  -9.547  16.624  0.00  0.00    +0.000 A 
ATOM     22  C   UNL     1      -6.567 -10.455  18.848  0.00  0.00    +0.000 A 
ATOM     24  C   UNL     1      -7.346  -9.809  17.888  0.00  0.00    +0.000 A 
ENDBRANCH  14  17
ENDBRANCH   4  14
ENDBRANCH  11   4
TORSDOF 5
ENDMDL
MODEL 7
REMARK VINA RESULT:      -6.8      5.396      8.073
REMARK  Name = 40533382
REMARK  5 active torsions:
REMARK  status: ('A' for Active; 'I' for Inactive)
REMARK    1  A    between atoms: N_3  and  C_10
REMARK    2  A    between atoms: N_4  and  C_11
REMARK    3  A    between atoms: N_4  and  C_14
REMARK    4  A    between atoms: C_14  and  C_17
REMARK    5  A    between atoms: C_16  and  C_18
REMARK                            x       y       z     vdW  Elec       q    Type
REMARK                         _______ _______ _______ _____ _____    ______ ____
ROOT
ATOM      1  O   UNL     1      19.566   8.058  23.018  0.00  0.00    -0.370 OA
ATOM      2  O   UNL     1      20.841   6.864  20.456  0.00  0.00    -0.370 OA
ATOM      8  C   UNL     1      19.552   6.686  21.075  0.00  0.00    +0.175 C 
ATOM      9  C   UNL     1      19.778   6.707  22.574  0.00  0.00    +0.168 C 
ATOM     10  C   UNL     1      18.676   7.897  20.806  0.00  0.00    +0.166 C 
ATOM     11  C   UNL     1      21.232   6.323  22.737  0.00  0.00    +0.111 C 
ATOM     12  C   UNL     1      19.112   8.853  21.914  0.00  0.00    +0.189 C 
ATOM     13  C   UNL     1      21.852   6.899  21.474  0.00  0.00    +0.181 C 
ENDROOT
BRANCH  10   3
ATOM      3  N   UNL     1      17.206   7.526  20.800  0.00  0.00    -0.243 N 
ATOM      5  N   UNL     1      16.787   6.393  20.211  0.00  0.00    -0.065 NA
ATOM      6  N   UNL     1      15.469   6.334  20.363  0.00  0.00    -0.128 NA
ATOM     15  C   UNL     1      16.170   8.220  21.345  0.00  0.00    +0.140 A 
ATOM     16  C   UNL     1      15.075   7.446  21.056  0.00  0.00    +0.131 A 
BRANCH  16  18
ATOM      7  N   UNL     1      12.841   6.735  21.257  0.00  0.00    -0.253 NA
ATOM     18  C   UNL     1      13.726   7.744  21.417  0.00  0.00    +0.092 A 
ATOM     23  C   UNL     1      13.393   9.001  21.896  0.00  0.00    +0.030 A 
ATOM     25  C   UNL     1      12.065   9.238  22.232  0.00  0.00    +0.004 A 
ATOM     26  C   UNL     1      11.559   7.002  21.594  0.00  0.00    +0.111 A 
ATOM     27  C   UNL     1      11.123   8.225  22.081  0.00  0.00    +0.020 A 
ENDBRANCH  16  18
ENDBRANCH  10   3
BRANCH  11   4
ATOM      4  N   UNL     1      21.383   4.870  22.741  0.00  0.00    -0.305 NA
ATOM     28  H   UNL     1      21.385   4.527  21.780  0.00  0.00    +0.123 HD
BRANCH   4  14
ATOM     14  C   UNL     1      22.636   4.483  23.370  0.00  0.00    +0.116 C 
BRANCH  14  17
ATOM     17  C   UNL     1      23.230   3.257  22.728  0.00  0.00    -0.034 A 
ATOM     19  C   UNL     1      23.372   3.196  21.342  0.00  0.00    +0.005 A 
ATOM     20  C   UNL     1      23.638   2.183  23.519  0.00  0.00    +0.005 A 
ATOM     21  C   UNL     1      23.923   2.061  20.747  0.00  0.00    +0.000 A 
ATOM     22  C   UNL     1      24.188   1.048  22.924  0.00  0.00    +0.000 A 
ATOM     24  C   UNL     1      24.330   0.987  21.538  0.00  0.00    +0.000 A 
ENDBRANCH  14  17
ENDBRANCH   4  14
ENDBRANCH  11   4
TORSDOF 5
ENDMDL
MODEL 8
REMARK VINA RESULT:      -6.6      4.988      8.246
REMARK  Name = 40533382
REMARK  5 active torsions:
REMARK  status: ('A' for Active; 'I' for Inactive)
REMARK    1  A    between atoms: N_3  and  C_10
REMARK    2  A    between atoms: N_4  and  C_11
REMARK    3  A    between atoms: N_4  and  C_14
REMARK    4  A    between atoms: C_14  and  C_17
REMARK    5  A    between atoms: C_16  and  C_18
REMARK                            x       y       z     vdW  Elec       q    Type
REMARK                         _______ _______ _______ _____ _____    ______ ____
ROOT
ATOM      1  O   UNL     1      20.200   6.436  23.060  0.00  0.00    -0.370 OA
ATOM      2  O   UNL     1      21.830   7.529  20.659  0.00  0.00    -0.370 OA
ATOM      8  C   UNL     1      20.581   6.815  20.744  0.00  0.00    +0.175 C 
ATOM      9  C   UNL     1      20.722   5.814  21.874  0.00  0.00    +0.168 C 
ATOM     10  C   UNL     1      19.478   7.753  21.202  0.00  0.00    +0.166 C 
ATOM     11  C   UNL     1      22.215   5.607  22.003  0.00  0.00    +0.111 C 
ATOM     12  C   UNL     1      19.641   7.712  22.720  0.00  0.00    +0.189 C 
ATOM     13  C   UNL     1      22.757   6.969  21.601  0.00  0.00    +0.181 C 
ENDROOT
BRANCH  10   3
ATOM      3  N   UNL     1      18.125   7.315  20.674  0.00  0.00    -0.243 N 
ATOM      5  N   UNL     1      18.031   6.345  19.751  0.00  0.00    -0.065 NA
ATOM      6  N   UNL     1      16.741   6.178  19.484  0.00  0.00    -0.128 NA
ATOM     15  C   UNL     1      16.900   7.794  21.024  0.00  0.00    +0.140 A 
ATOM     16  C   UNL     1      16.034   7.058  20.256  0.00  0.00    +0.131 A 
BRANCH  16  18
ATOM      7  N   UNL     1      14.022   7.168  21.471  0.00  0.00    -0.253 NA
ATOM     18  C   UNL     1      14.612   7.183  20.255  0.00  0.00    +0.092 A 
ATOM     23  C   UNL     1      13.923   7.308  19.059  0.00  0.00    +0.030 A 
ATOM     25  C   UNL     1      12.539   7.426  19.115  0.00  0.00    +0.004 A 
ATOM     26  C   UNL     1      12.675   7.284  21.485  0.00  0.00    +0.111 A 
ATOM     27  C   UNL     1      11.895   7.414  20.347  0.00  0.00    +0.020 A 
ENDBRANCH  16  18
ENDBRANCH  10   3
BRANCH  11   4
ATOM      4  N   UNL     1      22.676   4.593  21.057  0.00  0.00    -0.305 NA
ATOM     28  H   UNL     1      23.693   4.522  21.107  0.00  0.00    +0.123 HD
BRANCH   4  14
ATOM     14  C   UNL     1      22.108   3.293  21.376  0.00  0.00    +0.116 C 
BRANCH  14  17
ATOM     17  C   UNL     1      23.139   2.356  21.949  0.00  0.00    -0.034 A 
ATOM     19  C   UNL     1      23.214   2.162  23.328  0.00  0.00    +0.005 A 
ATOM     20  C   UNL     1      24.018   1.683  21.101  0.00  0.00    +0.005 A 
ATOM     21  C   UNL     1      24.168   1.294  23.859  0.00  0.00    +0.000 A 
ATOM     22  C   UNL     1      24.972   0.815  21.632  0.00  0.00    +0.000 A 
ATOM     24  C   UNL     1      25.047   0.621  23.011  0.00  0.00    +0.000 A 
ENDBRANCH  14  17
ENDBRANCH   4  14
ENDBRANCH  11   4
TORSDOF 5
ENDMDL
MODEL 9
REMARK VINA RESULT:      -6.5     26.849     28.578
REMARK  Name = 40533382
REMARK  5 active torsions:
REMARK  status: ('A' for Active; 'I' for Inactive)
REMARK    1  A    between atoms: N_3  and  C_10
REMARK    2  A    between atoms: N_4  and  C_11
REMARK    3  A    between atoms: N_4  and  C_14
REMARK    4  A    between atoms: C_14  and  C_17
REMARK    5  A    between atoms: C_16  and  C_18
REMARK                            x       y       z     vdW  Elec       q    Type
REMARK                         _______ _______ _______ _____ _____    ______ ____
ROOT
ATOM      1  O   UNL     1      -1.696  -9.889  13.090  0.00  0.00    -0.370 OA
ATOM      2  O   UNL     1      -2.356 -12.917  12.965  0.00  0.00    -0.370 OA
ATOM      8  C   UNL     1      -3.141 -11.737  12.702  0.00  0.00    +0.175 C 
ATOM      9  C   UNL     1      -2.714 -10.691  13.712  0.00  0.00    +0.168 C 
ATOM     10  C   UNL     1      -2.756 -11.147  11.357  0.00  0.00    +0.166 C 
ATOM     11  C   UNL     1      -2.128 -11.492  14.853  0.00  0.00    +0.111 C 
ATOM     12  C   UNL     1      -1.542 -10.296  11.723  0.00  0.00    +0.189 C 
ATOM     13  C   UNL     1      -1.543 -12.692  14.126  0.00  0.00    +0.181 C 
ENDROOT
BRANCH  10   3
ATOM      3  N   UNL     1      -3.916 -10.400  10.728  0.00  0.00    -0.243 N 
ATOM      5  N   UNL     1      -4.721  -9.628  11.476  0.00  0.00    -0.065 NA
ATOM      6  N   UNL     1      -5.635  -9.107  10.664  0.00  0.00    -0.128 NA
ATOM     15  C   UNL     1      -4.292 -10.395   9.419  0.00  0.00    +0.140 A 
ATOM     16  C   UNL     1      -5.385  -9.567   9.401  0.00  0.00    +0.131 A 
BRANCH  16  18
ATOM      7  N   UNL     1      -7.161  -8.352   8.449  0.00  0.00    -0.253 NA
ATOM     18  C   UNL     1      -6.154  -9.230   8.246  0.00  0.00    +0.092 A 
ATOM     23  C   UNL     1      -5.850  -9.792   7.016  0.00  0.00    +0.030 A 
ATOM     25  C   UNL     1      -6.631  -9.430   5.924  0.00  0.00    +0.004 A 
ATOM     26  C   UNL     1      -7.899  -8.023   7.365  0.00  0.00    +0.111 A 
ATOM     27  C   UNL     1      -7.678  -8.529   6.093  0.00  0.00    +0.020 A 
ENDBRANCH  16  18
ENDBRANCH  10   3
BRANCH  11   4
ATOM      4  N   UNL     1      -3.181 -11.933  15.765  0.00  0.00    -0.305 NA
ATOM     28  H   UNL     1      -2.770 -12.163  16.671  0.00  0.00    +0.123 HD
BRANCH   4  14
ATOM     14  C   UNL     1      -4.166 -10.881  15.962  0.00  0.00    +0.116 C 
BRANCH  14  17
ATOM     17  C   UNL     1      -4.818 -10.969  17.317  0.00  0.00    -0.034 A 
ATOM     19  C   UNL     1      -4.211 -11.705  18.335  0.00  0.00    +0.005 A 
ATOM     20  C   UNL     1      -6.026 -10.316  17.555  0.00  0.00    +0.005 A 
ATOM     21  C   UNL     1      -4.814 -11.787  19.590  0.00  0.00    +0.000 A 
ATOM     22  C   UNL     1      -6.629 -10.398  18.810  0.00  0.00    +0.000 A 
ATOM     24  C   UNL     1      -6.023 -11.133  19.828  0.00  0.00    +0.000 A 
ENDBRANCH  14  17
ENDBRANCH   4  14
ENDBRANCH  11   4
TORSDOF 5
ENDMDL
MODEL 10
REMARK VINA RESULT:      -6.5     12.106     14.774
REMARK  Name = 40533382
REMARK  5 active torsions:
REMARK  status: ('A' for Active; 'I' for Inactive)
REMARK    1  A    between atoms: N_3  and  C_10
REMARK    2  A    between atoms: N_4  and  C_11
REMARK    3  A    between atoms: N_4  and  C_14
REMARK    4  A    between atoms: C_14  and  C_17
REMARK    5  A    between atoms: C_16  and  C_18
REMARK                            x       y       z     vdW  Elec       q    Type
REMARK                         _______ _______ _______ _____ _____    ______ ____
ROOT
ATOM      1  O   UNL     1      14.019   6.711   6.841  0.00  0.00    -0.370 OA
ATOM      2  O   UNL     1      13.489   9.481   5.552  0.00  0.00    -0.370 OA
ATOM      8  C   UNL     1      13.496   8.143   5.016  0.00  0.00    +0.175 C 
ATOM      9  C   UNL     1      14.609   7.393   5.722  0.00  0.00    +0.168 C 
ATOM     10  C   UNL     1      12.228   7.415   5.424  0.00  0.00    +0.166 C 
ATOM     11  C   UNL     1      15.544   8.480   6.203  0.00  0.00    +0.111 C 
ATOM     12  C   UNL     1      12.596   6.895   6.812  0.00  0.00    +0.189 C 
ATOM     13  C   UNL     1      14.582   9.626   6.471  0.00  0.00    +0.181 C 
ENDROOT
BRANCH  10   3
ATOM      3  N   UNL     1      11.846   6.357   4.407  0.00  0.00    -0.243 N 
ATOM      5  N   UNL     1      10.915   5.433   4.695  0.00  0.00    -0.065 NA
ATOM      6  N   UNL     1      10.792   4.651   3.628  0.00  0.00    -0.128 NA
ATOM     15  C   UNL     1      12.343   6.193   3.150  0.00  0.00    +0.140 A 
ATOM     16  C   UNL     1      11.660   5.103   2.673  0.00  0.00    +0.131 A 
BRANCH  16  18
ATOM      7  N   UNL     1      10.847   4.802   0.485  0.00  0.00    -0.253 NA
ATOM     18  C   UNL     1      11.821   4.522   1.379  0.00  0.00    +0.092 A 
ATOM     23  C   UNL     1      12.922   3.726   1.103  0.00  0.00    +0.030 A 
ATOM     25  C   UNL     1      13.030   3.184  -0.173  0.00  0.00    +0.004 A 
ATOM     26  C   UNL     1      10.985   4.258  -0.745  0.00  0.00    +0.111 A 
ATOM     27  C   UNL     1      12.047   3.450  -1.121  0.00  0.00    +0.020 A 
ENDBRANCH  16  18
ENDBRANCH  10   3
BRANCH  11   4
ATOM      4  N   UNL     1      16.479   8.858   5.146  0.00  0.00    -0.305 NA
ATOM     28  H   UNL     1      16.016   9.496   4.497  0.00  0.00    +0.123 HD
BRANCH   4  14
ATOM     14  C   UNL     1      17.641   9.534   5.702  0.00  0.00    +0.116 C 
BRANCH  14  17
ATOM     17  C   UNL     1      18.883   8.690   5.598  0.00  0.00    -0.034 A 
ATOM     19  C   UNL     1      19.759   8.602   6.680  0.00  0.00    +0.005 A 
ATOM     20  C   UNL     1      19.159   7.996   4.420  0.00  0.00    +0.005 A 
ATOM     21  C   UNL     1      20.910   7.820   6.584  0.00  0.00    +0.000 A 
ATOM     22  C   UNL     1      20.310   7.214   4.324  0.00  0.00    +0.000 A 
ATOM     24  C   UNL     1      21.185   7.126   5.406  0.00  0.00    +0.000 A 
ENDBRANCH  14  17
ENDBRANCH   4  14
ENDBRANCH  11   4
TORSDOF 5
ENDMDL
