MODEL 1
REMARK VINA RESULT:      -8.0      0.000      0.000
REMARK  Name = 45783576
REMARK  8 active torsions:
REMARK  status: ('A' for Active; 'I' for Inactive)
REMARK    1  A    between atoms: O_1  and  C_12
REMARK    2  A    between atoms: O_1  and  C_24
REMARK    3  A    between atoms: O_3  and  C_30
REMARK    4  A    between atoms: O_3  and  C_32
REMARK    5  A    between atoms: N_4  and  C_13
REMARK    6  A    between atoms: C_8  and  C_19
REMARK    7  A    between atoms: C_13  and  C_20
REMARK    8  A    between atoms: C_21  and  C_25
REMARK                            x       y       z     vdW  Elec       q    Type
REMARK                         _______ _______ _______ _____ _____    ______ ____
ROOT
ATOM      2  O   UNL     1      15.160   8.252  20.356  0.00  0.00    -0.336 OA
ATOM      5  N   UNL     1      16.280   6.623  19.302  0.00  0.00    -0.190 NA
ATOM      6  N   UNL     1      16.368   8.099  21.048  0.00  0.00    -0.056 NA
ATOM     19  C   UNL     1      15.189   7.346  19.343  0.00  0.00    +0.245 A 
ATOM     21  C   UNL     1      16.973   7.121  20.367  0.00  0.00    +0.204 A 
ENDROOT
BRANCH  21  25
ATOM      7  N   UNL     1      20.194   6.723  22.181  0.00  0.00    -0.221 NA
ATOM     24  C   UNL     1      20.734   5.715  21.460  0.00  0.00    +0.215 A 
ATOM     25  C   UNL     1      18.267   6.619  20.724  0.00  0.00    +0.041 A 
ATOM     28  C   UNL     1      20.112   5.117  20.375  0.00  0.00    +0.068 A 
ATOM     29  C   UNL     1      18.856   5.584  20.006  0.00  0.00    +0.018 A 
ATOM     31  C   UNL     1      18.971   7.150  21.793  0.00  0.00    +0.126 A 
BRANCH  24   1
ATOM      1  O   UNL     1      21.973   5.273  21.842  0.00  0.00    -0.473 OA
BRANCH   1  12
ATOM     12  C   UNL     1      22.611   4.335  20.982  0.00  0.00    +0.175 C 
ATOM     14  C   UNL     1      22.838   3.024  21.731  0.00  0.00    +0.044 C 
ATOM     15  C   UNL     1      23.925   4.924  20.467  0.00  0.00    +0.044 C 
ATOM     16  C   UNL     1      23.608   2.018  20.882  0.00  0.00    +0.004 C 
ATOM     17  C   UNL     1      24.695   3.919  19.618  0.00  0.00    +0.004 C 
ATOM     18  C   UNL     1      24.920   2.607  20.365  0.00  0.00    +0.000 C 
ENDBRANCH   1  12
ENDBRANCH  24   1
ENDBRANCH  21  25
BRANCH  19   8
ATOM      4  N   UNL     1      12.897   8.204  18.895  0.00  0.00    -0.287 NA
ATOM      8  C   UNL     1      13.978   7.312  18.433  0.00  0.00    +0.146 C 
ATOM      9  C   UNL     1      14.296   7.789  17.003  0.00  0.00    +0.030 C 
ATOM     10  C   UNL     1      13.303   8.909  16.728  0.00  0.00    +0.017 C 
ATOM     11  C   UNL     1      12.171   8.628  17.697  0.00  0.00    +0.085 C 
BRANCH   4  13
ATOM     13  C   UNL     1      12.018   7.581  19.876  0.00  0.00    +0.120 C 
BRANCH  13  20
ATOM     20  C   UNL     1      11.615   8.546  20.960  0.00  0.00    -0.033 A 
ATOM     22  C   UNL     1      10.925   8.086  22.083  0.00  0.00    +0.008 A 
ATOM     23  C   UNL     1      11.932   9.900  20.842  0.00  0.00    +0.008 A 
ATOM     26  C   UNL     1      10.552   8.981  23.086  0.00  0.00    +0.046 A 
ATOM     27  C   UNL     1      11.559  10.793  21.846  0.00  0.00    +0.046 A 
ATOM     30  C   UNL     1      10.869  10.334  22.968  0.00  0.00    +0.120 A 
BRANCH  30   3
ATOM      3  O   UNL     1      10.506  11.206  23.948  0.00  0.00    -0.495 OA
ATOM     32  C   UNL     1      11.489  11.519  24.934  0.00  0.00    +0.277 C 
ENDBRANCH  30   3
ENDBRANCH  13  20
ENDBRANCH   4  13
ENDBRANCH  19   8
TORSDOF 7
ENDMDL
MODEL 2
REMARK VINA RESULT:      -7.1     27.557     30.470
REMARK  Name = 45783576
REMARK  8 active torsions:
REMARK  status: ('A' for Active; 'I' for Inactive)
REMARK    1  A    between atoms: O_1  and  C_12
REMARK    2  A    between atoms: O_1  and  C_24
REMARK    3  A    between atoms: O_3  and  C_30
REMARK    4  A    between atoms: O_3  and  C_32
REMARK    5  A    between atoms: N_4  and  C_13
REMARK    6  A    between atoms: C_8  and  C_19
REMARK    7  A    between atoms: C_13  and  C_20
REMARK    8  A    between atoms: C_21  and  C_25
REMARK                            x       y       z     vdW  Elec       q    Type
REMARK                         _______ _______ _______ _____ _____    ______ ____
ROOT
ATOM      2  O   UNL     1      -6.776 -11.476  20.248  0.00  0.00    -0.336 OA
ATOM      5  N   UNL     1      -7.230 -12.381  18.250  0.00  0.00    -0.190 NA
ATOM      6  N   UNL     1      -5.686 -11.169  19.424  0.00  0.00    -0.056 NA
ATOM     19  C   UNL     1      -7.639 -12.191  19.479  0.00  0.00    +0.245 A 
ATOM     21  C   UNL     1      -6.028 -11.735  18.263  0.00  0.00    +0.204 A 
ENDROOT
BRANCH  21  25
ATOM      7  N   UNL     1      -4.504 -12.656  15.000  0.00  0.00    -0.221 NA
ATOM     24  C   UNL     1      -3.632 -11.632  14.862  0.00  0.00    +0.215 A 
ATOM     25  C   UNL     1      -5.193 -11.677  17.100  0.00  0.00    +0.041 A 
ATOM     28  C   UNL     1      -3.485 -10.609  15.786  0.00  0.00    +0.068 A 
ATOM     29  C   UNL     1      -4.284 -10.640  16.923  0.00  0.00    +0.018 A 
ATOM     31  C   UNL     1      -5.264 -12.653  16.119  0.00  0.00    +0.126 A 
BRANCH  24   1
ATOM      1  O   UNL     1      -2.857 -11.625  13.733  0.00  0.00    -0.473 OA
BRANCH   1  12
ATOM     12  C   UNL     1      -2.972 -10.487  12.886  0.00  0.00    +0.175 C 
ATOM     14  C   UNL     1      -4.298 -10.542  12.131  0.00  0.00    +0.044 C 
ATOM     15  C   UNL     1      -1.780 -10.437  11.929  0.00  0.00    +0.044 C 
ATOM     16  C   UNL     1      -4.425  -9.392  11.135  0.00  0.00    +0.004 C 
ATOM     17  C   UNL     1      -1.907  -9.289  10.934  0.00  0.00    +0.004 C 
ATOM     18  C   UNL     1      -3.234  -9.342  10.181  0.00  0.00    +0.000 C 
ENDBRANCH   1  12
ENDBRANCH  24   1
ENDBRANCH  21  25
BRANCH  19   8
ATOM      4  N   UNL     1     -10.126 -12.114  19.490  0.00  0.00    -0.287 NA
ATOM      8  C   UNL     1      -8.918 -12.649  20.149  0.00  0.00    +0.146 C 
ATOM      9  C   UNL     1      -9.095 -14.179  20.108  0.00  0.00    +0.030 C 
ATOM     10  C   UNL     1     -10.456 -14.405  19.466  0.00  0.00    +0.017 C 
ATOM     11  C   UNL     1     -11.186 -13.099  19.709  0.00  0.00    +0.085 C 
BRANCH   4  13
ATOM     13  C   UNL     1     -10.502 -10.790  19.967  0.00  0.00    +0.120 C 
BRANCH  13  20
ATOM     20  C   UNL     1     -10.811  -9.852  18.830  0.00  0.00    -0.033 A 
ATOM     22  C   UNL     1      -9.774  -9.208  18.154  0.00  0.00    +0.008 A 
ATOM     23  C   UNL     1     -12.135  -9.627  18.452  0.00  0.00    +0.008 A 
ATOM     26  C   UNL     1     -10.061  -8.339  17.101  0.00  0.00    +0.046 A 
ATOM     27  C   UNL     1     -12.421  -8.759  17.399  0.00  0.00    +0.046 A 
ATOM     30  C   UNL     1     -11.384  -8.115  16.724  0.00  0.00    +0.120 A 
BRANCH  30   3
ATOM      3  O   UNL     1     -11.664  -7.268  15.695  0.00  0.00    -0.495 OA
ATOM     32  C   UNL     1     -10.783  -6.161  15.507  0.00  0.00    +0.277 C 
ENDBRANCH  30   3
ENDBRANCH  13  20
ENDBRANCH   4  13
ENDBRANCH  19   8
TORSDOF 7
ENDMDL
MODEL 3
REMARK VINA RESULT:      -7.1     27.111     31.039
REMARK  Name = 45783576
REMARK  8 active torsions:
REMARK  status: ('A' for Active; 'I' for Inactive)
REMARK    1  A    between atoms: O_1  and  C_12
REMARK    2  A    between atoms: O_1  and  C_24
REMARK    3  A    between atoms: O_3  and  C_30
REMARK    4  A    between atoms: O_3  and  C_32
REMARK    5  A    between atoms: N_4  and  C_13
REMARK    6  A    between atoms: C_8  and  C_19
REMARK    7  A    between atoms: C_13  and  C_20
REMARK    8  A    between atoms: C_21  and  C_25
REMARK                            x       y       z     vdW  Elec       q    Type
REMARK                         _______ _______ _______ _____ _____    ______ ____
ROOT
ATOM      2  O   UNL     1      -4.336 -13.178  15.318  0.00  0.00    -0.336 OA
ATOM      5  N   UNL     1      -4.486 -11.291  16.516  0.00  0.00    -0.190 NA
ATOM      6  N   UNL     1      -5.523 -13.277  16.055  0.00  0.00    -0.056 NA
ATOM     19  C   UNL     1      -3.787 -11.979  15.649  0.00  0.00    +0.245 A 
ATOM     21  C   UNL     1      -5.542 -12.126  16.735  0.00  0.00    +0.204 A 
ENDROOT
BRANCH  21  25
ATOM      7  N   UNL     1      -7.338 -11.441  19.917  0.00  0.00    -0.221 NA
ATOM     24  C   UNL     1      -8.561 -11.142  19.425  0.00  0.00    +0.215 A 
ATOM     25  C   UNL     1      -6.599 -11.783  17.641  0.00  0.00    +0.041 A 
ATOM     28  C   UNL     1      -8.875 -11.142  18.075  0.00  0.00    +0.068 A 
ATOM     29  C   UNL     1      -7.870 -11.470  17.173  0.00  0.00    +0.018 A 
ATOM     31  C   UNL     1      -6.386 -11.756  19.010  0.00  0.00    +0.126 A 
BRANCH  24   1
ATOM      1  O   UNL     1      -9.535 -10.822  20.334  0.00  0.00    -0.473 OA
BRANCH   1  12
ATOM     12  C   UNL     1     -10.882 -11.041  19.930  0.00  0.00    +0.175 C 
ATOM     14  C   UNL     1     -11.740  -9.845  20.338  0.00  0.00    +0.044 C 
ATOM     15  C   UNL     1     -11.398 -12.341  20.549  0.00  0.00    +0.044 C 
ATOM     16  C   UNL     1     -13.213 -10.074  20.014  0.00  0.00    +0.004 C 
ATOM     17  C   UNL     1     -12.871 -12.570  20.227  0.00  0.00    +0.004 C 
ATOM     18  C   UNL     1     -13.728 -11.373  20.631  0.00  0.00    +0.000 C 
ENDBRANCH   1  12
ENDBRANCH  24   1
ENDBRANCH  21  25
BRANCH  19   8
ATOM      4  N   UNL     1      -2.644 -10.654  13.880  0.00  0.00    -0.287 NA
ATOM      8  C   UNL     1      -2.476 -11.629  14.976  0.00  0.00    +0.146 C 
ATOM      9  C   UNL     1      -1.472 -10.966  15.938  0.00  0.00    +0.030 C 
ATOM     10  C   UNL     1      -1.088  -9.654  15.270  0.00  0.00    +0.017 C 
ATOM     11  C   UNL     1      -1.395  -9.896  13.806  0.00  0.00    +0.085 C 
BRANCH   4  13
ATOM     13  C   UNL     1      -2.985 -11.275  12.606  0.00  0.00    +0.120 C 
BRANCH  13  20
ATOM     20  C   UNL     1      -3.805 -10.358  11.738  0.00  0.00    -0.033 A 
ATOM     22  C   UNL     1      -3.366 -10.036  10.453  0.00  0.00    +0.008 A 
ATOM     23  C   UNL     1      -5.005  -9.831  12.218  0.00  0.00    +0.008 A 
ATOM     26  C   UNL     1      -4.127  -9.186   9.649  0.00  0.00    +0.046 A 
ATOM     27  C   UNL     1      -5.765  -8.983  11.413  0.00  0.00    +0.046 A 
ATOM     30  C   UNL     1      -5.326  -8.660  10.129  0.00  0.00    +0.120 A 
BRANCH  30   3
ATOM      3  O   UNL     1      -6.069  -7.832   9.344  0.00  0.00    -0.495 OA
ATOM     32  C   UNL     1      -7.064  -8.439   8.521  0.00  0.00    +0.277 C 
ENDBRANCH  30   3
ENDBRANCH  13  20
ENDBRANCH   4  13
ENDBRANCH  19   8
TORSDOF 7
ENDMDL
MODEL 4
REMARK VINA RESULT:      -7.0     27.841     32.247
REMARK  Name = 45783576
REMARK  8 active torsions:
REMARK  status: ('A' for Active; 'I' for Inactive)
REMARK    1  A    between atoms: O_1  and  C_12
REMARK    2  A    between atoms: O_1  and  C_24
REMARK    3  A    between atoms: O_3  and  C_30
REMARK    4  A    between atoms: O_3  and  C_32
REMARK    5  A    between atoms: N_4  and  C_13
REMARK    6  A    between atoms: C_8  and  C_19
REMARK    7  A    between atoms: C_13  and  C_20
REMARK    8  A    between atoms: C_21  and  C_25
REMARK                            x       y       z     vdW  Elec       q    Type
REMARK                         _______ _______ _______ _____ _____    ______ ____
ROOT
ATOM      2  O   UNL     1      -8.179  -9.921   7.308  0.00  0.00    -0.336 OA
ATOM      5  N   UNL     1      -7.340  -8.002   8.101  0.00  0.00    -0.190 NA
ATOM      6  N   UNL     1      -9.280  -9.110   7.611  0.00  0.00    -0.056 NA
ATOM     19  C   UNL     1      -7.077  -9.193   7.626  0.00  0.00    +0.245 A 
ATOM     21  C   UNL     1      -8.704  -7.996   8.072  0.00  0.00    +0.204 A 
ENDROOT
BRANCH  21  25
ATOM      7  N   UNL     1     -11.451  -5.994   9.578  0.00  0.00    -0.221 NA
ATOM     24  C   UNL     1     -10.959  -4.750   9.377  0.00  0.00    +0.215 A 
ATOM     25  C   UNL     1      -9.461  -6.862   8.513  0.00  0.00    +0.041 A 
ATOM     28  C   UNL     1      -9.745  -4.487   8.762  0.00  0.00    +0.068 A 
ATOM     29  C   UNL     1      -8.989  -5.568   8.325  0.00  0.00    +0.018 A 
ATOM     31  C   UNL     1     -10.688  -7.020   9.139  0.00  0.00    +0.126 A 
BRANCH  24   1
ATOM      1  O   UNL     1     -11.723  -3.702   9.817  0.00  0.00    -0.473 OA
BRANCH   1  12
ATOM     12  C   UNL     1     -12.792  -4.017  10.703  0.00  0.00    +0.175 C 
ATOM     14  C   UNL     1     -14.071  -3.334  10.224  0.00  0.00    +0.044 C 
ATOM     15  C   UNL     1     -12.423  -3.591  12.124  0.00  0.00    +0.044 C 
ATOM     16  C   UNL     1     -15.226  -3.562  11.196  0.00  0.00    +0.004 C 
ATOM     17  C   UNL     1     -13.577  -3.818  13.095  0.00  0.00    +0.004 C 
ATOM     18  C   UNL     1     -14.856  -3.138  12.616  0.00  0.00    +0.000 C 
ENDBRANCH   1  12
ENDBRANCH  24   1
ENDBRANCH  21  25
BRANCH  19   8
ATOM      4  N   UNL     1      -5.083 -10.283   8.640  0.00  0.00    -0.287 NA
ATOM      8  C   UNL     1      -5.737  -9.858   7.387  0.00  0.00    +0.146 C 
ATOM      9  C   UNL     1      -5.853 -11.146   6.549  0.00  0.00    +0.030 C 
ATOM     10  C   UNL     1      -5.185 -12.226   7.386  0.00  0.00    +0.017 C 
ATOM     11  C   UNL     1      -4.263 -11.447   8.303  0.00  0.00    +0.085 C 
BRANCH   4  13
ATOM     13  C   UNL     1      -4.302  -9.226   9.269  0.00  0.00    +0.120 C 
BRANCH  13  20
ATOM     20  C   UNL     1      -3.714  -9.670  10.582  0.00  0.00    -0.033 A 
ATOM     22  C   UNL     1      -4.553 -10.095  11.614  0.00  0.00    +0.008 A 
ATOM     23  C   UNL     1      -2.332  -9.656  10.768  0.00  0.00    +0.008 A 
ATOM     26  C   UNL     1      -4.008 -10.505  12.831  0.00  0.00    +0.046 A 
ATOM     27  C   UNL     1      -1.788 -10.068  11.985  0.00  0.00    +0.046 A 
ATOM     30  C   UNL     1      -2.626 -10.492  13.016  0.00  0.00    +0.120 A 
BRANCH  30   3
ATOM      3  O   UNL     1      -2.094 -10.894  14.203  0.00  0.00    -0.495 OA
ATOM     32  C   UNL     1      -2.622 -12.088  14.780  0.00  0.00    +0.277 C 
ENDBRANCH  30   3
ENDBRANCH  13  20
ENDBRANCH   4  13
ENDBRANCH  19   8
TORSDOF 7
ENDMDL
MODEL 5
REMARK VINA RESULT:      -7.0     29.305     32.044
REMARK  Name = 45783576
REMARK  8 active torsions:
REMARK  status: ('A' for Active; 'I' for Inactive)
REMARK    1  A    between atoms: O_1  and  C_12
REMARK    2  A    between atoms: O_1  and  C_24
REMARK    3  A    between atoms: O_3  and  C_30
REMARK    4  A    between atoms: O_3  and  C_32
REMARK    5  A    between atoms: N_4  and  C_13
REMARK    6  A    between atoms: C_8  and  C_19
REMARK    7  A    between atoms: C_13  and  C_20
REMARK    8  A    between atoms: C_21  and  C_25
REMARK                            x       y       z     vdW  Elec       q    Type
REMARK                         _______ _______ _______ _____ _____    ______ ____
ROOT
ATOM      2  O   UNL     1     -13.228  -6.358  12.477  0.00  0.00    -0.336 OA
ATOM      5  N   UNL     1     -11.937  -5.505  14.096  0.00  0.00    -0.190 NA
ATOM      6  N   UNL     1     -12.689  -7.454  13.163  0.00  0.00    -0.056 NA
ATOM     19  C   UNL     1     -12.735  -5.250  13.090  0.00  0.00    +0.245 A 
ATOM     21  C   UNL     1     -11.940  -6.869  14.103  0.00  0.00    +0.204 A 
ENDROOT
BRANCH  21  25
ATOM      7  N   UNL     1     -10.283  -9.745  15.778  0.00  0.00    -0.221 NA
ATOM     24  C   UNL     1      -9.753  -9.108  16.846  0.00  0.00    +0.215 A 
ATOM     25  C   UNL     1     -11.182  -7.618  15.062  0.00  0.00    +0.041 A 
ATOM     28  C   UNL     1      -9.891  -7.750  17.087  0.00  0.00    +0.068 A 
ATOM     29  C   UNL     1     -10.621  -6.999  16.173  0.00  0.00    +0.018 A 
ATOM     31  C   UNL     1     -10.986  -8.982  14.911  0.00  0.00    +0.126 A 
BRANCH  24   1
ATOM      1  O   UNL     1      -9.039  -9.871  17.732  0.00  0.00    -0.473 OA
BRANCH   1  12
ATOM     12  C   UNL     1      -7.630  -9.670  17.757  0.00  0.00    +0.175 C 
ATOM     14  C   UNL     1      -7.071  -9.778  16.340  0.00  0.00    +0.044 C 
ATOM     15  C   UNL     1      -6.983 -10.688  18.696  0.00  0.00    +0.044 C 
ATOM     16  C   UNL     1      -5.550  -9.667  16.326  0.00  0.00    +0.004 C 
ATOM     17  C   UNL     1      -5.462 -10.578  18.683  0.00  0.00    +0.004 C 
ATOM     18  C   UNL     1      -4.904 -10.683  17.266  0.00  0.00    +0.000 C 
ENDBRANCH   1  12
ENDBRANCH  24   1
ENDBRANCH  21  25
BRANCH  19   8
ATOM      4  N   UNL     1     -13.149  -3.885  11.051  0.00  0.00    -0.287 NA
ATOM      8  C   UNL     1     -13.176  -3.915  12.527  0.00  0.00    +0.146 C 
ATOM      9  C   UNL     1     -14.630  -3.564  12.898  0.00  0.00    +0.030 C 
ATOM     10  C   UNL     1     -15.325  -3.294  11.571  0.00  0.00    +0.017 C 
ATOM     11  C   UNL     1     -14.185  -2.939  10.638  0.00  0.00    +0.085 C 
BRANCH   4  13
ATOM     13  C   UNL     1     -11.842  -3.537  10.508  0.00  0.00    +0.120 C 
BRANCH  13  20
ATOM     20  C   UNL     1     -11.340  -4.581   9.545  0.00  0.00    -0.033 A 
ATOM     22  C   UNL     1     -12.167  -5.642   9.173  0.00  0.00    +0.008 A 
ATOM     23  C   UNL     1     -10.049  -4.486   9.024  0.00  0.00    +0.008 A 
ATOM     26  C   UNL     1     -11.701  -6.608   8.281  0.00  0.00    +0.046 A 
ATOM     27  C   UNL     1      -9.585  -5.452   8.132  0.00  0.00    +0.046 A 
ATOM     30  C   UNL     1     -10.411  -6.514   7.761  0.00  0.00    +0.120 A 
BRANCH  30   3
ATOM      3  O   UNL     1      -9.957  -7.456   6.889  0.00  0.00    -0.495 OA
ATOM     32  C   UNL     1      -8.577  -7.397   6.529  0.00  0.00    +0.277 C 
ENDBRANCH  30   3
ENDBRANCH  13  20
ENDBRANCH   4  13
ENDBRANCH  19   8
TORSDOF 7
ENDMDL
MODEL 6
REMARK VINA RESULT:      -6.9     27.374     31.885
REMARK  Name = 45783576
REMARK  8 active torsions:
REMARK  status: ('A' for Active; 'I' for Inactive)
REMARK    1  A    between atoms: O_1  and  C_12
REMARK    2  A    between atoms: O_1  and  C_24
REMARK    3  A    between atoms: O_3  and  C_30
REMARK    4  A    between atoms: O_3  and  C_32
REMARK    5  A    between atoms: N_4  and  C_13
REMARK    6  A    between atoms: C_8  and  C_19
REMARK    7  A    between atoms: C_13  and  C_20
REMARK    8  A    between atoms: C_21  and  C_25
REMARK                            x       y       z     vdW  Elec       q    Type
REMARK                         _______ _______ _______ _____ _____    ______ ____
ROOT
ATOM      2  O   UNL     1      -8.333 -11.147  15.612  0.00  0.00    -0.336 OA
ATOM      5  N   UNL     1      -8.928  -9.524  17.036  0.00  0.00    -0.190 NA
ATOM      6  N   UNL     1      -9.161 -10.278  14.889  0.00  0.00    -0.056 NA
ATOM     19  C   UNL     1      -8.248 -10.629  16.866  0.00  0.00    +0.245 A 
ATOM     21  C   UNL     1      -9.470  -9.347  15.797  0.00  0.00    +0.204 A 
ENDROOT
BRANCH  21  25
ATOM      7  N   UNL     1     -11.999  -7.236  14.073  0.00  0.00    -0.221 NA
ATOM     24  C   UNL     1     -11.960  -6.144  14.868  0.00  0.00    +0.215 A 
ATOM     25  C   UNL     1     -10.319  -8.231  15.499  0.00  0.00    +0.041 A 
ATOM     28  C   UNL     1     -11.139  -6.022  15.979  0.00  0.00    +0.068 A 
ATOM     29  C   UNL     1     -10.306  -7.090  16.293  0.00  0.00    +0.018 A 
ATOM     31  C   UNL     1     -11.175  -8.254  14.409  0.00  0.00    +0.126 A 
BRANCH  24   1
ATOM      1  O   UNL     1     -12.790  -5.105  14.539  0.00  0.00    -0.473 OA
BRANCH   1  12
ATOM     12  C   UNL     1     -13.123  -4.966  13.162  0.00  0.00    +0.175 C 
ATOM     14  C   UNL     1     -12.254  -3.878  12.532  0.00  0.00    +0.044 C 
ATOM     15  C   UNL     1     -14.612  -4.647  13.024  0.00  0.00    +0.044 C 
ATOM     16  C   UNL     1     -12.641  -3.623  11.079  0.00  0.00    +0.004 C 
ATOM     17  C   UNL     1     -14.998  -4.391  11.571  0.00  0.00    +0.004 C 
ATOM     18  C   UNL     1     -14.129  -3.307  10.941  0.00  0.00    +0.000 C 
ENDBRANCH   1  12
ENDBRANCH  24   1
ENDBRANCH  21  25
BRANCH  19   8
ATOM      4  N   UNL     1      -5.951 -11.257  17.586  0.00  0.00    -0.287 NA
ATOM      8  C   UNL     1      -7.395 -11.396  17.855  0.00  0.00    +0.146 C 
ATOM      9  C   UNL     1      -7.574 -10.900  19.303  0.00  0.00    +0.030 C 
ATOM     10  C   UNL     1      -6.169 -10.563  19.783  0.00  0.00    +0.017 C 
ATOM     11  C   UNL     1      -5.276 -11.387  18.878  0.00  0.00    +0.085 C 
BRANCH   4  13
ATOM     13  C   UNL     1      -5.453 -12.217  16.610  0.00  0.00    +0.120 C 
BRANCH  13  20
ATOM     20  C   UNL     1      -4.432 -11.601  15.689  0.00  0.00    -0.033 A 
ATOM     22  C   UNL     1      -3.136 -11.359  16.146  0.00  0.00    +0.008 A 
ATOM     23  C   UNL     1      -4.782 -11.274  14.379  0.00  0.00    +0.008 A 
ATOM     26  C   UNL     1      -2.192 -10.788  15.293  0.00  0.00    +0.046 A 
ATOM     27  C   UNL     1      -3.837 -10.704  13.526  0.00  0.00    +0.046 A 
ATOM     30  C   UNL     1      -2.542 -10.461  13.984  0.00  0.00    +0.120 A 
BRANCH  30   3
ATOM      3  O   UNL     1      -1.619  -9.906  13.151  0.00  0.00    -0.495 OA
ATOM     32  C   UNL     1      -1.757 -10.176  11.756  0.00  0.00    +0.277 C 
ENDBRANCH  30   3
ENDBRANCH  13  20
ENDBRANCH   4  13
ENDBRANCH  19   8
TORSDOF 7
ENDMDL
MODEL 7
REMARK VINA RESULT:      -6.9     26.679     30.924
REMARK  Name = 45783576
REMARK  8 active torsions:
REMARK  status: ('A' for Active; 'I' for Inactive)
REMARK    1  A    between atoms: O_1  and  C_12
REMARK    2  A    between atoms: O_1  and  C_24
REMARK    3  A    between atoms: O_3  and  C_30
REMARK    4  A    between atoms: O_3  and  C_32
REMARK    5  A    between atoms: N_4  and  C_13
REMARK    6  A    between atoms: C_8  and  C_19
REMARK    7  A    between atoms: C_13  and  C_20
REMARK    8  A    between atoms: C_21  and  C_25
REMARK                            x       y       z     vdW  Elec       q    Type
REMARK                         _______ _______ _______ _____ _____    ______ ____
ROOT
ATOM      2  O   UNL     1      -4.943 -11.998  16.641  0.00  0.00    -0.336 OA
ATOM      5  N   UNL     1      -5.395 -10.123  15.501  0.00  0.00    -0.190 NA
ATOM      6  N   UNL     1      -6.229 -11.603  17.033  0.00  0.00    -0.056 NA
ATOM     19  C   UNL     1      -4.525 -11.072  15.738  0.00  0.00    +0.245 A 
ATOM     21  C   UNL     1      -6.424 -10.492  16.317  0.00  0.00    +0.204 A 
ENDROOT
BRANCH  21  25
ATOM      7  N   UNL     1      -9.189  -8.453  17.740  0.00  0.00    -0.221 NA
ATOM     24  C   UNL     1      -9.925  -8.262  16.622  0.00  0.00    +0.215 A 
ATOM     25  C   UNL     1      -7.633  -9.726  16.396  0.00  0.00    +0.041 A 
ATOM     28  C   UNL     1      -9.586  -8.763  15.375  0.00  0.00    +0.068 A 
ATOM     29  C   UNL     1      -8.417  -9.508  15.269  0.00  0.00    +0.018 A 
ATOM     31  C   UNL     1      -8.059  -9.183  17.598  0.00  0.00    +0.126 A 
BRANCH  24   1
ATOM      1  O   UNL     1     -11.071  -7.524  16.753  0.00  0.00    -0.473 OA
BRANCH   1  12
ATOM     12  C   UNL     1     -11.810  -7.275  15.562  0.00  0.00    +0.175 C 
ATOM     14  C   UNL     1     -11.883  -5.770  15.310  0.00  0.00    +0.044 C 
ATOM     15  C   UNL     1     -13.203  -7.894  15.683  0.00  0.00    +0.044 C 
ATOM     16  C   UNL     1     -12.749  -5.445  14.097  0.00  0.00    +0.004 C 
ATOM     17  C   UNL     1     -14.069  -7.569  14.471  0.00  0.00    +0.004 C 
ATOM     18  C   UNL     1     -14.140  -6.066  14.217  0.00  0.00    +0.000 C 
ENDBRANCH   1  12
ENDBRANCH  24   1
ENDBRANCH  21  25
BRANCH  19   8
ATOM      4  N   UNL     1      -2.926 -10.493  13.922  0.00  0.00    -0.287 NA
ATOM      8  C   UNL     1      -3.142 -11.276  15.154  0.00  0.00    +0.146 C 
ATOM      9  C   UNL     1      -2.021 -10.821  16.108  0.00  0.00    +0.030 C 
ATOM     10  C   UNL     1      -1.191  -9.831  15.304  0.00  0.00    +0.017 C 
ATOM     11  C   UNL     1      -1.493 -10.199  13.865  0.00  0.00    +0.085 C 
BRANCH   4  13
ATOM     13  C   UNL     1      -3.393 -11.172  12.720  0.00  0.00    +0.120 C 
BRANCH  13  20
ATOM     20  C   UNL     1      -4.083 -10.225  11.774  0.00  0.00    -0.033 A 
ATOM     22  C   UNL     1      -3.421  -9.778  10.629  0.00  0.00    +0.008 A 
ATOM     23  C   UNL     1      -5.383  -9.795  12.041  0.00  0.00    +0.008 A 
ATOM     26  C   UNL     1      -4.060  -8.900   9.753  0.00  0.00    +0.046 A 
ATOM     27  C   UNL     1      -6.021  -8.919  11.164  0.00  0.00    +0.046 A 
ATOM     30  C   UNL     1      -5.359  -8.471  10.020  0.00  0.00    +0.120 A 
BRANCH  30   3
ATOM      3  O   UNL     1      -5.983  -7.615   9.164  0.00  0.00    -0.495 OA
ATOM     32  C   UNL     1      -7.309  -7.954   8.760  0.00  0.00    +0.277 C 
ENDBRANCH  30   3
ENDBRANCH  13  20
ENDBRANCH   4  13
ENDBRANCH  19   8
TORSDOF 7
ENDMDL
MODEL 8
REMARK VINA RESULT:      -6.9     14.861     17.271
REMARK  Name = 45783576
REMARK  8 active torsions:
REMARK  status: ('A' for Active; 'I' for Inactive)
REMARK    1  A    between atoms: O_1  and  C_12
REMARK    2  A    between atoms: O_1  and  C_24
REMARK    3  A    between atoms: O_3  and  C_30
REMARK    4  A    between atoms: O_3  and  C_32
REMARK    5  A    between atoms: N_4  and  C_13
REMARK    6  A    between atoms: C_8  and  C_19
REMARK    7  A    between atoms: C_13  and  C_20
REMARK    8  A    between atoms: C_21  and  C_25
REMARK                            x       y       z     vdW  Elec       q    Type
REMARK                         _______ _______ _______ _____ _____    ______ ____
ROOT
ATOM      2  O   UNL     1      12.699   6.601   7.054  0.00  0.00    -0.336 OA
ATOM      5  N   UNL     1      13.091   7.771   5.185  0.00  0.00    -0.190 NA
ATOM      6  N   UNL     1      14.086   6.784   6.993  0.00  0.00    -0.056 NA
ATOM     19  C   UNL     1      12.190   7.212   5.952  0.00  0.00    +0.245 A 
ATOM     21  C   UNL     1      14.239   7.484   5.864  0.00  0.00    +0.204 A 
ENDROOT
BRANCH  21  25
ATOM      7  N   UNL     1      17.669   8.917   5.852  0.00  0.00    -0.221 NA
ATOM     24  C   UNL     1      17.982   8.741   4.549  0.00  0.00    +0.215 A 
ATOM     25  C   UNL     1      15.522   7.907   5.387  0.00  0.00    +0.041 A 
ATOM     28  C   UNL     1      17.131   8.164   3.618  0.00  0.00    +0.068 A 
ATOM     29  C   UNL     1      15.880   7.743   4.054  0.00  0.00    +0.018 A 
ATOM     31  C   UNL     1      16.444   8.495   6.239  0.00  0.00    +0.126 A 
BRANCH  24   1
ATOM      1  O   UNL     1      19.220   9.164   4.144  0.00  0.00    -0.473 OA
BRANCH   1  12
ATOM     12  C   UNL     1      20.342   8.512   4.731  0.00  0.00    +0.175 C 
ATOM     14  C   UNL     1      21.492   9.506   4.879  0.00  0.00    +0.044 C 
ATOM     15  C   UNL     1      20.742   7.311   3.874  0.00  0.00    +0.044 C 
ATOM     16  C   UNL     1      22.752   8.830   5.413  0.00  0.00    +0.004 C 
ATOM     17  C   UNL     1      22.001   6.636   4.407  0.00  0.00    +0.004 C 
ATOM     18  C   UNL     1      23.150   7.629   4.558  0.00  0.00    +0.000 C 
ENDBRANCH   1  12
ENDBRANCH  24   1
ENDBRANCH  21  25
BRANCH  19   8
ATOM      4  N   UNL     1      10.247   5.981   5.004  0.00  0.00    -0.287 NA
ATOM      8  C   UNL     1      10.686   7.155   5.784  0.00  0.00    +0.146 C 
ATOM      9  C   UNL     1       9.941   7.033   7.127  0.00  0.00    +0.030 C 
ATOM     10  C   UNL     1       9.064   5.798   6.985  0.00  0.00    +0.017 C 
ATOM     11  C   UNL     1       8.907   5.643   5.485  0.00  0.00    +0.085 C 
BRANCH   4  13
ATOM     13  C   UNL     1      10.270   6.206   3.564  0.00  0.00    +0.120 C 
BRANCH  13  20
ATOM     20  C   UNL     1      11.352   5.404   2.890  0.00  0.00    -0.033 A 
ATOM     22  C   UNL     1      12.514   6.036   2.443  0.00  0.00    +0.008 A 
ATOM     23  C   UNL     1      11.193   4.029   2.713  0.00  0.00    +0.008 A 
ATOM     26  C   UNL     1      13.515   5.292   1.818  0.00  0.00    +0.046 A 
ATOM     27  C   UNL     1      12.195   3.287   2.089  0.00  0.00    +0.046 A 
ATOM     30  C   UNL     1      13.356   3.918   1.641  0.00  0.00    +0.120 A 
BRANCH  30   3
ATOM      3  O   UNL     1      14.334   3.192   1.033  0.00  0.00    -0.495 OA
ATOM     32  C   UNL     1      15.479   3.906   0.569  0.00  0.00    +0.277 C 
ENDBRANCH  30   3
ENDBRANCH  13  20
ENDBRANCH   4  13
ENDBRANCH  19   8
TORSDOF 7
ENDMDL
MODEL 9
REMARK VINA RESULT:      -6.8      4.538      9.257
REMARK  Name = 45783576
REMARK  8 active torsions:
REMARK  status: ('A' for Active; 'I' for Inactive)
REMARK    1  A    between atoms: O_1  and  C_12
REMARK    2  A    between atoms: O_1  and  C_24
REMARK    3  A    between atoms: O_3  and  C_30
REMARK    4  A    between atoms: O_3  and  C_32
REMARK    5  A    between atoms: N_4  and  C_13
REMARK    6  A    between atoms: C_8  and  C_19
REMARK    7  A    between atoms: C_13  and  C_20
REMARK    8  A    between atoms: C_21  and  C_25
REMARK                            x       y       z     vdW  Elec       q    Type
REMARK                         _______ _______ _______ _____ _____    ______ ____
ROOT
ATOM      2  O   UNL     1      12.111   8.147  17.210  0.00  0.00    -0.336 OA
ATOM      5  N   UNL     1      13.565   9.682  17.951  0.00  0.00    -0.190 NA
ATOM      6  N   UNL     1      12.639   8.766  16.070  0.00  0.00    -0.056 NA
ATOM     19  C   UNL     1      12.709   8.745  18.274  0.00  0.00    +0.245 A 
ATOM     21  C   UNL     1      13.489   9.658  16.589  0.00  0.00    +0.204 A 
ENDROOT
BRANCH  21  25
ATOM      7  N   UNL     1      15.686  10.855  13.839  0.00  0.00    -0.221 NA
ATOM     24  C   UNL     1      15.785  12.159  14.183  0.00  0.00    +0.215 A 
ATOM     25  C   UNL     1      14.273  10.540  15.776  0.00  0.00    +0.041 A 
ATOM     28  C   UNL     1      15.167  12.719  15.291  0.00  0.00    +0.068 A 
ATOM     29  C   UNL     1      14.399  11.886  16.097  0.00  0.00    +0.018 A 
ATOM     31  C   UNL     1      14.931  10.077  14.647  0.00  0.00    +0.126 A 
BRANCH  24   1
ATOM      1  O   UNL     1      16.548  12.958  13.373  0.00  0.00    -0.473 OA
BRANCH   1  12
ATOM     12  C   UNL     1      16.949  12.405  12.124  0.00  0.00    +0.175 C 
ATOM     14  C   UNL     1      18.466  12.513  11.980  0.00  0.00    +0.044 C 
ATOM     15  C   UNL     1      16.223  13.125  10.988  0.00  0.00    +0.044 C 
ATOM     16  C   UNL     1      18.936  12.022  10.614  0.00  0.00    +0.004 C 
ATOM     17  C   UNL     1      16.693  12.635   9.622  0.00  0.00    +0.004 C 
ATOM     18  C   UNL     1      18.209  12.739   9.479  0.00  0.00    +0.000 C 
ENDBRANCH   1  12
ENDBRANCH  24   1
ENDBRANCH  21  25
BRANCH  19   8
ATOM      4  N   UNL     1      13.462   7.910  20.493  0.00  0.00    -0.287 NA
ATOM      8  C   UNL     1      12.302   8.246  19.645  0.00  0.00    +0.146 C 
ATOM      9  C   UNL     1      11.519   9.298  20.453  0.00  0.00    +0.030 C 
ATOM     10  C   UNL     1      12.280   9.442  21.762  0.00  0.00    +0.017 C 
ATOM     11  C   UNL     1      13.043   8.137  21.877  0.00  0.00    +0.085 C 
BRANCH   4  13
ATOM     13  C   UNL     1      13.952   6.553  20.286  0.00  0.00    +0.120 C 
BRANCH  13  20
ATOM     20  C   UNL     1      15.457   6.494  20.294  0.00  0.00    -0.033 A 
ATOM     22  C   UNL     1      16.161   6.780  21.465  0.00  0.00    +0.008 A 
ATOM     23  C   UNL     1      16.148   6.152  19.131  0.00  0.00    +0.008 A 
ATOM     26  C   UNL     1      17.555   6.725  21.471  0.00  0.00    +0.046 A 
ATOM     27  C   UNL     1      17.541   6.096  19.139  0.00  0.00    +0.046 A 
ATOM     30  C   UNL     1      18.245   6.383  20.309  0.00  0.00    +0.120 A 
BRANCH  30   3
ATOM      3  O   UNL     1      19.605   6.328  20.316  0.00  0.00    -0.495 OA
ATOM     32  C   UNL     1      20.284   7.158  21.259  0.00  0.00    +0.277 C 
ENDBRANCH  30   3
ENDBRANCH  13  20
ENDBRANCH   4  13
ENDBRANCH  19   8
TORSDOF 7
ENDMDL
MODEL 10
REMARK VINA RESULT:      -6.7     28.503     31.584
REMARK  Name = 45783576
REMARK  8 active torsions:
REMARK  status: ('A' for Active; 'I' for Inactive)
REMARK    1  A    between atoms: O_1  and  C_12
REMARK    2  A    between atoms: O_1  and  C_24
REMARK    3  A    between atoms: O_3  and  C_30
REMARK    4  A    between atoms: O_3  and  C_32
REMARK    5  A    between atoms: N_4  and  C_13
REMARK    6  A    between atoms: C_8  and  C_19
REMARK    7  A    between atoms: C_13  and  C_20
REMARK    8  A    between atoms: C_21  and  C_25
REMARK                            x       y       z     vdW  Elec       q    Type
REMARK                         _______ _______ _______ _____ _____    ______ ____
ROOT
ATOM      2  O   UNL     1      -9.340 -11.052  20.301  0.00  0.00    -0.336 OA
ATOM      5  N   UNL     1      -9.147 -10.918  18.073  0.00  0.00    -0.190 NA
ATOM      6  N   UNL     1      -7.967 -10.980  20.031  0.00  0.00    -0.056 NA
ATOM     19  C   UNL     1      -9.962 -11.009  19.093  0.00  0.00    +0.245 A 
ATOM     21  C   UNL     1      -7.934 -10.902  18.697  0.00  0.00    +0.204 A 
ENDROOT
BRANCH  21  25
ATOM      7  N   UNL     1      -5.501  -9.923  16.062  0.00  0.00    -0.221 NA
ATOM     24  C   UNL     1      -4.412 -10.592  16.502  0.00  0.00    +0.215 A 
ATOM     25  C   UNL     1      -6.709 -10.810  17.959  0.00  0.00    +0.041 A 
ATOM     28  C   UNL     1      -4.394 -11.378  17.644  0.00  0.00    +0.068 A 
ATOM     29  C   UNL     1      -5.568 -11.484  18.380  0.00  0.00    +0.018 A 
ATOM     31  C   UNL     1      -6.625 -10.050  16.804  0.00  0.00    +0.126 A 
BRANCH  24   1
ATOM      1  O   UNL     1      -3.268 -10.471  15.760  0.00  0.00    -0.473 OA
BRANCH   1  12
ATOM     12  C   UNL     1      -3.388 -10.695  14.359  0.00  0.00    +0.175 C 
ATOM     14  C   UNL     1      -3.752 -12.156  14.103  0.00  0.00    +0.044 C 
ATOM     15  C   UNL     1      -2.082 -10.309  13.664  0.00  0.00    +0.044 C 
ATOM     16  C   UNL     1      -3.796 -12.470  12.610  0.00  0.00    +0.004 C 
ATOM     17  C   UNL     1      -2.126 -10.623  12.173  0.00  0.00    +0.004 C 
ATOM     18  C   UNL     1      -2.492 -12.083  11.916  0.00  0.00    +0.000 C 
ENDBRANCH   1  12
ENDBRANCH  24   1
ENDBRANCH  21  25
BRANCH  19   8
ATOM      4  N   UNL     1     -12.000 -11.747  20.316  0.00  0.00    -0.287 NA
ATOM      8  C   UNL     1     -11.476 -11.072  19.112  0.00  0.00    +0.146 C 
ATOM      9  C   UNL     1     -12.128  -9.677  19.131  0.00  0.00    +0.030 C 
ATOM     10  C   UNL     1     -13.047  -9.684  20.344  0.00  0.00    +0.017 C 
ATOM     11  C   UNL     1     -13.312 -11.157  20.582  0.00  0.00    +0.085 C 
BRANCH   4  13
ATOM     13  C   UNL     1     -12.069 -13.196  20.177  0.00  0.00    +0.120 C 
BRANCH  13  20
ATOM     20  C   UNL     1     -11.276 -13.900  21.246  0.00  0.00    -0.033 A 
ATOM     22  C   UNL     1     -10.005 -14.399  20.958  0.00  0.00    +0.008 A 
ATOM     23  C   UNL     1     -11.811 -14.053  22.526  0.00  0.00    +0.008 A 
ATOM     26  C   UNL     1      -9.270 -15.051  21.949  0.00  0.00    +0.046 A 
ATOM     27  C   UNL     1     -11.076 -14.703  23.515  0.00  0.00    +0.046 A 
ATOM     30  C   UNL     1      -9.806 -15.203  23.227  0.00  0.00    +0.120 A 
BRANCH  30   3
ATOM      3  O   UNL     1      -9.088 -15.838  24.194  0.00  0.00    -0.495 OA
ATOM     32  C   UNL     1      -7.770 -15.354  24.448  0.00  0.00    +0.277 C 
ENDBRANCH  30   3
ENDBRANCH  13  20
ENDBRANCH   4  13
ENDBRANCH  19   8
TORSDOF 7
ENDMDL
