REMARK  Name = 11884162
REMARK  8 active torsions:
REMARK  status: ('A' for Active; 'I' for Inactive)
REMARK    1  A    between atoms: O_3  and  C_13
REMARK    2  A    between atoms: O_3  and  C_17
REMARK    3  A    between atoms: N_7  and  C_12
REMARK    4  A    between atoms: N_8  and  C_18
REMARK    5  A    between atoms: N_9  and  C_19
REMARK    6  A    between atoms: C_18  and  C_20
REMARK    7  A    between atoms: C_25  and  C_26
REMARK    8  A    between atoms: C_26  and  C_27
REMARK                            x       y       z     vdW  Elec       q    Type
REMARK                         _______ _______ _______ _____ _____    ______ ____
ROOT
ATOM      1  O   UNL     1      -1.907  -0.919  -1.343  0.00  0.00    -0.368 OA
ATOM      2  O   UNL     1      -3.122  -2.324   1.098  0.00  0.00    -0.368 OA
ATOM     10  C   UNL     1      -3.260  -0.975   0.604  0.00  0.00    +0.173 C 
ATOM     11  C   UNL     1      -1.909  -0.569   0.052  0.00  0.00    +0.192 C 
ATOM     12  C   UNL     1      -4.167  -0.954  -0.604  0.00  0.00    +0.131 C 
ATOM     13  C   UNL     1      -0.958  -1.432   0.846  0.00  0.00    +0.235 C 
ATOM     14  C   UNL     1      -3.221  -1.355  -1.723  0.00  0.00    +0.185 C 
ATOM     15  C   UNL     1      -1.745  -2.715   0.999  0.00  0.00    +0.207 C 
ENDROOT
BRANCH  12   7
ATOM      4  O   UNL     1      -6.716   0.046   0.307  0.00  0.00    -0.253 OA
ATOM      7  N   UNL     1      -4.714   0.362  -0.826  0.00  0.00    -0.292 N 
ATOM      8  N   UNL     1      -6.240   2.080  -0.703  0.00  0.00    -0.300 N 
ATOM     16  C   UNL     1      -5.960   0.763  -0.347  0.00  0.00    +0.300 C 
ATOM     28  H   UNL     1      -4.138   1.052  -1.298  0.00  0.00    +0.151 HD
ATOM     29  H   UNL     1      -5.550   2.599  -1.238  0.00  0.00    +0.150 HD
BRANCH   8  18
ATOM     18  C   UNL     1      -7.467   2.746  -0.335  0.00  0.00    +0.102 C 
ATOM     20  C   UNL     1      -7.421   3.244   1.095  0.00  0.00    +0.024 C 
ENDBRANCH   8  18
ENDBRANCH  12   7
BRANCH  13   3
ATOM      3  O   UNL     1       0.280  -1.643   0.206  0.00  0.00    -0.442 OA
BRANCH   3  17
ATOM      5  O   UNL     1       1.165   0.148   1.320  0.00  0.00    -0.226 OA
ATOM      9  N   UNL     1       2.438  -1.115  -0.184  0.00  0.00    -0.251 N 
ATOM     17  C   UNL     1       1.302  -0.772   0.523  0.00  0.00    +0.405 C 
ATOM     30  H   UNL     1       2.357  -1.918  -0.803  0.00  0.00    +0.158 HD
BRANCH   9  19
ATOM     19  C   UNL     1       3.704  -0.487  -0.156  0.00  0.00    +0.036 A 
ATOM     21  C   UNL     1       4.744  -0.978  -0.946  0.00  0.00    +0.024 A 
ATOM     22  C   UNL     1       3.914   0.622   0.664  0.00  0.00    +0.024 A 
ATOM     23  C   UNL     1       5.993  -0.359  -0.917  0.00  0.00    +0.013 A 
ATOM     24  C   UNL     1       5.164   1.240   0.693  0.00  0.00    +0.013 A 
ATOM     25  C   UNL     1       6.203   0.750  -0.097  0.00  0.00    +0.017 A 
BRANCH  25  26
ATOM      6  O   UNL     1       7.623   2.615   0.163  0.00  0.00    -0.292 OA
ATOM     26  C   UNL     1       7.506   1.395  -0.068  0.00  0.00    +0.160 C 
ATOM     27  C   UNL     1       8.772   0.583  -0.321  0.00  0.00    +0.091 C 
ENDBRANCH  25  26
ENDBRANCH   9  19
ENDBRANCH   3  17
ENDBRANCH  13   3
TORSDOF 6
