MODEL 1
REMARK VINA RESULT:      -7.1      0.000      0.000
REMARK  Name = 28991009
REMARK  5 active torsions:
REMARK  status: ('A' for Active; 'I' for Inactive)
REMARK    1  A    between atoms: N_4  and  C_14
REMARK    2  A    between atoms: N_5  and  C_15
REMARK    3  A    between atoms: N_6  and  C_21
REMARK    4  A    between atoms: C_8  and  C_14
REMARK    5  A    between atoms: C_9  and  C_15
REMARK                            x       y       z     vdW  Elec       q    Type
REMARK                         _______ _______ _______ _____ _____    ______ ____
ROOT
ATOM      3  N   UNL     1      11.531   7.376  19.957  0.00  0.00    -0.298 NA
ATOM      7  C   UNL     1      13.346   8.916  21.009  0.00  0.00    -0.003 C 
ATOM      8  C   UNL     1      11.927   9.371  21.423  0.00  0.00    +0.020 C 
ATOM      9  C   UNL     1      12.453   7.872  18.900  0.00  0.00    +0.074 C 
ATOM     10  C   UNL     1      13.449   8.905  19.472  0.00  0.00    +0.024 C 
ATOM     11  C   UNL     1      10.892   8.516  20.658  0.00  0.00    +0.089 C 
ATOM     12  C   UNL     1      13.505   7.459  21.485  0.00  0.00    +0.019 C 
ATOM     13  C   UNL     1      12.335   6.618  20.946  0.00  0.00    +0.085 C 
ENDROOT
BRANCH   8  14
ATOM     14  C   UNL     1      11.690  10.864  21.213  0.00  0.00    +0.089 C 
BRANCH  14   4
ATOM      1  O   UNL     1      10.208  12.604  24.734  0.00  0.00    -0.377 OA
ATOM      4  N   UNL     1      11.625  11.567  22.494  0.00  0.00    -0.298 NA
ATOM     16  C   UNL     1      11.102  10.686  23.547  0.00  0.00    +0.112 C 
ATOM     17  C   UNL     1      10.791  12.772  22.385  0.00  0.00    +0.112 C 
ATOM     18  C   UNL     1      11.031  11.444  24.869  0.00  0.00    +0.175 C 
ATOM     19  C   UNL     1      10.729  13.482  23.735  0.00  0.00    +0.175 C 
ENDBRANCH  14   4
ENDBRANCH   8  14
BRANCH   9  15
ATOM     15  C   UNL     1      11.705   8.418  17.681  0.00  0.00    +0.124 C 
BRANCH  15   5
ATOM      2  O   UNL     1      12.983   8.812  15.149  0.00  0.00    -0.253 OA
ATOM      5  N   UNL     1      12.324   9.642  17.202  0.00  0.00    -0.298 N 
ATOM      6  N   UNL     1      13.432  11.032  15.764  0.00  0.00    -0.269 N 
ATOM     20  C   UNL     1      12.925   9.743  15.949  0.00  0.00    +0.304 C 
ATOM     27  H   UNL     1      12.320  10.454  17.812  0.00  0.00    +0.150 HD
ATOM     28  H   UNL     1      13.301  11.688  16.530  0.00  0.00    +0.156 HD
BRANCH   6  21
ATOM     21  C   UNL     1      14.111  11.544  14.634  0.00  0.00    +0.035 A 
ATOM     22  C   UNL     1      15.481  11.322  14.484  0.00  0.00    +0.023 A 
ATOM     23  C   UNL     1      13.412  12.269  13.669  0.00  0.00    +0.023 A 
ATOM     24  C   UNL     1      16.152  11.827  13.371  0.00  0.00    +0.002 A 
ATOM     25  C   UNL     1      14.084  12.773  12.555  0.00  0.00    +0.002 A 
ATOM     26  C   UNL     1      15.452  12.552  12.405  0.00  0.00    +0.000 A 
ENDBRANCH   6  21
ENDBRANCH  15   5
ENDBRANCH   9  15
TORSDOF 5
ENDMDL
MODEL 2
REMARK VINA RESULT:      -6.7      2.055      8.038
REMARK  Name = 28991009
REMARK  5 active torsions:
REMARK  status: ('A' for Active; 'I' for Inactive)
REMARK    1  A    between atoms: N_4  and  C_14
REMARK    2  A    between atoms: N_5  and  C_15
REMARK    3  A    between atoms: N_6  and  C_21
REMARK    4  A    between atoms: C_8  and  C_14
REMARK    5  A    between atoms: C_9  and  C_15
REMARK                            x       y       z     vdW  Elec       q    Type
REMARK                         _______ _______ _______ _____ _____    ______ ____
ROOT
ATOM      3  N   UNL     1      13.886   8.304  21.705  0.00  0.00    -0.298 NA
ATOM      7  C   UNL     1      14.141   6.980  19.479  0.00  0.00    -0.003 C 
ATOM      8  C   UNL     1      14.364   8.493  19.252  0.00  0.00    +0.020 C 
ATOM      9  C   UNL     1      12.693   7.442  21.486  0.00  0.00    +0.074 C 
ATOM     10  C   UNL     1      12.749   6.759  20.101  0.00  0.00    +0.024 C 
ATOM     11  C   UNL     1      14.060   9.240  20.569  0.00  0.00    +0.089 C 
ATOM     12  C   UNL     1      15.182   6.526  20.521  0.00  0.00    +0.019 C 
ATOM     13  C   UNL     1      15.079   7.425  21.766  0.00  0.00    +0.085 C 
ENDROOT
BRANCH   8  14
ATOM     14  C   UNL     1      13.552   9.053  18.086  0.00  0.00    +0.089 C 
BRANCH  14   4
ATOM      1  O   UNL     1      14.671  11.950  15.263  0.00  0.00    -0.377 OA
ATOM      4  N   UNL     1      14.361   9.961  17.274  0.00  0.00    -0.298 NA
ATOM     16  C   UNL     1      13.974  11.357  17.510  0.00  0.00    +0.112 C 
ATOM     17  C   UNL     1      14.234   9.636  15.847  0.00  0.00    +0.112 C 
ATOM     18  C   UNL     1      14.822  12.284  16.644  0.00  0.00    +0.175 C 
ATOM     19  C   UNL     1      15.077  10.603  15.019  0.00  0.00    +0.175 C 
ENDBRANCH  14   4
ENDBRANCH   8  14
BRANCH   9  15
ATOM     15  C   UNL     1      11.379   8.199  21.694  0.00  0.00    +0.124 C 
BRANCH  15   5
ATOM      2  O   UNL     1      11.348  11.047  21.997  0.00  0.00    -0.253 OA
ATOM      5  N   UNL     1      11.403   8.940  22.944  0.00  0.00    -0.298 N 
ATOM      6  N   UNL     1      11.416  10.761  24.326  0.00  0.00    -0.269 N 
ATOM     20  C   UNL     1      11.385  10.332  22.996  0.00  0.00    +0.304 C 
ATOM     27  H   UNL     1      11.439   8.416  23.813  0.00  0.00    +0.150 HD
ATOM     28  H   UNL     1      11.446  10.037  25.039  0.00  0.00    +0.156 HD
BRANCH   6  21
ATOM     21  C   UNL     1      11.410  12.091  24.809  0.00  0.00    +0.035 A 
ATOM     22  C   UNL     1      12.482  12.562  25.567  0.00  0.00    +0.023 A 
ATOM     23  C   UNL     1      10.333  12.931  24.527  0.00  0.00    +0.023 A 
ATOM     24  C   UNL     1      12.477  13.872  26.045  0.00  0.00    +0.002 A 
ATOM     25  C   UNL     1      10.327  14.241  25.005  0.00  0.00    +0.002 A 
ATOM     26  C   UNL     1      11.399  14.712  25.763  0.00  0.00    +0.000 A 
ENDBRANCH   6  21
ENDBRANCH  15   5
ENDBRANCH   9  15
TORSDOF 5
ENDMDL
MODEL 3
REMARK VINA RESULT:      -6.7      2.643      8.228
REMARK  Name = 28991009
REMARK  5 active torsions:
REMARK  status: ('A' for Active; 'I' for Inactive)
REMARK    1  A    between atoms: N_4  and  C_14
REMARK    2  A    between atoms: N_5  and  C_15
REMARK    3  A    between atoms: N_6  and  C_21
REMARK    4  A    between atoms: C_8  and  C_14
REMARK    5  A    between atoms: C_9  and  C_15
REMARK                            x       y       z     vdW  Elec       q    Type
REMARK                         _______ _______ _______ _____ _____    ______ ____
ROOT
ATOM      3  N   UNL     1      15.146   9.237  21.121  0.00  0.00    -0.298 NA
ATOM      7  C   UNL     1      15.742   6.803  20.419  0.00  0.00    -0.003 C 
ATOM      8  C   UNL     1      15.607   7.718  19.180  0.00  0.00    +0.020 C 
ATOM      9  C   UNL     1      14.193   8.279  21.745  0.00  0.00    +0.074 C 
ATOM     10  C   UNL     1      14.431   6.843  21.227  0.00  0.00    +0.024 C 
ATOM     11  C   UNL     1      15.114   9.107  19.645  0.00  0.00    +0.089 C 
ATOM     12  C   UNL     1      16.843   7.413  21.308  0.00  0.00    +0.019 C 
ATOM     13  C   UNL     1      16.512   8.889  21.585  0.00  0.00    +0.085 C 
ENDROOT
BRANCH   8  14
ATOM     14  C   UNL     1      14.705   7.133  18.096  0.00  0.00    +0.089 C 
BRANCH  14   4
ATOM      1  O   UNL     1      11.597   8.977  15.960  0.00  0.00    -0.377 OA
ATOM      4  N   UNL     1      13.719   8.117  17.652  0.00  0.00    -0.298 NA
ATOM     16  C   UNL     1      12.355   7.594  17.804  0.00  0.00    +0.112 C 
ATOM     17  C   UNL     1      13.958   8.500  16.253  0.00  0.00    +0.112 C 
ATOM     18  C   UNL     1      11.344   8.631  17.323  0.00  0.00    +0.175 C 
ATOM     19  C   UNL     1      12.911   9.518  15.809  0.00  0.00    +0.175 C 
ENDBRANCH  14   4
ENDBRANCH   8  14
BRANCH   9  15
ATOM     15  C   UNL     1      12.735   8.711  21.573  0.00  0.00    +0.124 C 
BRANCH  15   5
ATOM      2  O   UNL     1      12.906  11.473  22.310  0.00  0.00    -0.253 OA
ATOM      5  N   UNL     1      12.230   9.317  22.794  0.00  0.00    -0.298 N 
ATOM      6  N   UNL     1      11.782  10.970  24.309  0.00  0.00    -0.269 N 
ATOM     20  C   UNL     1      12.358  10.677  23.070  0.00  0.00    +0.304 C 
ATOM     27  H   UNL     1      11.769   8.719  23.473  0.00  0.00    +0.150 HD
ATOM     28  H   UNL     1      11.368  10.192  24.815  0.00  0.00    +0.156 HD
BRANCH   6  21
ATOM     21  C   UNL     1      11.700  12.227  24.952  0.00  0.00    +0.035 A 
ATOM     22  C   UNL     1      10.526  12.976  24.871  0.00  0.00    +0.023 A 
ATOM     23  C   UNL     1      12.792  12.717  25.668  0.00  0.00    +0.023 A 
ATOM     24  C   UNL     1      10.444  14.217  25.504  0.00  0.00    +0.002 A 
ATOM     25  C   UNL     1      12.710  13.957  26.301  0.00  0.00    +0.002 A 
ATOM     26  C   UNL     1      11.537  14.706  26.220  0.00  0.00    +0.000 A 
ENDBRANCH   6  21
ENDBRANCH  15   5
ENDBRANCH   9  15
TORSDOF 5
ENDMDL
MODEL 4
REMARK VINA RESULT:      -6.5     27.414     29.046
REMARK  Name = 28991009
REMARK  5 active torsions:
REMARK  status: ('A' for Active; 'I' for Inactive)
REMARK    1  A    between atoms: N_4  and  C_14
REMARK    2  A    between atoms: N_5  and  C_15
REMARK    3  A    between atoms: N_6  and  C_21
REMARK    4  A    between atoms: C_8  and  C_14
REMARK    5  A    between atoms: C_9  and  C_15
REMARK                            x       y       z     vdW  Elec       q    Type
REMARK                         _______ _______ _______ _____ _____    ______ ____
ROOT
ATOM      3  N   UNL     1      -6.264 -10.499   9.912  0.00  0.00    -0.298 NA
ATOM      7  C   UNL     1      -4.076  -9.202  10.461  0.00  0.00    -0.003 C 
ATOM      8  C   UNL     1      -3.980 -10.671  10.932  0.00  0.00    +0.020 C 
ATOM      9  C   UNL     1      -6.586  -9.249  10.651  0.00  0.00    +0.074 C 
ATOM     10  C   UNL     1      -5.298  -8.534  11.120  0.00  0.00    +0.024 C 
ATOM     11  C   UNL     1      -5.351 -11.349  10.713  0.00  0.00    +0.089 C 
ATOM     12  C   UNL     1      -4.340  -9.235   8.943  0.00  0.00    +0.019 C 
ATOM     13  C   UNL     1      -5.564 -10.123   8.660  0.00  0.00    +0.085 C 
ENDROOT
BRANCH   8  14
ATOM     14  C   UNL     1      -3.507 -10.809  12.378  0.00  0.00    +0.089 C 
BRANCH  14   4
ATOM      1  O   UNL     1      -2.386 -14.264  14.482  0.00  0.00    -0.377 OA
ATOM      4  N   UNL     1      -3.226 -12.206  12.703  0.00  0.00    -0.298 NA
ATOM     16  C   UNL     1      -4.084 -12.670  13.801  0.00  0.00    +0.112 C 
ATOM     17  C   UNL     1      -1.811 -12.383  13.060  0.00  0.00    +0.112 C 
ATOM     18  C   UNL     1      -3.764 -14.125  14.131  0.00  0.00    +0.175 C 
ATOM     19  C   UNL     1      -1.544 -13.845  13.407  0.00  0.00    +0.175 C 
ENDBRANCH  14   4
ENDBRANCH   8  14
BRANCH   9  15
ATOM     15  C   UNL     1      -7.557  -9.488  11.810  0.00  0.00    +0.124 C 
BRANCH  15   5
ATOM      2  O   UNL     1      -7.313 -11.175  14.111  0.00  0.00    -0.253 OA
ATOM      5  N   UNL     1      -6.940  -9.142  13.080  0.00  0.00    -0.298 N 
ATOM      6  N   UNL     1      -6.223  -9.425  15.232  0.00  0.00    -0.269 N 
ATOM     20  C   UNL     1      -6.866 -10.031  14.150  0.00  0.00    +0.304 C 
ATOM     27  H   UNL     1      -6.552  -8.210  13.188  0.00  0.00    +0.150 HD
ATOM     28  H   UNL     1      -5.912  -8.466  15.099  0.00  0.00    +0.156 HD
BRANCH   6  21
ATOM     21  C   UNL     1      -5.946  -9.984  16.502  0.00  0.00    +0.035 A 
ATOM     22  C   UNL     1      -6.925  -9.972  17.496  0.00  0.00    +0.023 A 
ATOM     23  C   UNL     1      -4.697 -10.548  16.759  0.00  0.00    +0.023 A 
ATOM     24  C   UNL     1      -6.654 -10.522  18.749  0.00  0.00    +0.002 A 
ATOM     25  C   UNL     1      -4.426 -11.099  18.012  0.00  0.00    +0.002 A 
ATOM     26  C   UNL     1      -5.404 -11.087  19.006  0.00  0.00    +0.000 A 
ENDBRANCH   6  21
ENDBRANCH  15   5
ENDBRANCH   9  15
TORSDOF 5
ENDMDL
MODEL 5
REMARK VINA RESULT:      -6.2     27.085     29.749
REMARK  Name = 28991009
REMARK  5 active torsions:
REMARK  status: ('A' for Active; 'I' for Inactive)
REMARK    1  A    between atoms: N_4  and  C_14
REMARK    2  A    between atoms: N_5  and  C_15
REMARK    3  A    between atoms: N_6  and  C_21
REMARK    4  A    between atoms: C_8  and  C_14
REMARK    5  A    between atoms: C_9  and  C_15
REMARK                            x       y       z     vdW  Elec       q    Type
REMARK                         _______ _______ _______ _____ _____    ______ ____
ROOT
ATOM      3  N   UNL     1      -5.509  -9.976  11.344  0.00  0.00    -0.298 NA
ATOM      7  C   UNL     1      -4.607  -9.277   9.006  0.00  0.00    -0.003 C 
ATOM      8  C   UNL     1      -5.317 -10.649   8.937  0.00  0.00    +0.020 C 
ATOM      9  C   UNL     1      -4.068  -9.619  11.441  0.00  0.00    +0.074 C 
ATOM     10  C   UNL     1      -3.470  -9.344  10.043  0.00  0.00    +0.024 C 
ATOM     11  C   UNL     1      -5.701 -11.078  10.371  0.00  0.00    +0.089 C 
ATOM     12  C   UNL     1      -5.642  -8.264   9.531  0.00  0.00    +0.019 C 
ATOM     13  C   UNL     1      -6.242  -8.787  10.847  0.00  0.00    +0.085 C 
ENDROOT
BRANCH   8  14
ATOM     14  C   UNL     1      -4.488 -11.721   8.232  0.00  0.00    +0.089 C 
BRANCH  14   4
ATOM      1  O   UNL     1      -5.159 -12.366   4.139  0.00  0.00    -0.377 OA
ATOM      4  N   UNL     1      -4.514 -11.531   6.783  0.00  0.00    -0.298 NA
ATOM     16  C   UNL     1      -5.896 -11.505   6.285  0.00  0.00    +0.112 C 
ATOM     17  C   UNL     1      -3.754 -12.589   6.105  0.00  0.00    +0.112 C 
ATOM     18  C   UNL     1      -5.899 -11.319   4.770  0.00  0.00    +0.175 C 
ATOM     19  C   UNL     1      -3.805 -12.376   4.594  0.00  0.00    +0.175 C 
ENDBRANCH  14   4
ENDBRANCH   8  14
BRANCH   9  15
ATOM     15  C   UNL     1      -3.256 -10.663  12.211  0.00  0.00    +0.124 C 
BRANCH  15   5
ATOM      2  O   UNL     1      -4.944 -11.713  14.273  0.00  0.00    -0.253 OA
ATOM      5  N   UNL     1      -3.205 -10.336  13.626  0.00  0.00    -0.298 N 
ATOM      6  N   UNL     1      -3.787 -10.398  15.836  0.00  0.00    -0.269 N 
ATOM     20  C   UNL     1      -4.070 -10.899  14.563  0.00  0.00    +0.304 C 
ATOM     27  H   UNL     1      -2.511  -9.665  13.939  0.00  0.00    +0.150 HD
ATOM     28  H   UNL     1      -3.027  -9.726  15.904  0.00  0.00    +0.156 HD
BRANCH   6  21
ATOM     21  C   UNL     1      -4.431 -10.714  17.056  0.00  0.00    +0.035 A 
ATOM     22  C   UNL     1      -5.693 -10.190  17.333  0.00  0.00    +0.023 A 
ATOM     23  C   UNL     1      -3.804 -11.550  17.979  0.00  0.00    +0.023 A 
ATOM     24  C   UNL     1      -6.329 -10.499  18.535  0.00  0.00    +0.002 A 
ATOM     25  C   UNL     1      -4.440 -11.860  19.182  0.00  0.00    +0.002 A 
ATOM     26  C   UNL     1      -5.702 -11.336  19.459  0.00  0.00    +0.000 A 
ENDBRANCH   6  21
ENDBRANCH  15   5
ENDBRANCH   9  15
TORSDOF 5
ENDMDL
MODEL 6
REMARK VINA RESULT:      -6.2     26.403     29.331
REMARK  Name = 28991009
REMARK  5 active torsions:
REMARK  status: ('A' for Active; 'I' for Inactive)
REMARK    1  A    between atoms: N_4  and  C_14
REMARK    2  A    between atoms: N_5  and  C_15
REMARK    3  A    between atoms: N_6  and  C_21
REMARK    4  A    between atoms: C_8  and  C_14
REMARK    5  A    between atoms: C_9  and  C_15
REMARK                            x       y       z     vdW  Elec       q    Type
REMARK                         _______ _______ _______ _____ _____    ______ ____
ROOT
ATOM      3  N   UNL     1      -6.722 -10.650  18.362  0.00  0.00    -0.298 NA
ATOM      7  C   UNL     1      -4.851 -12.450  18.184  0.00  0.00    -0.003 C 
ATOM      8  C   UNL     1      -4.659 -11.346  17.119  0.00  0.00    +0.020 C 
ATOM      9  C   UNL     1      -7.327 -12.006  18.273  0.00  0.00    +0.074 C 
ATOM     10  C   UNL     1      -6.246 -13.080  18.017  0.00  0.00    +0.024 C 
ATOM     11  C   UNL     1      -5.870 -10.389  17.177  0.00  0.00    +0.089 C 
ATOM     12  C   UNL     1      -4.828 -11.754  19.559  0.00  0.00    +0.019 C 
ATOM     13  C   UNL     1      -5.859 -10.612  19.568  0.00  0.00    +0.085 C 
ENDROOT
BRANCH   8  14
ATOM     14  C   UNL     1      -4.443 -11.898  15.712  0.00  0.00    +0.089 C 
BRANCH  14   4
ATOM      1  O   UNL     1      -1.168  -9.595  14.451  0.00  0.00    -0.377 OA
ATOM      4  N   UNL     1      -3.127 -11.520  15.199  0.00  0.00    -0.298 NA
ATOM     16  C   UNL     1      -2.373 -10.761  16.205  0.00  0.00    +0.112 C 
ATOM     17  C   UNL     1      -3.256 -10.732  13.965  0.00  0.00    +0.112 C 
ATOM     18  C   UNL     1      -1.010 -10.366  15.644  0.00  0.00    +0.175 C 
ATOM     19  C   UNL     1      -1.872 -10.339  13.455  0.00  0.00    +0.175 C 
ENDBRANCH  14   4
ENDBRANCH   8  14
BRANCH   9  15
ATOM     15  C   UNL     1      -8.455 -12.077  17.241  0.00  0.00    +0.124 C 
BRANCH  15   5
ATOM      2  O   UNL     1      -9.387 -10.010  15.491  0.00  0.00    -0.253 OA
ATOM      5  N   UNL     1      -9.482 -11.090  17.531  0.00  0.00    -0.298 N 
ATOM      6  N   UNL     1     -10.874  -9.314  17.168  0.00  0.00    -0.269 N 
ATOM     20  C   UNL     1      -9.874 -10.117  16.614  0.00  0.00    +0.304 C 
ATOM     27  H   UNL     1      -9.926 -11.113  18.444  0.00  0.00    +0.150 HD
ATOM     28  H   UNL     1     -11.166  -9.536  18.116  0.00  0.00    +0.156 HD
BRANCH   6  21
ATOM     21  C   UNL     1     -11.539  -8.219  16.568  0.00  0.00    +0.035 A 
ATOM     22  C   UNL     1     -12.869  -8.347  16.166  0.00  0.00    +0.023 A 
ATOM     23  C   UNL     1     -10.867  -7.012  16.380  0.00  0.00    +0.023 A 
ATOM     24  C   UNL     1     -13.526  -7.268  15.573  0.00  0.00    +0.002 A 
ATOM     25  C   UNL     1     -11.524  -5.933  15.787  0.00  0.00    +0.002 A 
ATOM     26  C   UNL     1     -12.853  -6.061  15.385  0.00  0.00    +0.000 A 
ENDBRANCH   6  21
ENDBRANCH  15   5
ENDBRANCH   9  15
TORSDOF 5
ENDMDL
MODEL 7
REMARK VINA RESULT:      -6.2     15.001     20.240
REMARK  Name = 28991009
REMARK  5 active torsions:
REMARK  status: ('A' for Active; 'I' for Inactive)
REMARK    1  A    between atoms: N_4  and  C_14
REMARK    2  A    between atoms: N_5  and  C_15
REMARK    3  A    between atoms: N_6  and  C_21
REMARK    4  A    between atoms: C_8  and  C_14
REMARK    5  A    between atoms: C_9  and  C_15
REMARK                            x       y       z     vdW  Elec       q    Type
REMARK                         _______ _______ _______ _____ _____    ______ ____
ROOT
ATOM      3  N   UNL     1      12.559   5.591   0.689  0.00  0.00    -0.298 NA
ATOM      7  C   UNL     1      14.220   3.667   0.134  0.00  0.00    -0.003 C 
ATOM      8  C   UNL     1      13.340   4.008  -1.091  0.00  0.00    +0.020 C 
ATOM      9  C   UNL     1      12.449   4.513   1.709  0.00  0.00    +0.074 C 
ATOM     10  C   UNL     1      13.315   3.293   1.322  0.00  0.00    +0.024 C 
ATOM     11  C   UNL     1      12.282   5.050  -0.663  0.00  0.00    +0.089 C 
ATOM     12  C   UNL     1      14.969   4.957   0.520  0.00  0.00    +0.019 C 
ATOM     13  C   UNL     1      13.953   6.097   0.708  0.00  0.00    +0.085 C 
ENDROOT
BRANCH   8  14
ATOM     14  C   UNL     1      12.695   2.780  -1.730  0.00  0.00    +0.089 C 
BRANCH  14   4
ATOM      1  O   UNL     1      10.228   2.745  -5.125  0.00  0.00    -0.377 OA
ATOM      4  N   UNL     1      11.701   3.173  -2.728  0.00  0.00    -0.298 NA
ATOM     16  C   UNL     1      10.612   2.190  -2.795  0.00  0.00    +0.112 C 
ATOM     17  C   UNL     1      12.324   3.325  -4.050  0.00  0.00    +0.112 C 
ATOM     18  C   UNL     1       9.595   2.613  -3.851  0.00  0.00    +0.175 C 
ATOM     19  C   UNL     1      11.267   3.723  -5.077  0.00  0.00    +0.175 C 
ENDBRANCH  14   4
ENDBRANCH   8  14
BRANCH   9  15
ATOM     15  C   UNL     1      10.997   4.115   1.985  0.00  0.00    +0.124 C 
BRANCH  15   5
ATOM      2  O   UNL     1      10.087   6.035   3.906  0.00  0.00    -0.253 OA
ATOM      5  N   UNL     1      10.785   3.889   3.405  0.00  0.00    -0.298 N 
ATOM      6  N   UNL     1      10.228   4.382   5.567  0.00  0.00    -0.269 N 
ATOM     20  C   UNL     1      10.338   4.887   4.269  0.00  0.00    +0.304 C 
ATOM     27  H   UNL     1      10.976   2.965   3.779  0.00  0.00    +0.150 HD
ATOM     28  H   UNL     1      10.476   3.405   5.699  0.00  0.00    +0.156 HD
BRANCH   6  21
ATOM     21  C   UNL     1       9.809   5.066   6.732  0.00  0.00    +0.035 A 
ATOM     22  C   UNL     1       9.301   6.362   6.634  0.00  0.00    +0.023 A 
ATOM     23  C   UNL     1       9.903   4.446   7.978  0.00  0.00    +0.023 A 
ATOM     24  C   UNL     1       8.889   7.038   7.783  0.00  0.00    +0.002 A 
ATOM     25  C   UNL     1       9.490   5.122   9.126  0.00  0.00    +0.002 A 
ATOM     26  C   UNL     1       8.983   6.417   9.028  0.00  0.00    +0.000 A 
ENDBRANCH   6  21
ENDBRANCH  15   5
ENDBRANCH   9  15
TORSDOF 5
ENDMDL
MODEL 8
REMARK VINA RESULT:      -6.1     28.655     31.259
REMARK  Name = 28991009
REMARK  5 active torsions:
REMARK  status: ('A' for Active; 'I' for Inactive)
REMARK    1  A    between atoms: N_4  and  C_14
REMARK    2  A    between atoms: N_5  and  C_15
REMARK    3  A    between atoms: N_6  and  C_21
REMARK    4  A    between atoms: C_8  and  C_14
REMARK    5  A    between atoms: C_9  and  C_15
REMARK                            x       y       z     vdW  Elec       q    Type
REMARK                         _______ _______ _______ _____ _____    ______ ____
ROOT
ATOM      3  N   UNL     1     -13.430 -12.061  19.450  0.00  0.00    -0.298 NA
ATOM      7  C   UNL     1     -13.280  -9.463  19.432  0.00  0.00    -0.003 C 
ATOM      8  C   UNL     1     -12.965 -10.045  18.034  0.00  0.00    +0.020 C 
ATOM      9  C   UNL     1     -12.538 -11.595  20.545  0.00  0.00    +0.074 C 
ATOM     10  C   UNL     1     -12.312 -10.068  20.465  0.00  0.00    +0.024 C 
ATOM     11  C   UNL     1     -12.926 -11.586  18.139  0.00  0.00    +0.089 C 
ATOM     12  C   UNL     1     -14.698  -9.938  19.804  0.00  0.00    +0.019 C 
ATOM     13  C   UNL     1     -14.772 -11.469  19.671  0.00  0.00    +0.085 C 
ENDROOT
BRANCH   8  14
ATOM     14  C   UNL     1     -11.678  -9.489  17.428  0.00  0.00    +0.089 C 
BRANCH  14   4
ATOM      1  O   UNL     1     -11.922  -6.072  15.003  0.00  0.00    -0.377 OA
ATOM      4  N   UNL     1     -11.862  -8.105  16.993  0.00  0.00    -0.298 NA
ATOM     16  C   UNL     1     -12.970  -8.001  16.035  0.00  0.00    +0.112 C 
ATOM     17  C   UNL     1     -10.627  -7.578  16.395  0.00  0.00    +0.112 C 
ATOM     18  C   UNL     1     -13.135  -6.552  15.587  0.00  0.00    +0.175 C 
ATOM     19  C   UNL     1     -10.846  -6.138  15.939  0.00  0.00    +0.175 C 
ENDBRANCH  14   4
ENDBRANCH   8  14
BRANCH   9  15
ATOM     15  C   UNL     1     -11.215 -12.363  20.588  0.00  0.00    +0.124 C 
BRANCH  15   5
ATOM      2  O   UNL     1      -9.300 -12.499  18.463  0.00  0.00    -0.253 OA
ATOM      5  N   UNL     1     -10.091 -11.467  20.373  0.00  0.00    -0.298 N 
ATOM      6  N   UNL     1      -8.231 -10.610  19.356  0.00  0.00    -0.269 N 
ATOM     20  C   UNL     1      -9.206 -11.610  19.306  0.00  0.00    +0.304 C 
ATOM     27  H   UNL     1      -9.946 -10.710  21.034  0.00  0.00    +0.150 HD
ATOM     28  H   UNL     1      -8.296  -9.948  20.125  0.00  0.00    +0.156 HD
BRANCH   6  21
ATOM     21  C   UNL     1      -7.155 -10.401  18.461  0.00  0.00    +0.035 A 
ATOM     22  C   UNL     1      -7.373  -9.739  17.253  0.00  0.00    +0.023 A 
ATOM     23  C   UNL     1      -5.878 -10.856  18.787  0.00  0.00    +0.023 A 
ATOM     24  C   UNL     1      -6.314  -9.533  16.369  0.00  0.00    +0.002 A 
ATOM     25  C   UNL     1      -4.819 -10.650  17.904  0.00  0.00    +0.002 A 
ATOM     26  C   UNL     1      -5.036  -9.988  16.696  0.00  0.00    +0.000 A 
ENDBRANCH   6  21
ENDBRANCH  15   5
ENDBRANCH   9  15
TORSDOF 5
ENDMDL
MODEL 9
REMARK VINA RESULT:      -6.1     27.343     28.575
REMARK  Name = 28991009
REMARK  5 active torsions:
REMARK  status: ('A' for Active; 'I' for Inactive)
REMARK    1  A    between atoms: N_4  and  C_14
REMARK    2  A    between atoms: N_5  and  C_15
REMARK    3  A    between atoms: N_6  and  C_21
REMARK    4  A    between atoms: C_8  and  C_14
REMARK    5  A    between atoms: C_9  and  C_15
REMARK                            x       y       z     vdW  Elec       q    Type
REMARK                         _______ _______ _______ _____ _____    ______ ____
ROOT
ATOM      3  N   UNL     1      -6.797 -12.811  18.042  0.00  0.00    -0.298 NA
ATOM      7  C   UNL     1      -6.269 -10.319  18.569  0.00  0.00    -0.003 C 
ATOM      8  C   UNL     1      -7.447 -10.436  17.574  0.00  0.00    +0.020 C 
ATOM      9  C   UNL     1      -5.350 -12.541  17.825  0.00  0.00    +0.074 C 
ATOM     10  C   UNL     1      -5.037 -11.036  17.987  0.00  0.00    +0.024 C 
ATOM     11  C   UNL     1      -7.620 -11.922  17.188  0.00  0.00    +0.089 C 
ATOM     12  C   UNL     1      -6.681 -11.083  19.842  0.00  0.00    +0.019 C 
ATOM     13  C   UNL     1      -7.111 -12.510  19.460  0.00  0.00    +0.085 C 
ENDROOT
BRANCH   8  14
ATOM     14  C   UNL     1      -7.283  -9.549  16.341  0.00  0.00    +0.089 C 
BRANCH  14   4
ATOM      1  O   UNL     1     -11.308  -8.389  16.078  0.00  0.00    -0.377 OA
ATOM      4  N   UNL     1      -8.485  -8.749  16.112  0.00  0.00    -0.298 NA
ATOM     16  C   UNL     1      -9.254  -8.594  17.353  0.00  0.00    +0.112 C 
ATOM     17  C   UNL     1      -9.325  -9.358  15.071  0.00  0.00    +0.112 C 
ATOM     18  C   UNL     1     -10.509  -7.768  17.087  0.00  0.00    +0.175 C 
ATOM     19  C   UNL     1     -10.578  -8.512  14.857  0.00  0.00    +0.175 C 
ENDBRANCH  14   4
ENDBRANCH   8  14
BRANCH   9  15
ATOM     15  C   UNL     1      -4.847 -13.086  16.487  0.00  0.00    +0.124 C 
BRANCH  15   5
ATOM      2  O   UNL     1      -5.459 -12.535  13.744  0.00  0.00    -0.253 OA
ATOM      5  N   UNL     1      -4.293 -12.019  15.671  0.00  0.00    -0.298 N 
ATOM      6  N   UNL     1      -3.960 -10.729  13.812  0.00  0.00    -0.269 N 
ATOM     20  C   UNL     1      -4.651 -11.824  14.338  0.00  0.00    +0.304 C 
ATOM     27  H   UNL     1      -3.613 -11.394  16.093  0.00  0.00    +0.150 HD
ATOM     28  H   UNL     1      -3.323 -10.247  14.441  0.00  0.00    +0.156 HD
BRANCH   6  21
ATOM     21  C   UNL     1      -4.038 -10.201  12.502  0.00  0.00    +0.035 A 
ATOM     22  C   UNL     1      -5.225  -9.620  12.055  0.00  0.00    +0.023 A 
ATOM     23  C   UNL     1      -2.930 -10.261  11.658  0.00  0.00    +0.023 A 
ATOM     24  C   UNL     1      -5.304  -9.100  10.763  0.00  0.00    +0.002 A 
ATOM     25  C   UNL     1      -3.009  -9.741  10.366  0.00  0.00    +0.002 A 
ATOM     26  C   UNL     1      -4.195  -9.160   9.919  0.00  0.00    +0.000 A 
ENDBRANCH   6  21
ENDBRANCH  15   5
ENDBRANCH   9  15
TORSDOF 5
ENDMDL
MODEL 10
REMARK VINA RESULT:      -6.0     27.044     30.637
REMARK  Name = 28991009
REMARK  5 active torsions:
REMARK  status: ('A' for Active; 'I' for Inactive)
REMARK    1  A    between atoms: N_4  and  C_14
REMARK    2  A    between atoms: N_5  and  C_15
REMARK    3  A    between atoms: N_6  and  C_21
REMARK    4  A    between atoms: C_8  and  C_14
REMARK    5  A    between atoms: C_9  and  C_15
REMARK                            x       y       z     vdW  Elec       q    Type
REMARK                         _______ _______ _______ _____ _____    ______ ____
ROOT
ATOM      3  N   UNL     1     -16.202   4.667  33.842  0.00  0.00    -0.298 NA
ATOM      7  C   UNL     1     -16.414   5.115  31.288  0.00  0.00    -0.003 C 
ATOM      8  C   UNL     1     -15.706   3.767  31.556  0.00  0.00    +0.020 C 
ATOM      9  C   UNL     1     -15.661   6.014  33.515  0.00  0.00    +0.074 C 
ATOM     10  C   UNL     1     -15.637   6.246  31.988  0.00  0.00    +0.024 C 
ATOM     11  C   UNL     1     -15.480   3.623  33.078  0.00  0.00    +0.089 C 
ATOM     12  C   UNL     1     -17.800   5.033  31.957  0.00  0.00    +0.019 C 
ATOM     13  C   UNL     1     -17.628   4.635  33.434  0.00  0.00    +0.085 C 
ENDROOT
BRANCH   8  14
ATOM     14  C   UNL     1     -14.404   3.605  30.775  0.00  0.00    +0.089 C 
BRANCH  14   4
ATOM      1  O   UNL     1     -15.135  -0.342  29.549  0.00  0.00    -0.377 OA
ATOM      4  N   UNL     1     -14.423   2.380  29.977  0.00  0.00    -0.298 NA
ATOM     16  C   UNL     1     -15.801   1.989  29.653  0.00  0.00    +0.112 C 
ATOM     17  C   UNL     1     -13.742   1.287  30.685  0.00  0.00    +0.112 C 
ATOM     18  C   UNL     1     -15.796   0.703  28.832  0.00  0.00    +0.175 C 
ATOM     19  C   UNL     1     -13.784   0.017  29.839  0.00  0.00    +0.175 C 
ENDBRANCH  14   4
ENDBRANCH   8  14
BRANCH   9  15
ATOM     15  C   UNL     1     -14.291   6.263  34.150  0.00  0.00    +0.124 C 
BRANCH  15   5
ATOM      2  O   UNL     1     -12.894   8.735  34.523  0.00  0.00    -0.253 OA
ATOM      5  N   UNL     1     -13.394   6.905  33.203  0.00  0.00    -0.298 N 
ATOM      6  N   UNL     1     -11.959   8.485  32.384  0.00  0.00    -0.269 N 
ATOM     20  C   UNL     1     -12.754   8.114  33.472  0.00  0.00    +0.304 C 
ATOM     27  H   UNL     1     -13.234   6.452  32.309  0.00  0.00    +0.150 HD
ATOM     28  H   UNL     1     -11.955   7.856  31.585  0.00  0.00    +0.156 HD
BRANCH   6  21
ATOM     21  C   UNL     1     -11.150   9.639  32.255  0.00  0.00    +0.035 A 
ATOM     22  C   UNL     1      -9.999   9.773  33.033  0.00  0.00    +0.023 A 
ATOM     23  C   UNL     1     -11.501  10.640  31.350  0.00  0.00    +0.023 A 
ATOM     24  C   UNL     1      -9.201  10.910  32.907  0.00  0.00    +0.002 A 
ATOM     25  C   UNL     1     -10.703  11.777  31.224  0.00  0.00    +0.002 A 
ATOM     26  C   UNL     1      -9.553  11.912  32.001  0.00  0.00    +0.000 A 
ENDBRANCH   6  21
ENDBRANCH  15   5
ENDBRANCH   9  15
TORSDOF 5
ENDMDL
