MODEL 1
REMARK VINA RESULT:      -6.7      0.000      0.000
REMARK  Name = 11865671
REMARK  13 active torsions:
REMARK  status: ('A' for Active; 'I' for Inactive)
REMARK    1  A    between atoms: O_1  and  C_11
REMARK    2  A    between atoms: O_2  and  C_13
REMARK    3  A    between atoms: O_6  and  C_29
REMARK    4  A    between atoms: O_6  and  C_31
REMARK    5  A    between atoms: N_7  and  C_12
REMARK    6  A    between atoms: N_8  and  C_18
REMARK    7  A    between atoms: N_9  and  C_23
REMARK    8  A    between atoms: C_15  and  C_17
REMARK    9  A    between atoms: C_18  and  C_20
REMARK   10  A    between atoms: C_18  and  C_22
REMARK   11  A    between atoms: C_20  and  C_21
REMARK   12  A    between atoms: C_23  and  C_24
REMARK   13  A    between atoms: C_24  and  C_30
REMARK                            x       y       z     vdW  Elec       q    Type
REMARK                         _______ _______ _______ _____ _____    ______ ____
ROOT
ATOM     11  C   UNL     1      14.333  13.278  15.162  0.00  0.00    +0.167 C 
ATOM     12  C   UNL     1      13.678  12.256  14.213  0.00  0.00    +0.129 C 
ATOM     13  C   UNL     1      15.584  12.700  15.834  0.00  0.00    +0.149 C 
ATOM     14  C   UNL     1      15.287  11.390  16.584  0.00  0.00    +0.074 C 
ATOM     15  C   UNL     1      14.314  10.500  15.865  0.00  0.00    +0.015 C 
ATOM     16  C   UNL     1      13.594  10.872  14.796  0.00  0.00    +0.006 C 
ENDROOT
BRANCH  12   7
ATOM      4  O   UNL     1      12.502  12.014  11.588  0.00  0.00    -0.253 OA
ATOM      7  N   UNL     1      12.357  12.674  13.810  0.00  0.00    -0.291 N 
ATOM      9  N   UNL     1      10.568  13.006  12.402  0.00  0.00    -0.299 N 
ATOM     19  C   UNL     1      11.868  12.518  12.515  0.00  0.00    +0.300 C 
ATOM     32  H   UNL     1      11.770  13.151  14.488  0.00  0.00    +0.151 HD
ATOM     36  H   UNL     1      10.121  13.399  13.225  0.00  0.00    +0.150 HD
BRANCH   9  23
ATOM     23  C   UNL     1       9.823  12.969  11.167  0.00  0.00    +0.105 C 
BRANCH  23  24
ATOM     24  C   UNL     1       9.000  11.694  11.023  0.00  0.00    +0.015 C 
ATOM     30  C   UNL     1       9.235  10.988   9.695  0.00  0.00    +0.005 C 
ENDBRANCH  23  24
ENDBRANCH   9  23
ENDBRANCH  12   7
BRANCH  15  17
ATOM      3  O   UNL     1      14.160   8.176  15.560  0.00  0.00    -0.271 OA
ATOM      8  N   UNL     1      14.001   9.045  17.717  0.00  0.00    -0.300 N 
ATOM     17  C   UNL     1      14.153   9.124  16.344  0.00  0.00    +0.241 C 
ATOM     35  H   UNL     1      13.923   9.902  18.256  0.00  0.00    +0.150 HD
BRANCH   8  18
ATOM     18  C   UNL     1      13.824   7.794  18.421  0.00  0.00    +0.163 C 
BRANCH  18  22
ATOM      5  O   UNL     1      11.666   7.285  17.425  0.00  0.00    -0.274 OA
ATOM     10  N   UNL     1      11.813   7.438  19.713  0.00  0.00    -0.328 N 
ATOM     22  C   UNL     1      12.332   7.496  18.437  0.00  0.00    +0.231 C 
ATOM     37  H   UNL     1      10.831   7.232  19.866  0.00  0.00    +0.145 HD
ATOM     38  H   UNL     1      12.375   7.610  20.540  0.00  0.00    +0.145 HD
ENDBRANCH  18  22
BRANCH  18  20
ATOM     20  C   UNL     1      14.373   7.853  19.852  0.00  0.00    +0.067 C 
BRANCH  20  21
ATOM     21  C   UNL     1      15.762   7.275  19.968  0.00  0.00    -0.045 A 
ATOM     25  C   UNL     1      16.200   6.325  19.045  0.00  0.00    +0.007 A 
ATOM     26  C   UNL     1      16.607   7.690  20.997  0.00  0.00    +0.007 A 
ATOM     27  C   UNL     1      17.485   5.790  19.152  0.00  0.00    +0.046 A 
ATOM     28  C   UNL     1      17.891   7.155  21.103  0.00  0.00    +0.046 A 
ATOM     29  C   UNL     1      18.329   6.205  20.180  0.00  0.00    +0.120 A 
BRANCH  29   6
ATOM      6  O   UNL     1      19.582   5.683  20.284  0.00  0.00    -0.495 OA
ATOM     31  C   UNL     1      20.346   6.051  21.431  0.00  0.00    +0.277 C 
ENDBRANCH  29   6
ENDBRANCH  20  21
ENDBRANCH  18  20
ENDBRANCH   8  18
ENDBRANCH  15  17
BRANCH  11   1
ATOM      1  O   UNL     1      13.400  13.655  16.177  0.00  0.00    -0.387 OA
ATOM     33  H   UNL     1      13.901  13.785  17.001  0.00  0.00    +0.210 HD
ENDBRANCH  11   1
BRANCH  13   2
ATOM      2  O   UNL     1      16.608  12.487  14.863  0.00  0.00    -0.389 OA
ATOM     34  H   UNL     1      16.612  13.254  14.266  0.00  0.00    +0.210 HD
ENDBRANCH  13   2
TORSDOF 11
ENDMDL
MODEL 2
REMARK VINA RESULT:      -6.4     26.548     28.538
REMARK  Name = 11865671
REMARK  13 active torsions:
REMARK  status: ('A' for Active; 'I' for Inactive)
REMARK    1  A    between atoms: O_1  and  C_11
REMARK    2  A    between atoms: O_2  and  C_13
REMARK    3  A    between atoms: O_6  and  C_29
REMARK    4  A    between atoms: O_6  and  C_31
REMARK    5  A    between atoms: N_7  and  C_12
REMARK    6  A    between atoms: N_8  and  C_18
REMARK    7  A    between atoms: N_9  and  C_23
REMARK    8  A    between atoms: C_15  and  C_17
REMARK    9  A    between atoms: C_18  and  C_20
REMARK   10  A    between atoms: C_18  and  C_22
REMARK   11  A    between atoms: C_20  and  C_21
REMARK   12  A    between atoms: C_23  and  C_24
REMARK   13  A    between atoms: C_24  and  C_30
REMARK                            x       y       z     vdW  Elec       q    Type
REMARK                         _______ _______ _______ _____ _____    ______ ____
ROOT
ATOM     11  C   UNL     1      -5.105  -9.550   8.573  0.00  0.00    +0.167 C 
ATOM     12  C   UNL     1      -6.384  -9.241   9.374  0.00  0.00    +0.129 C 
ATOM     13  C   UNL     1      -4.388 -10.793   9.115  0.00  0.00    +0.149 C 
ATOM     14  C   UNL     1      -4.061 -10.666  10.613  0.00  0.00    +0.074 C 
ATOM     15  C   UNL     1      -5.146  -9.992  11.404  0.00  0.00    +0.015 C 
ATOM     16  C   UNL     1      -6.197  -9.358  10.862  0.00  0.00    +0.006 C 
ENDROOT
BRANCH  12   7
ATOM      4  O   UNL     1      -9.063  -8.574   8.534  0.00  0.00    -0.253 OA
ATOM      7  N   UNL     1      -6.898  -7.928   9.070  0.00  0.00    -0.291 N 
ATOM      9  N   UNL     1      -8.440  -6.340   8.442  0.00  0.00    -0.299 N 
ATOM     19  C   UNL     1      -8.212  -7.695   8.669  0.00  0.00    +0.300 C 
ATOM     32  H   UNL     1      -6.261  -7.137   9.100  0.00  0.00    +0.151 HD
ATOM     36  H   UNL     1      -7.677  -5.685   8.588  0.00  0.00    +0.150 HD
BRANCH   9  23
ATOM     23  C   UNL     1      -9.719  -5.822   8.016  0.00  0.00    +0.105 C 
BRANCH  23  24
ATOM     24  C   UNL     1     -10.572  -5.351   9.188  0.00  0.00    +0.015 C 
ATOM     30  C   UNL     1     -10.866  -3.858   9.139  0.00  0.00    +0.005 C 
ENDBRANCH  23  24
ENDBRANCH   9  23
ENDBRANCH  12   7
BRANCH  15  17
ATOM      3  O   UNL     1      -5.997  -9.642  13.565  0.00  0.00    -0.271 OA
ATOM      8  N   UNL     1      -3.878 -10.582  13.326  0.00  0.00    -0.300 N 
ATOM     17  C   UNL     1      -5.068 -10.046  12.867  0.00  0.00    +0.241 C 
ATOM     35  H   UNL     1      -3.145 -10.802  12.657  0.00  0.00    +0.150 HD
BRANCH   8  18
ATOM     18  C   UNL     1      -3.570 -10.736  14.730  0.00  0.00    +0.163 C 
BRANCH  18  22
ATOM      5  O   UNL     1      -1.417 -11.863  14.705  0.00  0.00    -0.274 OA
ATOM     10  N   UNL     1      -1.468  -9.598  15.087  0.00  0.00    -0.328 N 
ATOM     22  C   UNL     1      -2.055 -10.823  14.849  0.00  0.00    +0.231 C 
ATOM     37  H   UNL     1      -0.460  -9.513  15.173  0.00  0.00    +0.145 HD
ATOM     38  H   UNL     1      -2.007  -8.746  15.200  0.00  0.00    +0.145 HD
ENDBRANCH  18  22
BRANCH  18  20
ATOM     20  C   UNL     1      -4.226 -11.983  15.333  0.00  0.00    +0.067 C 
BRANCH  20  21
ATOM     21  C   UNL     1      -5.116 -11.664  16.509  0.00  0.00    -0.045 A 
ATOM     25  C   UNL     1      -4.562 -11.140  17.679  0.00  0.00    +0.007 A 
ATOM     26  C   UNL     1      -6.490 -11.891  16.428  0.00  0.00    +0.007 A 
ATOM     27  C   UNL     1      -5.384 -10.845  18.767  0.00  0.00    +0.046 A 
ATOM     28  C   UNL     1      -7.310 -11.595  17.517  0.00  0.00    +0.046 A 
ATOM     29  C   UNL     1      -6.758 -11.072  18.686  0.00  0.00    +0.120 A 
BRANCH  29   6
ATOM      6  O   UNL     1      -7.559 -10.783  19.747  0.00  0.00    -0.495 OA
ATOM     31  C   UNL     1      -8.927 -11.176  19.654  0.00  0.00    +0.277 C 
ENDBRANCH  29   6
ENDBRANCH  20  21
ENDBRANCH  18  20
ENDBRANCH   8  18
ENDBRANCH  15  17
BRANCH  11   1
ATOM      1  O   UNL     1      -4.212  -8.436   8.648  0.00  0.00    -0.387 OA
ATOM     33  H   UNL     1      -3.446  -8.636   8.082  0.00  0.00    +0.210 HD
ENDBRANCH  11   1
BRANCH  13   2
ATOM      2  O   UNL     1      -5.181 -11.956   8.884  0.00  0.00    -0.389 OA
ATOM     34  H   UNL     1      -5.501 -12.270   9.746  0.00  0.00    +0.210 HD
ENDBRANCH  13   2
TORSDOF 11
ENDMDL
MODEL 3
REMARK VINA RESULT:      -6.4     28.736     32.659
REMARK  Name = 11865671
REMARK  13 active torsions:
REMARK  status: ('A' for Active; 'I' for Inactive)
REMARK    1  A    between atoms: O_1  and  C_11
REMARK    2  A    between atoms: O_2  and  C_13
REMARK    3  A    between atoms: O_6  and  C_29
REMARK    4  A    between atoms: O_6  and  C_31
REMARK    5  A    between atoms: N_7  and  C_12
REMARK    6  A    between atoms: N_8  and  C_18
REMARK    7  A    between atoms: N_9  and  C_23
REMARK    8  A    between atoms: C_15  and  C_17
REMARK    9  A    between atoms: C_18  and  C_20
REMARK   10  A    between atoms: C_18  and  C_22
REMARK   11  A    between atoms: C_20  and  C_21
REMARK   12  A    between atoms: C_23  and  C_24
REMARK   13  A    between atoms: C_24  and  C_30
REMARK                            x       y       z     vdW  Elec       q    Type
REMARK                         _______ _______ _______ _____ _____    ______ ____
ROOT
ATOM     11  C   UNL     1     -17.792   0.715  26.838  0.00  0.00    +0.167 C 
ATOM     12  C   UNL     1     -16.441   1.401  27.119  0.00  0.00    +0.129 C 
ATOM     13  C   UNL     1     -18.116   0.705  25.339  0.00  0.00    +0.149 C 
ATOM     14  C   UNL     1     -18.099   2.118  24.732  0.00  0.00    +0.074 C 
ATOM     15  C   UNL     1     -17.004   2.989  25.281  0.00  0.00    +0.015 C 
ATOM     16  C   UNL     1     -16.248   2.676  26.343  0.00  0.00    +0.006 C 
ENDROOT
BRANCH  12   7
ATOM      4  O   UNL     1     -14.976  -0.181  29.036  0.00  0.00    -0.253 OA
ATOM      7  N   UNL     1     -16.267   1.679  28.524  0.00  0.00    -0.291 N 
ATOM      9  N   UNL     1     -15.532   1.359  30.680  0.00  0.00    -0.299 N 
ATOM     19  C   UNL     1     -15.540   0.856  29.382  0.00  0.00    +0.300 C 
ATOM     32  H   UNL     1     -16.738   2.486  28.922  0.00  0.00    +0.151 HD
ATOM     36  H   UNL     1     -16.021   2.229  30.870  0.00  0.00    +0.150 HD
BRANCH   9  23
ATOM     23  C   UNL     1     -14.852   0.700  31.770  0.00  0.00    +0.105 C 
BRANCH  23  24
ATOM     24  C   UNL     1     -14.778   1.572  33.018  0.00  0.00    +0.015 C 
ATOM     30  C   UNL     1     -15.457   2.922  32.834  0.00  0.00    +0.005 C 
ENDBRANCH  23  24
ENDBRANCH   9  23
ENDBRANCH  12   7
BRANCH  15  17
ATOM      3  O   UNL     1     -17.237   5.307  24.982  0.00  0.00    -0.271 OA
ATOM      8  N   UNL     1     -15.856   4.115  23.531  0.00  0.00    -0.300 N 
ATOM     17  C   UNL     1     -16.724   4.256  24.599  0.00  0.00    +0.241 C 
ATOM     35  H   UNL     1     -15.563   3.183  23.252  0.00  0.00    +0.150 HD
BRANCH   8  18
ATOM     18  C   UNL     1     -15.434   5.224  22.706  0.00  0.00    +0.163 C 
BRANCH  18  22
ATOM      5  O   UNL     1     -16.368   4.687  20.527  0.00  0.00    -0.274 OA
ATOM     10  N   UNL     1     -17.458   6.224  21.842  0.00  0.00    -0.328 N 
ATOM     22  C   UNL     1     -16.435   5.341  21.565  0.00  0.00    +0.231 C 
ATOM     37  H   UNL     1     -18.202   6.384  21.170  0.00  0.00    +0.145 HD
ATOM     38  H   UNL     1     -17.503   6.754  22.705  0.00  0.00    +0.145 HD
ENDBRANCH  18  22
BRANCH  18  20
ATOM     20  C   UNL     1     -14.016   5.029  22.154  0.00  0.00    +0.067 C 
BRANCH  20  21
ATOM     21  C   UNL     1     -13.387   6.319  21.692  0.00  0.00    -0.045 A 
ATOM     25  C   UNL     1     -14.008   7.537  21.974  0.00  0.00    +0.007 A 
ATOM     26  C   UNL     1     -12.186   6.297  20.983  0.00  0.00    +0.007 A 
ATOM     27  C   UNL     1     -13.426   8.731  21.546  0.00  0.00    +0.046 A 
ATOM     28  C   UNL     1     -11.606   7.491  20.556  0.00  0.00    +0.046 A 
ATOM     29  C   UNL     1     -12.226   8.708  20.838  0.00  0.00    +0.120 A 
BRANCH  29   6
ATOM      6  O   UNL     1     -11.659   9.874  20.421  0.00  0.00    -0.495 OA
ATOM     31  C   UNL     1     -12.117  10.412  19.183  0.00  0.00    +0.277 C 
ENDBRANCH  29   6
ENDBRANCH  20  21
ENDBRANCH  18  20
ENDBRANCH   8  18
ENDBRANCH  15  17
BRANCH  11   1
ATOM      1  O   UNL     1     -18.834   1.410  27.528  0.00  0.00    -0.387 OA
ATOM     33  H   UNL     1     -19.388   0.743  27.969  0.00  0.00    +0.210 HD
ENDBRANCH  11   1
BRANCH  13   2
ATOM      2  O   UNL     1     -17.197  -0.137  24.645  0.00  0.00    -0.389 OA
ATOM     34  H   UNL     1     -17.002  -0.897  25.219  0.00  0.00    +0.210 HD
ENDBRANCH  13   2
TORSDOF 11
ENDMDL
MODEL 4
REMARK VINA RESULT:      -6.4     30.755     33.886
REMARK  Name = 11865671
REMARK  13 active torsions:
REMARK  status: ('A' for Active; 'I' for Inactive)
REMARK    1  A    between atoms: O_1  and  C_11
REMARK    2  A    between atoms: O_2  and  C_13
REMARK    3  A    between atoms: O_6  and  C_29
REMARK    4  A    between atoms: O_6  and  C_31
REMARK    5  A    between atoms: N_7  and  C_12
REMARK    6  A    between atoms: N_8  and  C_18
REMARK    7  A    between atoms: N_9  and  C_23
REMARK    8  A    between atoms: C_15  and  C_17
REMARK    9  A    between atoms: C_18  and  C_20
REMARK   10  A    between atoms: C_18  and  C_22
REMARK   11  A    between atoms: C_20  and  C_21
REMARK   12  A    between atoms: C_23  and  C_24
REMARK   13  A    between atoms: C_24  and  C_30
REMARK                            x       y       z     vdW  Elec       q    Type
REMARK                         _______ _______ _______ _____ _____    ______ ____
ROOT
ATOM     11  C   UNL     1     -14.471   0.735  29.584  0.00  0.00    +0.167 C 
ATOM     12  C   UNL     1     -15.561   1.811  29.413  0.00  0.00    +0.129 C 
ATOM     13  C   UNL     1     -14.600   0.014  30.932  0.00  0.00    +0.149 C 
ATOM     14  C   UNL     1     -14.575   0.992  32.119  0.00  0.00    +0.074 C 
ATOM     15  C   UNL     1     -15.316   2.271  31.852  0.00  0.00    +0.015 C 
ATOM     16  C   UNL     1     -15.772   2.646  30.647  0.00  0.00    +0.006 C 
ENDROOT
BRANCH  12   7
ATOM      4  O   UNL     1     -17.344   2.523  27.259  0.00  0.00    -0.253 OA
ATOM      7  N   UNL     1     -15.275   2.684  28.301  0.00  0.00    -0.291 N 
ATOM      9  N   UNL     1     -15.665   3.843  26.352  0.00  0.00    -0.299 N 
ATOM     19  C   UNL     1     -16.200   2.975  27.300  0.00  0.00    +0.300 C 
ATOM     32  H   UNL     1     -14.339   3.070  28.213  0.00  0.00    +0.151 HD
ATOM     36  H   UNL     1     -14.711   4.171  26.474  0.00  0.00    +0.150 HD
BRANCH   9  23
ATOM     23  C   UNL     1     -16.410   4.307  25.206  0.00  0.00    +0.105 C 
BRANCH  23  24
ATOM     24  C   UNL     1     -15.715   3.975  23.891  0.00  0.00    +0.015 C 
ATOM     30  C   UNL     1     -14.456   4.802  23.666  0.00  0.00    +0.005 C 
ENDBRANCH  23  24
ENDBRANCH   9  23
ENDBRANCH  12   7
BRANCH  15  17
ATOM      3  O   UNL     1     -14.896   3.113  34.004  0.00  0.00    -0.271 OA
ATOM      8  N   UNL     1     -16.651   4.014  32.761  0.00  0.00    -0.300 N 
ATOM     17  C   UNL     1     -15.583   3.163  32.984  0.00  0.00    +0.241 C 
ATOM     35  H   UNL     1     -17.201   3.906  31.914  0.00  0.00    +0.150 HD
BRANCH   8  18
ATOM     18  C   UNL     1     -17.104   4.983  33.734  0.00  0.00    +0.163 C 
BRANCH  18  22
ATOM      5  O   UNL     1     -19.426   4.368  33.357  0.00  0.00    -0.274 OA
ATOM     10  N   UNL     1     -18.636   4.410  35.514  0.00  0.00    -0.328 N 
ATOM     22  C   UNL     1     -18.510   4.574  34.151  0.00  0.00    +0.231 C 
ATOM     37  H   UNL     1     -19.519   4.123  35.924  0.00  0.00    +0.145 HD
ATOM     38  H   UNL     1     -17.870   4.580  36.157  0.00  0.00    +0.145 HD
ENDBRANCH  18  22
BRANCH  18  20
ATOM     20  C   UNL     1     -17.107   6.410  33.172  0.00  0.00    +0.067 C 
BRANCH  20  21
ATOM     21  C   UNL     1     -15.718   6.974  33.006  0.00  0.00    -0.045 A 
ATOM     25  C   UNL     1     -15.422   7.785  31.909  0.00  0.00    +0.007 A 
ATOM     26  C   UNL     1     -14.730   6.686  33.948  0.00  0.00    +0.007 A 
ATOM     27  C   UNL     1     -14.138   8.307  31.755  0.00  0.00    +0.046 A 
ATOM     28  C   UNL     1     -13.446   7.209  33.792  0.00  0.00    +0.046 A 
ATOM     29  C   UNL     1     -13.150   8.019  32.696  0.00  0.00    +0.120 A 
BRANCH  29   6
ATOM      6  O   UNL     1     -11.897   8.529  32.545  0.00  0.00    -0.495 OA
ATOM     31  C   UNL     1     -11.610   9.194  31.316  0.00  0.00    +0.277 C 
ENDBRANCH  29   6
ENDBRANCH  20  21
ENDBRANCH  18  20
ENDBRANCH   8  18
ENDBRANCH  15  17
BRANCH  11   1
ATOM      1  O   UNL     1     -13.180   1.345  29.513  0.00  0.00    -0.387 OA
ATOM     33  H   UNL     1     -13.057   1.865  30.326  0.00  0.00    +0.210 HD
ENDBRANCH  11   1
BRANCH  13   2
ATOM      2  O   UNL     1     -15.799  -0.760  30.961  0.00  0.00    -0.389 OA
ATOM     34  H   UNL     1     -15.612  -1.609  30.526  0.00  0.00    +0.210 HD
ENDBRANCH  13   2
TORSDOF 11
ENDMDL
MODEL 5
REMARK VINA RESULT:      -6.3     11.039     14.117
REMARK  Name = 11865671
REMARK  13 active torsions:
REMARK  status: ('A' for Active; 'I' for Inactive)
REMARK    1  A    between atoms: O_1  and  C_11
REMARK    2  A    between atoms: O_2  and  C_13
REMARK    3  A    between atoms: O_6  and  C_29
REMARK    4  A    between atoms: O_6  and  C_31
REMARK    5  A    between atoms: N_7  and  C_12
REMARK    6  A    between atoms: N_8  and  C_18
REMARK    7  A    between atoms: N_9  and  C_23
REMARK    8  A    between atoms: C_15  and  C_17
REMARK    9  A    between atoms: C_18  and  C_20
REMARK   10  A    between atoms: C_18  and  C_22
REMARK   11  A    between atoms: C_20  and  C_21
REMARK   12  A    between atoms: C_23  and  C_24
REMARK   13  A    between atoms: C_24  and  C_30
REMARK                            x       y       z     vdW  Elec       q    Type
REMARK                         _______ _______ _______ _____ _____    ______ ____
ROOT
ATOM     11  C   UNL     1      14.057   7.195   2.697  0.00  0.00    +0.167 C 
ATOM     12  C   UNL     1      14.839   7.765   3.896  0.00  0.00    +0.129 C 
ATOM     13  C   UNL     1      12.546   7.406   2.860  0.00  0.00    +0.149 C 
ATOM     14  C   UNL     1      12.016   6.810   4.175  0.00  0.00    +0.074 C 
ATOM     15  C   UNL     1      12.952   6.997   5.335  0.00  0.00    +0.015 C 
ATOM     16  C   UNL     1      14.216   7.433   5.225  0.00  0.00    +0.006 C 
ENDROOT
BRANCH  12   7
ATOM      4  O   UNL     1      17.206   9.408   4.066  0.00  0.00    -0.253 OA
ATOM      7  N   UNL     1      16.210   7.317   3.898  0.00  0.00    -0.291 N 
ATOM      9  N   UNL     1      18.504   7.487   3.966  0.00  0.00    -0.299 N 
ATOM     19  C   UNL     1      17.298   8.184   3.984  0.00  0.00    +0.300 C 
ATOM     32  H   UNL     1      16.398   6.325   3.781  0.00  0.00    +0.151 HD
ATOM     36  H   UNL     1      18.481   6.473   3.903  0.00  0.00    +0.150 HD
BRANCH   9  23
ATOM     23  C   UNL     1      19.787   8.142   4.041  0.00  0.00    +0.105 C 
BRANCH  23  24
ATOM     24  C   UNL     1      20.703   7.505   5.079  0.00  0.00    +0.015 C 
ATOM     30  C   UNL     1      21.654   6.480   4.476  0.00  0.00    +0.005 C 
ENDBRANCH  23  24
ENDBRANCH   9  23
ENDBRANCH  12   7
BRANCH  15  17
ATOM      3  O   UNL     1      13.217   6.636   7.641  0.00  0.00    -0.271 OA
ATOM      8  N   UNL     1      11.078   6.536   6.721  0.00  0.00    -0.300 N 
ATOM     17  C   UNL     1      12.450   6.708   6.681  0.00  0.00    +0.241 C 
ATOM     35  H   UNL     1      10.555   6.532   5.849  0.00  0.00    +0.150 HD
BRANCH   8  18
ATOM     18  C   UNL     1      10.354   6.240   7.936  0.00  0.00    +0.163 C 
BRANCH  18  22
ATOM      5  O   UNL     1       9.957   4.090   8.998  0.00  0.00    -0.274 OA
ATOM     10  N   UNL     1      10.069   4.181   6.705  0.00  0.00    -0.328 N 
ATOM     22  C   UNL     1      10.123   4.736   7.965  0.00  0.00    +0.231 C 
ATOM     37  H   UNL     1       9.905   3.187   6.581  0.00  0.00    +0.145 HD
ATOM     38  H   UNL     1      10.204   4.727   5.861  0.00  0.00    +0.145 HD
ENDBRANCH  18  22
BRANCH  18  20
ATOM     20  C   UNL     1       9.017   6.987   8.011  0.00  0.00    +0.067 C 
BRANCH  20  21
ATOM     21  C   UNL     1       8.712   7.765   6.754  0.00  0.00    -0.045 A 
ATOM     25  C   UNL     1       8.952   9.139   6.710  0.00  0.00    +0.007 A 
ATOM     26  C   UNL     1       8.193   7.111   5.636  0.00  0.00    +0.007 A 
ATOM     27  C   UNL     1       8.671   9.859   5.548  0.00  0.00    +0.046 A 
ATOM     28  C   UNL     1       7.912   7.832   4.476  0.00  0.00    +0.046 A 
ATOM     29  C   UNL     1       8.151   9.205   4.431  0.00  0.00    +0.120 A 
BRANCH  29   6
ATOM      6  O   UNL     1       7.877   9.908   3.298  0.00  0.00    -0.495 OA
ATOM     31  C   UNL     1       7.751   9.164   2.088  0.00  0.00    +0.277 C 
ENDBRANCH  29   6
ENDBRANCH  20  21
ENDBRANCH  18  20
ENDBRANCH   8  18
ENDBRANCH  15  17
BRANCH  11   1
ATOM      1  O   UNL     1      14.314   5.794   2.580  0.00  0.00    -0.387 OA
ATOM     33  H   UNL     1      14.586   5.472   3.457  0.00  0.00    +0.210 HD
ENDBRANCH  11   1
BRANCH  13   2
ATOM      2  O   UNL     1      12.235   8.797   2.793  0.00  0.00    -0.389 OA
ATOM     34  H   UNL     1      11.574   8.984   3.479  0.00  0.00    +0.210 HD
ENDBRANCH  13   2
TORSDOF 11
ENDMDL
MODEL 6
REMARK VINA RESULT:      -6.3     31.109     32.868
REMARK  Name = 11865671
REMARK  13 active torsions:
REMARK  status: ('A' for Active; 'I' for Inactive)
REMARK    1  A    between atoms: O_1  and  C_11
REMARK    2  A    between atoms: O_2  and  C_13
REMARK    3  A    between atoms: O_6  and  C_29
REMARK    4  A    between atoms: O_6  and  C_31
REMARK    5  A    between atoms: N_7  and  C_12
REMARK    6  A    between atoms: N_8  and  C_18
REMARK    7  A    between atoms: N_9  and  C_23
REMARK    8  A    between atoms: C_15  and  C_17
REMARK    9  A    between atoms: C_18  and  C_20
REMARK   10  A    between atoms: C_18  and  C_22
REMARK   11  A    between atoms: C_20  and  C_21
REMARK   12  A    between atoms: C_23  and  C_24
REMARK   13  A    between atoms: C_24  and  C_30
REMARK                            x       y       z     vdW  Elec       q    Type
REMARK                         _______ _______ _______ _____ _____    ______ ____
ROOT
ATOM     11  C   UNL     1     -13.883   2.103  30.551  0.00  0.00    +0.167 C 
ATOM     12  C   UNL     1     -15.092   2.925  30.064  0.00  0.00    +0.129 C 
ATOM     13  C   UNL     1     -13.830   2.037  32.083  0.00  0.00    +0.149 C 
ATOM     14  C   UNL     1     -13.817   3.435  32.724  0.00  0.00    +0.074 C 
ATOM     15  C   UNL     1     -14.709   4.420  32.022  0.00  0.00    +0.015 C 
ATOM     16  C   UNL     1     -15.293   4.201  30.835  0.00  0.00    +0.006 C 
ENDROOT
BRANCH  12   7
ATOM      4  O   UNL     1     -17.218   2.896  28.113  0.00  0.00    -0.253 OA
ATOM      7  N   UNL     1     -14.988   3.240  28.659  0.00  0.00    -0.291 N 
ATOM      9  N   UNL     1     -15.693   3.550  26.491  0.00  0.00    -0.299 N 
ATOM     19  C   UNL     1     -16.072   3.200  27.785  0.00  0.00    +0.300 C 
ATOM     32  H   UNL     1     -14.072   3.454  28.275  0.00  0.00    +0.151 HD
ATOM     36  H   UNL     1     -14.722   3.794  26.316  0.00  0.00    +0.150 HD
BRANCH   9  23
ATOM     23  C   UNL     1     -16.621   3.589  25.387  0.00  0.00    +0.105 C 
BRANCH  23  24
ATOM     24  C   UNL     1     -15.924   3.454  24.038  0.00  0.00    +0.015 C 
ATOM     30  C   UNL     1     -14.912   4.563  23.786  0.00  0.00    +0.005 C 
ENDBRANCH  23  24
ENDBRANCH   9  23
ENDBRANCH  12   7
BRANCH  15  17
ATOM      3  O   UNL     1     -15.919   5.817  33.471  0.00  0.00    -0.271 OA
ATOM      8  N   UNL     1     -14.089   6.694  32.326  0.00  0.00    -0.300 N 
ATOM     17  C   UNL     1     -14.980   5.699  32.685  0.00  0.00    +0.241 C 
ATOM     35  H   UNL     1     -13.404   6.505  31.599  0.00  0.00    +0.150 HD
BRANCH   8  18
ATOM     18  C   UNL     1     -14.156   8.041  32.847  0.00  0.00    +0.163 C 
BRANCH  18  22
ATOM      5  O   UNL     1     -14.582   9.345  30.841  0.00  0.00    -0.274 OA
ATOM     10  N   UNL     1     -16.328   8.934  32.277  0.00  0.00    -0.328 N 
ATOM     22  C   UNL     1     -15.009   8.853  31.883  0.00  0.00    +0.231 C 
ATOM     37  H   UNL     1     -17.008   9.435  31.714  0.00  0.00    +0.145 HD
ATOM     38  H   UNL     1     -16.668   8.518  33.138  0.00  0.00    +0.145 HD
ENDBRANCH  18  22
BRANCH  18  20
ATOM     20  C   UNL     1     -12.767   8.674  32.995  0.00  0.00    +0.067 C 
BRANCH  20  21
ATOM     21  C   UNL     1     -12.278   8.680  34.423  0.00  0.00    -0.045 A 
ATOM     25  C   UNL     1     -11.276   9.570  34.812  0.00  0.00    +0.007 A 
ATOM     26  C   UNL     1     -12.826   7.797  35.353  0.00  0.00    +0.007 A 
ATOM     27  C   UNL     1     -10.823   9.576  36.131  0.00  0.00    +0.046 A 
ATOM     28  C   UNL     1     -12.372   7.803  36.672  0.00  0.00    +0.046 A 
ATOM     29  C   UNL     1     -11.371   8.692  37.061  0.00  0.00    +0.120 A 
BRANCH  29   6
ATOM      6  O   UNL     1     -10.928   8.699  38.348  0.00  0.00    -0.495 OA
ATOM     31  C   UNL     1      -9.559   8.365  38.565  0.00  0.00    +0.277 C 
ENDBRANCH  29   6
ENDBRANCH  20  21
ENDBRANCH  18  20
ENDBRANCH   8  18
ENDBRANCH  15  17
BRANCH  11   1
ATOM      1  O   UNL     1     -12.675   2.699  30.076  0.00  0.00    -0.387 OA
ATOM     33  H   UNL     1     -12.068   1.977  29.835  0.00  0.00    +0.210 HD
ENDBRANCH  11   1
BRANCH  13   2
ATOM      2  O   UNL     1     -14.934   1.281  32.580  0.00  0.00    -0.389 OA
ATOM     34  H   UNL     1     -15.676   1.406  31.965  0.00  0.00    +0.210 HD
ENDBRANCH  13   2
TORSDOF 11
ENDMDL
MODEL 7
REMARK VINA RESULT:      -6.3     27.595     31.585
REMARK  Name = 11865671
REMARK  13 active torsions:
REMARK  status: ('A' for Active; 'I' for Inactive)
REMARK    1  A    between atoms: O_1  and  C_11
REMARK    2  A    between atoms: O_2  and  C_13
REMARK    3  A    between atoms: O_6  and  C_29
REMARK    4  A    between atoms: O_6  and  C_31
REMARK    5  A    between atoms: N_7  and  C_12
REMARK    6  A    between atoms: N_8  and  C_18
REMARK    7  A    between atoms: N_9  and  C_23
REMARK    8  A    between atoms: C_15  and  C_17
REMARK    9  A    between atoms: C_18  and  C_20
REMARK   10  A    between atoms: C_18  and  C_22
REMARK   11  A    between atoms: C_20  and  C_21
REMARK   12  A    between atoms: C_23  and  C_24
REMARK   13  A    between atoms: C_24  and  C_30
REMARK                            x       y       z     vdW  Elec       q    Type
REMARK                         _______ _______ _______ _____ _____    ______ ____
ROOT
ATOM     11  C   UNL     1     -17.658   2.673  24.945  0.00  0.00    +0.167 C 
ATOM     12  C   UNL     1     -16.175   2.750  25.356  0.00  0.00    +0.129 C 
ATOM     13  C   UNL     1     -17.815   2.584  23.421  0.00  0.00    +0.149 C 
ATOM     14  C   UNL     1     -17.120   3.750  22.697  0.00  0.00    +0.074 C 
ATOM     15  C   UNL     1     -15.809   4.139  23.318  0.00  0.00    +0.015 C 
ATOM     16  C   UNL     1     -15.369   3.692  24.504  0.00  0.00    +0.006 C 
ENDROOT
BRANCH  12   7
ATOM      4  O   UNL     1     -16.480   1.047  27.666  0.00  0.00    -0.253 OA
ATOM      7  N   UNL     1     -16.026   3.128  26.740  0.00  0.00    -0.291 N 
ATOM      9  N   UNL     1     -15.990   2.863  29.025  0.00  0.00    -0.299 N 
ATOM     19  C   UNL     1     -16.192   2.236  27.798  0.00  0.00    +0.300 C 
ATOM     32  H   UNL     1     -15.840   4.102  26.961  0.00  0.00    +0.151 HD
ATOM     36  H   UNL     1     -15.747   3.849  29.036  0.00  0.00    +0.150 HD
BRANCH   9  23
ATOM     23  C   UNL     1     -16.101   2.169  30.286  0.00  0.00    +0.105 C 
BRANCH  23  24
ATOM     24  C   UNL     1     -14.782   1.541  30.720  0.00  0.00    +0.015 C 
ATOM     30  C   UNL     1     -14.913   0.058  31.038  0.00  0.00    +0.005 C 
ENDBRANCH  23  24
ENDBRANCH   9  23
ENDBRANCH  12   7
BRANCH  15  17
ATOM      3  O   UNL     1     -14.026   4.621  21.866  0.00  0.00    -0.271 OA
ATOM      8  N   UNL     1     -15.259   6.384  22.763  0.00  0.00    -0.300 N 
ATOM     17  C   UNL     1     -14.936   5.052  22.573  0.00  0.00    +0.241 C 
ATOM     35  H   UNL     1     -15.977   6.627  23.440  0.00  0.00    +0.150 HD
BRANCH   8  18
ATOM     18  C   UNL     1     -14.539   7.468  22.134  0.00  0.00    +0.163 C 
BRANCH  18  22
ATOM      5  O   UNL     1     -14.548   9.862  22.558  0.00  0.00    -0.274 OA
ATOM     10  N   UNL     1     -15.519   8.468  24.105  0.00  0.00    -0.328 N 
ATOM     22  C   UNL     1     -14.839   8.728  22.934  0.00  0.00    +0.231 C 
ATOM     37  H   UNL     1     -15.794   9.222  24.725  0.00  0.00    +0.145 HD
ATOM     38  H   UNL     1     -15.756   7.527  24.401  0.00  0.00    +0.145 HD
ENDBRANCH  18  22
BRANCH  18  20
ATOM     20  C   UNL     1     -14.944   7.658  20.667  0.00  0.00    +0.067 C 
BRANCH  20  21
ATOM     21  C   UNL     1     -13.756   7.730  19.739  0.00  0.00    -0.045 A 
ATOM     25  C   UNL     1     -12.490   7.362  20.198  0.00  0.00    +0.007 A 
ATOM     26  C   UNL     1     -13.923   8.162  18.424  0.00  0.00    +0.007 A 
ATOM     27  C   UNL     1     -11.392   7.429  19.341  0.00  0.00    +0.046 A 
ATOM     28  C   UNL     1     -12.823   8.228  17.567  0.00  0.00    +0.046 A 
ATOM     29  C   UNL     1     -11.558   7.862  18.026  0.00  0.00    +0.120 A 
BRANCH  29   6
ATOM      6  O   UNL     1     -10.486   7.926  17.190  0.00  0.00    -0.495 OA
ATOM     31  C   UNL     1     -10.321   9.126  16.437  0.00  0.00    +0.277 C 
ENDBRANCH  29   6
ENDBRANCH  20  21
ENDBRANCH  18  20
ENDBRANCH   8  18
ENDBRANCH  15  17
BRANCH  11   1
ATOM      1  O   UNL     1     -18.344   3.838  25.408  0.00  0.00    -0.387 OA
ATOM     33  H   UNL     1     -17.675   4.523  25.581  0.00  0.00    +0.210 HD
ENDBRANCH  11   1
BRANCH  13   2
ATOM      2  O   UNL     1     -17.303   1.339  22.948  0.00  0.00    -0.389 OA
ATOM     34  H   UNL     1     -16.406   1.499  22.611  0.00  0.00    +0.210 HD
ENDBRANCH  13   2
TORSDOF 11
ENDMDL
MODEL 8
REMARK VINA RESULT:      -6.2     12.604     16.735
REMARK  Name = 11865671
REMARK  13 active torsions:
REMARK  status: ('A' for Active; 'I' for Inactive)
REMARK    1  A    between atoms: O_1  and  C_11
REMARK    2  A    between atoms: O_2  and  C_13
REMARK    3  A    between atoms: O_6  and  C_29
REMARK    4  A    between atoms: O_6  and  C_31
REMARK    5  A    between atoms: N_7  and  C_12
REMARK    6  A    between atoms: N_8  and  C_18
REMARK    7  A    between atoms: N_9  and  C_23
REMARK    8  A    between atoms: C_15  and  C_17
REMARK    9  A    between atoms: C_18  and  C_20
REMARK   10  A    between atoms: C_18  and  C_22
REMARK   11  A    between atoms: C_20  and  C_21
REMARK   12  A    between atoms: C_23  and  C_24
REMARK   13  A    between atoms: C_24  and  C_30
REMARK                            x       y       z     vdW  Elec       q    Type
REMARK                         _______ _______ _______ _____ _____    ______ ____
ROOT
ATOM     11  C   UNL     1       8.987   6.564   6.023  0.00  0.00    +0.167 C 
ATOM     12  C   UNL     1       9.742   7.423   4.989  0.00  0.00    +0.129 C 
ATOM     13  C   UNL     1       9.740   5.264   6.329  0.00  0.00    +0.149 C 
ATOM     14  C   UNL     1      10.022   4.443   5.058  0.00  0.00    +0.074 C 
ATOM     15  C   UNL     1      10.390   5.289   3.873  0.00  0.00    +0.015 C 
ATOM     16  C   UNL     1      10.278   6.625   3.832  0.00  0.00    +0.006 C 
ENDROOT
BRANCH  12   7
ATOM      4  O   UNL     1       9.151   9.937   6.277  0.00  0.00    -0.253 OA
ATOM      7  N   UNL     1       8.913   8.488   4.478  0.00  0.00    -0.291 N 
ATOM      9  N   UNL     1       7.850  10.528   4.449  0.00  0.00    -0.299 N 
ATOM     19  C   UNL     1       8.681   9.675   5.171  0.00  0.00    +0.300 C 
ATOM     32  H   UNL     1       8.435   8.351   3.592  0.00  0.00    +0.151 HD
ATOM     36  H   UNL     1       7.516  10.229   3.538  0.00  0.00    +0.150 HD
BRANCH   9  23
ATOM     23  C   UNL     1       7.447  11.826   4.937  0.00  0.00    +0.105 C 
BRANCH  23  24
ATOM     24  C   UNL     1       5.967  12.100   4.701  0.00  0.00    +0.015 C 
ATOM     30  C   UNL     1       5.235  10.905   4.104  0.00  0.00    +0.005 C 
ENDBRANCH  23  24
ENDBRANCH   9  23
ENDBRANCH  12   7
BRANCH  15  17
ATOM      3  O   UNL     1      10.194   3.991   1.925  0.00  0.00    -0.271 OA
ATOM      8  N   UNL     1      12.298   4.775   2.553  0.00  0.00    -0.300 N 
ATOM     17  C   UNL     1      10.930   4.617   2.687  0.00  0.00    +0.241 C 
ATOM     35  H   UNL     1      12.817   5.240   3.292  0.00  0.00    +0.150 HD
BRANCH   8  18
ATOM     18  C   UNL     1      13.055   4.202   1.463  0.00  0.00    +0.163 C 
BRANCH  18  22
ATOM      5  O   UNL     1      15.189   3.080   1.770  0.00  0.00    -0.274 OA
ATOM     10  N   UNL     1      14.965   5.240   2.520  0.00  0.00    -0.328 N 
ATOM     22  C   UNL     1      14.498   4.082   1.934  0.00  0.00    +0.231 C 
ATOM     37  H   UNL     1      15.917   5.300   2.865  0.00  0.00    +0.145 HD
ATOM     38  H   UNL     1      14.383   6.061   2.645  0.00  0.00    +0.145 HD
ENDBRANCH  18  22
BRANCH  18  20
ATOM     20  C   UNL     1      12.977   5.056   0.192  0.00  0.00    +0.067 C 
BRANCH  20  21
ATOM     21  C   UNL     1      12.106   4.437  -0.874  0.00  0.00    -0.045 A 
ATOM     25  C   UNL     1      11.041   5.163  -1.410  0.00  0.00    +0.007 A 
ATOM     26  C   UNL     1      12.365   3.143  -1.324  0.00  0.00    +0.007 A 
ATOM     27  C   UNL     1      10.234   4.592  -2.395  0.00  0.00    +0.046 A 
ATOM     28  C   UNL     1      11.557   2.573  -2.309  0.00  0.00    +0.046 A 
ATOM     29  C   UNL     1      10.493   3.298  -2.844  0.00  0.00    +0.120 A 
BRANCH  29   6
ATOM      6  O   UNL     1       9.706   2.741  -3.805  0.00  0.00    -0.495 OA
ATOM     31  C   UNL     1       9.265   1.402  -3.589  0.00  0.00    +0.277 C 
ENDBRANCH  29   6
ENDBRANCH  20  21
ENDBRANCH  18  20
ENDBRANCH   8  18
ENDBRANCH  15  17
BRANCH  11   1
ATOM      1  O   UNL     1       7.691   6.236   5.519  0.00  0.00    -0.387 OA
ATOM     33  H   UNL     1       7.041   6.758   6.020  0.00  0.00    +0.210 HD
ENDBRANCH  11   1
BRANCH  13   2
ATOM      2  O   UNL     1      10.963   5.552   7.006  0.00  0.00    -0.389 OA
ATOM     34  H   UNL     1      11.154   4.806   7.599  0.00  0.00    +0.210 HD
ENDBRANCH  13   2
TORSDOF 11
ENDMDL
MODEL 9
REMARK VINA RESULT:      -6.2     10.895     14.011
REMARK  Name = 11865671
REMARK  13 active torsions:
REMARK  status: ('A' for Active; 'I' for Inactive)
REMARK    1  A    between atoms: O_1  and  C_11
REMARK    2  A    between atoms: O_2  and  C_13
REMARK    3  A    between atoms: O_6  and  C_29
REMARK    4  A    between atoms: O_6  and  C_31
REMARK    5  A    between atoms: N_7  and  C_12
REMARK    6  A    between atoms: N_8  and  C_18
REMARK    7  A    between atoms: N_9  and  C_23
REMARK    8  A    between atoms: C_15  and  C_17
REMARK    9  A    between atoms: C_18  and  C_20
REMARK   10  A    between atoms: C_18  and  C_22
REMARK   11  A    between atoms: C_20  and  C_21
REMARK   12  A    between atoms: C_23  and  C_24
REMARK   13  A    between atoms: C_24  and  C_30
REMARK                            x       y       z     vdW  Elec       q    Type
REMARK                         _______ _______ _______ _____ _____    ______ ____
ROOT
ATOM     11  C   UNL     1      15.181   9.226   4.818  0.00  0.00    +0.167 C 
ATOM     12  C   UNL     1      14.996   7.793   5.352  0.00  0.00    +0.129 C 
ATOM     13  C   UNL     1      14.547  10.261   5.755  0.00  0.00    +0.149 C 
ATOM     14  C   UNL     1      13.057   9.976   6.011  0.00  0.00    +0.074 C 
ATOM     15  C   UNL     1      12.747   8.513   6.151  0.00  0.00    +0.015 C 
ATOM     16  C   UNL     1      13.609   7.525   5.868  0.00  0.00    +0.006 C 
ENDROOT
BRANCH  12   7
ATOM      4  O   UNL     1      13.347   6.959   3.135  0.00  0.00    -0.253 OA
ATOM      7  N   UNL     1      15.320   6.807   4.350  0.00  0.00    -0.291 N 
ATOM      9  N   UNL     1      15.022   5.490   2.487  0.00  0.00    -0.299 N 
ATOM     19  C   UNL     1      14.460   6.464   3.309  0.00  0.00    +0.300 C 
ATOM     32  H   UNL     1      16.197   6.299   4.432  0.00  0.00    +0.151 HD
ATOM     36  H   UNL     1      15.952   5.145   2.705  0.00  0.00    +0.150 HD
BRANCH   9  23
ATOM     23  C   UNL     1      14.342   4.952   1.333  0.00  0.00    +0.105 C 
BRANCH  23  24
ATOM     24  C   UNL     1      13.769   3.564   1.592  0.00  0.00    +0.015 C 
ATOM     30  C   UNL     1      12.289   3.597   1.950  0.00  0.00    +0.005 C 
ENDBRANCH  23  24
ENDBRANCH   9  23
ENDBRANCH  12   7
BRANCH  15  17
ATOM      3  O   UNL     1      10.648   8.979   7.099  0.00  0.00    -0.271 OA
ATOM      8  N   UNL     1      11.178   6.775   6.558  0.00  0.00    -0.300 N 
ATOM     17  C   UNL     1      11.422   8.133   6.652  0.00  0.00    +0.241 C 
ATOM     35  H   UNL     1      11.925   6.158   6.253  0.00  0.00    +0.150 HD
BRANCH   8  18
ATOM     18  C   UNL     1       9.941   6.163   6.991  0.00  0.00    +0.163 C 
BRANCH  18  22
ATOM      5  O   UNL     1      10.618   5.433   9.209  0.00  0.00    -0.274 OA
ATOM     10  N   UNL     1      10.175   3.840   7.614  0.00  0.00    -0.328 N 
ATOM     22  C   UNL     1      10.298   5.139   8.059  0.00  0.00    +0.231 C 
ATOM     37  H   UNL     1      10.369   3.058   8.232  0.00  0.00    +0.145 HD
ATOM     38  H   UNL     1       9.906   3.611   6.663  0.00  0.00    +0.145 HD
ENDBRANCH  18  22
BRANCH  18  20
ATOM     20  C   UNL     1       9.193   5.490   5.834  0.00  0.00    +0.067 C 
BRANCH  20  21
ATOM     21  C   UNL     1       9.072   6.380   4.622  0.00  0.00    -0.045 A 
ATOM     25  C   UNL     1       8.193   7.465   4.639  0.00  0.00    +0.007 A 
ATOM     26  C   UNL     1       9.837   6.121   3.485  0.00  0.00    +0.007 A 
ATOM     27  C   UNL     1       8.080   8.288   3.518  0.00  0.00    +0.046 A 
ATOM     28  C   UNL     1       9.724   6.945   2.365  0.00  0.00    +0.046 A 
ATOM     29  C   UNL     1       8.845   8.028   2.382  0.00  0.00    +0.120 A 
BRANCH  29   6
ATOM      6  O   UNL     1       8.735   8.832   1.289  0.00  0.00    -0.495 OA
ATOM     31  C   UNL     1       8.274  10.164   1.506  0.00  0.00    +0.277 C 
ENDBRANCH  29   6
ENDBRANCH  20  21
ENDBRANCH  18  20
ENDBRANCH   8  18
ENDBRANCH  15  17
BRANCH  11   1
ATOM      1  O   UNL     1      14.572   9.340   3.530  0.00  0.00    -0.387 OA
ATOM     33  H   UNL     1      14.181   8.476   3.314  0.00  0.00    +0.210 HD
ENDBRANCH  11   1
BRANCH  13   2
ATOM      2  O   UNL     1      15.257  10.303   6.992  0.00  0.00    -0.389 OA
ATOM     34  H   UNL     1      15.257   9.404   7.362  0.00  0.00    +0.210 HD
ENDBRANCH  13   2
TORSDOF 11
ENDMDL
MODEL 10
REMARK VINA RESULT:      -6.1     27.453     30.382
REMARK  Name = 11865671
REMARK  13 active torsions:
REMARK  status: ('A' for Active; 'I' for Inactive)
REMARK    1  A    between atoms: O_1  and  C_11
REMARK    2  A    between atoms: O_2  and  C_13
REMARK    3  A    between atoms: O_6  and  C_29
REMARK    4  A    between atoms: O_6  and  C_31
REMARK    5  A    between atoms: N_7  and  C_12
REMARK    6  A    between atoms: N_8  and  C_18
REMARK    7  A    between atoms: N_9  and  C_23
REMARK    8  A    between atoms: C_15  and  C_17
REMARK    9  A    between atoms: C_18  and  C_20
REMARK   10  A    between atoms: C_18  and  C_22
REMARK   11  A    between atoms: C_20  and  C_21
REMARK   12  A    between atoms: C_23  and  C_24
REMARK   13  A    between atoms: C_24  and  C_30
REMARK                            x       y       z     vdW  Elec       q    Type
REMARK                         _______ _______ _______ _____ _____    ______ ____
ROOT
ATOM     11  C   UNL     1      -4.372 -11.072  15.857  0.00  0.00    +0.167 C 
ATOM     12  C   UNL     1      -5.878 -10.964  15.549  0.00  0.00    +0.129 C 
ATOM     13  C   UNL     1      -4.109 -11.976  17.068  0.00  0.00    +0.149 C 
ATOM     14  C   UNL     1      -4.877 -11.511  18.317  0.00  0.00    +0.074 C 
ATOM     15  C   UNL     1      -6.259 -11.007  18.013  0.00  0.00    +0.015 C 
ATOM     16  C   UNL     1      -6.724 -10.767  16.778  0.00  0.00    +0.006 C 
ENDROOT
BRANCH  12   7
ATOM      4  O   UNL     1      -5.764 -11.103  12.669  0.00  0.00    -0.253 OA
ATOM      7  N   UNL     1      -6.155  -9.899  14.616  0.00  0.00    -0.291 N 
ATOM      9  N   UNL     1      -6.394  -8.872  12.571  0.00  0.00    -0.299 N 
ATOM     19  C   UNL     1      -6.075 -10.055  13.234  0.00  0.00    +0.300 C 
ATOM     32  H   UNL     1      -6.371  -8.976  14.981  0.00  0.00    +0.151 HD
ATOM     36  H   UNL     1      -6.647  -8.057  13.122  0.00  0.00    +0.150 HD
BRANCH   9  23
ATOM     23  C   UNL     1      -6.389  -8.755  11.132  0.00  0.00    +0.105 C 
BRANCH  23  24
ATOM     24  C   UNL     1      -5.042  -8.287  10.594  0.00  0.00    +0.015 C 
ATOM     30  C   UNL     1      -4.646  -8.994   9.305  0.00  0.00    +0.005 C 
ENDBRANCH  23  24
ENDBRANCH   9  23
ENDBRANCH  12   7
BRANCH  15  17
ATOM      3  O   UNL     1      -6.781 -10.256  20.177  0.00  0.00    -0.271 OA
ATOM      8  N   UNL     1      -8.461 -11.221  18.880  0.00  0.00    -0.300 N 
ATOM     17  C   UNL     1      -7.174 -10.783  19.137  0.00  0.00    +0.241 C 
ATOM     35  H   UNL     1      -8.650 -11.721  18.017  0.00  0.00    +0.150 HD
BRANCH   8  18
ATOM     18  C   UNL     1      -9.538 -11.109  19.838  0.00  0.00    +0.163 C 
BRANCH  18  22
ATOM      5  O   UNL     1      -9.957 -13.406  19.165  0.00  0.00    -0.274 OA
ATOM     10  N   UNL     1     -11.061 -12.581  21.003  0.00  0.00    -0.328 N 
ATOM     22  C   UNL     1     -10.198 -12.477  19.932  0.00  0.00    +0.231 C 
ATOM     37  H   UNL     1     -11.556 -13.447  21.189  0.00  0.00    +0.145 HD
ATOM     38  H   UNL     1     -11.248 -11.806  21.631  0.00  0.00    +0.145 HD
ENDBRANCH  18  22
BRANCH  18  20
ATOM     20  C   UNL     1     -10.567 -10.046  19.432  0.00  0.00    +0.067 C 
BRANCH  20  21
ATOM     21  C   UNL     1     -10.526  -9.729  17.957  0.00  0.00    -0.045 A 
ATOM     25  C   UNL     1      -9.846  -8.597  17.507  0.00  0.00    +0.007 A 
ATOM     26  C   UNL     1     -11.166 -10.568  17.044  0.00  0.00    +0.007 A 
ATOM     27  C   UNL     1      -9.808  -8.303  16.143  0.00  0.00    +0.046 A 
ATOM     28  C   UNL     1     -11.127 -10.273  15.681  0.00  0.00    +0.046 A 
ATOM     29  C   UNL     1     -10.448  -9.141  15.231  0.00  0.00    +0.120 A 
BRANCH  29   6
ATOM      6  O   UNL     1     -10.410  -8.854  13.901  0.00  0.00    -0.495 OA
ATOM     31  C   UNL     1     -11.654  -8.576  13.261  0.00  0.00    +0.277 C 
ENDBRANCH  29   6
ENDBRANCH  20  21
ENDBRANCH  18  20
ENDBRANCH   8  18
ENDBRANCH  15  17
BRANCH  11   1
ATOM      1  O   UNL     1      -3.845  -9.772  16.132  0.00  0.00    -0.387 OA
ATOM     33  H   UNL     1      -2.887  -9.868  16.271  0.00  0.00    +0.210 HD
ENDBRANCH  11   1
BRANCH  13   2
ATOM      2  O   UNL     1      -4.454 -13.325  16.756  0.00  0.00    -0.389 OA
ATOM     34  H   UNL     1      -4.894 -13.704  17.535  0.00  0.00    +0.210 HD
ENDBRANCH  13   2
TORSDOF 11
ENDMDL
