MODEL 1
REMARK VINA RESULT:      -6.7      0.000      0.000
REMARK  Name = 40779858
REMARK  8 active torsions:
REMARK  status: ('A' for Active; 'I' for Inactive)
REMARK    1  A    between atoms: S_2  and  N_7
REMARK    2  A    between atoms: S_2  and  C_19
REMARK    3  A    between atoms: N_6  and  C_15
REMARK    4  A    between atoms: N_6  and  C_17
REMARK    5  A    between atoms: N_6  and  C_18
REMARK    6  A    between atoms: N_7  and  C_16
REMARK    7  A    between atoms: C_9  and  C_15
REMARK    8  A    between atoms: C_10  and  C_16
REMARK                            x       y       z     vdW  Elec       q    Type
REMARK                         _______ _______ _______ _____ _____    ______ ____
ROOT
ATOM      5  N   UNL     1     -17.473   4.099  24.038  0.00  0.00    -0.298 NA
ATOM      8  C   UNL     1     -17.308   2.388  25.991  0.00  0.00    -0.002 C 
ATOM      9  C   UNL     1     -17.683   3.792  26.517  0.00  0.00    +0.023 C 
ATOM     10  C   UNL     1     -16.167   3.386  23.982  0.00  0.00    +0.072 C 
ATOM     11  C   UNL     1     -15.982   2.473  25.214  0.00  0.00    +0.024 C 
ATOM     12  C   UNL     1     -17.624   4.792  25.341  0.00  0.00    +0.090 C 
ATOM     13  C   UNL     1     -18.402   1.982  24.983  0.00  0.00    +0.019 C 
ATOM     14  C   UNL     1     -18.551   3.088  23.924  0.00  0.00    +0.085 C 
ENDROOT
BRANCH   9  15
ATOM     15  C   UNL     1     -16.815   4.247  27.688  0.00  0.00    +0.109 C 
BRANCH  15   6
ATOM      6  N   UNL     1     -17.017   3.374  28.812  0.00  0.00    -0.333 N 
ATOM     17  C   UNL     1     -18.341   3.327  29.440  0.00  0.00    +0.129 C 
BRANCH   6  18
ATOM     18  C   UNL     1     -15.978   2.577  29.321  0.00  0.00    +0.029 A 
ATOM     20  C   UNL     1     -14.806   3.172  29.787  0.00  0.00    +0.023 A 
ATOM     21  C   UNL     1     -16.119   1.190  29.359  0.00  0.00    +0.023 A 
ATOM     22  C   UNL     1     -13.775   2.380  30.291  0.00  0.00    +0.002 A 
ATOM     23  C   UNL     1     -15.088   0.397  29.865  0.00  0.00    +0.002 A 
ATOM     26  C   UNL     1     -13.916   0.993  30.331  0.00  0.00    +0.000 A 
ENDBRANCH   6  18
ENDBRANCH  15   6
ENDBRANCH   9  15
BRANCH  10  16
ATOM     16  C   UNL     1     -14.986   4.342  23.800  0.00  0.00    +0.124 C 
BRANCH  16   7
ATOM      7  N   UNL     1     -14.688   4.480  22.401  0.00  0.00    -0.188 NA
ATOM     30  H   UNL     1     -13.926   3.926  21.996  0.00  0.00    +0.148 HD
BRANCH   7   2
ATOM      2  S   UNL     1     -15.461   5.682  21.440  0.00  0.00    +0.058 S 
ATOM      3  O   UNL     1     -16.241   6.541  22.310  0.00  0.00    -0.153 OA
ATOM      4  O   UNL     1     -16.075   5.071  20.277  0.00  0.00    -0.153 OA
BRANCH   2  19
ATOM      1 CL   UNL     1     -10.524   8.975  19.392  0.00  0.00    -0.084 Cl
ATOM     19  C   UNL     1     -14.071   6.609  20.864  0.00  0.00    +0.105 A 
ATOM     24  C   UNL     1     -12.789   6.301  21.321  0.00  0.00    +0.030 A 
ATOM     25  C   UNL     1     -14.256   7.648  19.951  0.00  0.00    +0.030 A 
ATOM     27  C   UNL     1     -11.693   7.034  20.866  0.00  0.00    +0.022 A 
ATOM     28  C   UNL     1     -13.158   8.379  19.496  0.00  0.00    +0.022 A 
ATOM     29  C   UNL     1     -11.877   8.073  19.953  0.00  0.00    +0.041 A 
ENDBRANCH   2  19
ENDBRANCH   7   2
ENDBRANCH  16   7
ENDBRANCH  10  16
TORSDOF 7
ENDMDL
MODEL 2
REMARK VINA RESULT:      -6.6     19.413     20.683
REMARK  Name = 40779858
REMARK  8 active torsions:
REMARK  status: ('A' for Active; 'I' for Inactive)
REMARK    1  A    between atoms: S_2  and  N_7
REMARK    2  A    between atoms: S_2  and  C_19
REMARK    3  A    between atoms: N_6  and  C_15
REMARK    4  A    between atoms: N_6  and  C_17
REMARK    5  A    between atoms: N_6  and  C_18
REMARK    6  A    between atoms: N_7  and  C_16
REMARK    7  A    between atoms: C_9  and  C_15
REMARK    8  A    between atoms: C_10  and  C_16
REMARK                            x       y       z     vdW  Elec       q    Type
REMARK                         _______ _______ _______ _____ _____    ______ ____
ROOT
ATOM      5  N   UNL     1      -5.385 -12.693  16.614  0.00  0.00    -0.298 NA
ATOM      8  C   UNL     1      -5.158 -10.719  18.293  0.00  0.00    -0.002 C 
ATOM      9  C   UNL     1      -6.643 -11.012  17.984  0.00  0.00    +0.023 C 
ATOM     10  C   UNL     1      -4.452 -11.668  16.072  0.00  0.00    +0.072 C 
ATOM     11  C   UNL     1      -4.414 -10.418  16.979  0.00  0.00    +0.024 C 
ATOM     12  C   UNL     1      -6.714 -12.089  16.878  0.00  0.00    +0.090 C 
ATOM     13  C   UNL     1      -4.557 -12.015  18.871  0.00  0.00    +0.019 C 
ATOM     14  C   UNL     1      -4.834 -13.178  17.902  0.00  0.00    +0.085 C 
ENDROOT
BRANCH   9  15
ATOM     15  C   UNL     1      -7.438  -9.764  17.606  0.00  0.00    +0.109 C 
BRANCH  15   6
ATOM      6  N   UNL     1      -8.792  -9.889  18.073  0.00  0.00    -0.333 N 
ATOM     17  C   UNL     1      -9.084 -10.850  19.142  0.00  0.00    +0.129 C 
BRANCH   6  18
ATOM     18  C   UNL     1      -9.833  -9.119  17.527  0.00  0.00    +0.029 A 
ATOM     20  C   UNL     1      -9.542  -7.941  16.838  0.00  0.00    +0.023 A 
ATOM     21  C   UNL     1     -11.156  -9.534  17.673  0.00  0.00    +0.023 A 
ATOM     22  C   UNL     1     -10.575  -7.178  16.296  0.00  0.00    +0.002 A 
ATOM     23  C   UNL     1     -12.190  -8.771  17.130  0.00  0.00    +0.002 A 
ATOM     26  C   UNL     1     -11.900  -7.593  16.441  0.00  0.00    +0.000 A 
ENDBRANCH   6  18
ENDBRANCH  15   6
ENDBRANCH   9  15
BRANCH  10  16
ATOM     16  C   UNL     1      -4.762 -11.306  14.618  0.00  0.00    +0.124 C 
BRANCH  16   7
ATOM      7  N   UNL     1      -3.808 -10.338  14.147  0.00  0.00    -0.188 NA
ATOM     30  H   UNL     1      -3.982  -9.342  14.322  0.00  0.00    +0.148 HD
BRANCH   7   2
ATOM      2  S   UNL     1      -2.486 -10.804  13.149  0.00  0.00    +0.058 S 
ATOM      3  O   UNL     1      -2.200 -12.207  13.381  0.00  0.00    -0.153 OA
ATOM      4  O   UNL     1      -1.425  -9.819  13.236  0.00  0.00    -0.153 OA
BRANCH   2  19
ATOM      1 CL   UNL     1      -5.022 -10.268   7.430  0.00  0.00    -0.084 Cl
ATOM     19  C   UNL     1      -3.200 -10.653  11.539  0.00  0.00    +0.105 A 
ATOM     24  C   UNL     1      -3.155  -9.431  10.867  0.00  0.00    +0.030 A 
ATOM     25  C   UNL     1      -3.808 -11.757  10.939  0.00  0.00    +0.030 A 
ATOM     27  C   UNL     1      -3.719  -9.312   9.597  0.00  0.00    +0.022 A 
ATOM     28  C   UNL     1      -4.371 -11.637   9.668  0.00  0.00    +0.022 A 
ATOM     29  C   UNL     1      -4.327 -10.415   8.998  0.00  0.00    +0.041 A 
ENDBRANCH   2  19
ENDBRANCH   7   2
ENDBRANCH  16   7
ENDBRANCH  10  16
TORSDOF 7
ENDMDL
MODEL 3
REMARK VINA RESULT:      -6.5     19.174     20.537
REMARK  Name = 40779858
REMARK  8 active torsions:
REMARK  status: ('A' for Active; 'I' for Inactive)
REMARK    1  A    between atoms: S_2  and  N_7
REMARK    2  A    between atoms: S_2  and  C_19
REMARK    3  A    between atoms: N_6  and  C_15
REMARK    4  A    between atoms: N_6  and  C_17
REMARK    5  A    between atoms: N_6  and  C_18
REMARK    6  A    between atoms: N_7  and  C_16
REMARK    7  A    between atoms: C_9  and  C_15
REMARK    8  A    between atoms: C_10  and  C_16
REMARK                            x       y       z     vdW  Elec       q    Type
REMARK                         _______ _______ _______ _____ _____    ______ ____
ROOT
ATOM      5  N   UNL     1      -6.471 -12.804  17.853  0.00  0.00    -0.298 NA
ATOM      8  C   UNL     1      -6.034 -10.300  18.410  0.00  0.00    -0.002 C 
ATOM      9  C   UNL     1      -7.191 -10.447  17.396  0.00  0.00    +0.023 C 
ATOM     10  C   UNL     1      -5.030 -12.483  17.661  0.00  0.00    +0.072 C 
ATOM     11  C   UNL     1      -4.771 -10.971  17.841  0.00  0.00    +0.024 C 
ATOM     12  C   UNL     1      -7.310 -11.933  16.993  0.00  0.00    +0.090 C 
ATOM     13  C   UNL     1      -6.441 -11.090  19.670  0.00  0.00    +0.019 C 
ATOM     14  C   UNL     1      -6.817 -12.527  19.268  0.00  0.00    +0.085 C 
ENDROOT
BRANCH   9  15
ATOM     15  C   UNL     1      -7.039  -9.542  16.175  0.00  0.00    +0.109 C 
BRANCH  15   6
ATOM      6  N   UNL     1      -8.252  -9.561  15.401  0.00  0.00    -0.333 N 
ATOM     17  C   UNL     1      -8.186  -9.977  13.997  0.00  0.00    +0.129 C 
BRANCH   6  18
ATOM     18  C   UNL     1      -9.486  -9.185  15.958  0.00  0.00    +0.029 A 
ATOM     20  C   UNL     1      -9.671  -7.887  16.433  0.00  0.00    +0.023 A 
ATOM     21  C   UNL     1     -10.526 -10.111  16.035  0.00  0.00    +0.023 A 
ATOM     22  C   UNL     1     -10.895  -7.514  16.985  0.00  0.00    +0.002 A 
ATOM     23  C   UNL     1     -11.752  -9.739  16.587  0.00  0.00    +0.002 A 
ATOM     26  C   UNL     1     -11.936  -8.440  17.062  0.00  0.00    +0.000 A 
ENDBRANCH   6  18
ENDBRANCH  15   6
ENDBRANCH   9  15
BRANCH  10  16
ATOM     16  C   UNL     1      -4.490 -12.998  16.325  0.00  0.00    +0.124 C 
BRANCH  16   7
ATOM      7  N   UNL     1      -4.187 -11.886  15.466  0.00  0.00    -0.188 NA
ATOM     30  H   UNL     1      -4.946 -11.257  15.179  0.00  0.00    +0.148 HD
BRANCH   7   2
ATOM      2  S   UNL     1      -2.625 -11.699  14.769  0.00  0.00    +0.058 S 
ATOM      3  O   UNL     1      -2.097 -13.011  14.451  0.00  0.00    -0.153 OA
ATOM      4  O   UNL     1      -1.838 -10.767  15.555  0.00  0.00    -0.153 OA
BRANCH   2  19
ATOM      1 CL   UNL     1      -4.028  -8.818   9.370  0.00  0.00    -0.084 Cl
ATOM     19  C   UNL     1      -3.020 -10.888  13.249  0.00  0.00    +0.105 A 
ATOM     24  C   UNL     1      -4.342 -10.542  12.966  0.00  0.00    +0.030 A 
ATOM     25  C   UNL     1      -2.010 -10.592  12.333  0.00  0.00    +0.030 A 
ATOM     27  C   UNL     1      -4.653  -9.903  11.766  0.00  0.00    +0.022 A 
ATOM     28  C   UNL     1      -2.322  -9.952  11.134  0.00  0.00    +0.022 A 
ATOM     29  C   UNL     1      -3.643  -9.607  10.850  0.00  0.00    +0.041 A 
ENDBRANCH   2  19
ENDBRANCH   7   2
ENDBRANCH  16   7
ENDBRANCH  10  16
TORSDOF 7
ENDMDL
MODEL 4
REMARK VINA RESULT:      -6.5     28.135     32.041
REMARK  Name = 40779858
REMARK  8 active torsions:
REMARK  status: ('A' for Active; 'I' for Inactive)
REMARK    1  A    between atoms: S_2  and  N_7
REMARK    2  A    between atoms: S_2  and  C_19
REMARK    3  A    between atoms: N_6  and  C_15
REMARK    4  A    between atoms: N_6  and  C_17
REMARK    5  A    between atoms: N_6  and  C_18
REMARK    6  A    between atoms: N_7  and  C_16
REMARK    7  A    between atoms: C_9  and  C_15
REMARK    8  A    between atoms: C_10  and  C_16
REMARK                            x       y       z     vdW  Elec       q    Type
REMARK                         _______ _______ _______ _____ _____    ______ ____
ROOT
ATOM      5  N   UNL     1      12.837   6.742  20.886  0.00  0.00    -0.298 NA
ATOM      8  C   UNL     1      11.478   8.961  20.909  0.00  0.00    -0.002 C 
ATOM      9  C   UNL     1      12.085   8.699  19.512  0.00  0.00    +0.023 C 
ATOM     10  C   UNL     1      13.291   7.606  22.010  0.00  0.00    +0.072 C 
ATOM     11  C   UNL     1      12.606   8.989  21.957  0.00  0.00    +0.024 C 
ATOM     12  C   UNL     1      12.995   7.453  19.594  0.00  0.00    +0.090 C 
ATOM     13  C   UNL     1      10.580   7.752  21.239  0.00  0.00    +0.019 C 
ATOM     14  C   UNL     1      11.395   6.457  21.083  0.00  0.00    +0.085 C 
ENDROOT
BRANCH   9  15
ATOM     15  C   UNL     1      12.831   9.905  18.944  0.00  0.00    +0.109 C 
BRANCH  15   6
ATOM      6  N   UNL     1      12.858   9.829  17.508  0.00  0.00    -0.333 N 
ATOM     17  C   UNL     1      11.903   8.946  16.831  0.00  0.00    +0.129 C 
BRANCH   6  18
ATOM     18  C   UNL     1      13.777  10.573  16.749  0.00  0.00    +0.029 A 
ATOM     20  C   UNL     1      14.922  11.093  17.353  0.00  0.00    +0.023 A 
ATOM     21  C   UNL     1      13.543  10.791  15.392  0.00  0.00    +0.023 A 
ATOM     22  C   UNL     1      15.833  11.830  16.599  0.00  0.00    +0.002 A 
ATOM     23  C   UNL     1      14.456  11.529  14.637  0.00  0.00    +0.002 A 
ATOM     26  C   UNL     1      15.601  12.049  15.241  0.00  0.00    +0.000 A 
ENDBRANCH   6  18
ENDBRANCH  15   6
ENDBRANCH   9  15
BRANCH  10  16
ATOM     16  C   UNL     1      14.815   7.728  22.073  0.00  0.00    +0.124 C 
BRANCH  16   7
ATOM      7  N   UNL     1      15.417   6.643  21.348  0.00  0.00    -0.188 NA
ATOM     30  H   UNL     1      15.334   5.690  21.717  0.00  0.00    +0.148 HD
BRANCH   7   2
ATOM      2  S   UNL     1      16.420   6.935  19.979  0.00  0.00    +0.058 S 
ATOM      3  O   UNL     1      16.257   8.317  19.571  0.00  0.00    -0.153 OA
ATOM      4  O   UNL     1      16.266   5.866  19.012  0.00  0.00    -0.153 OA
BRANCH   2  19
ATOM      1 CL   UNL     1      22.139   6.322  22.496  0.00  0.00    -0.084 Cl
ATOM     19  C   UNL     1      18.030   6.763  20.688  0.00  0.00    +0.105 A 
ATOM     24  C   UNL     1      18.900   5.782  20.211  0.00  0.00    +0.030 A 
ATOM     25  C   UNL     1      18.431   7.607  21.724  0.00  0.00    +0.030 A 
ATOM     27  C   UNL     1      20.170   5.646  20.771  0.00  0.00    +0.022 A 
ATOM     28  C   UNL     1      19.701   7.471  22.282  0.00  0.00    +0.022 A 
ATOM     29  C   UNL     1      20.571   6.490  21.806  0.00  0.00    +0.041 A 
ENDBRANCH   2  19
ENDBRANCH   7   2
ENDBRANCH  16   7
ENDBRANCH  10  16
TORSDOF 7
ENDMDL
MODEL 5
REMARK VINA RESULT:      -6.3     32.707     35.727
REMARK  Name = 40779858
REMARK  8 active torsions:
REMARK  status: ('A' for Active; 'I' for Inactive)
REMARK    1  A    between atoms: S_2  and  N_7
REMARK    2  A    between atoms: S_2  and  C_19
REMARK    3  A    between atoms: N_6  and  C_15
REMARK    4  A    between atoms: N_6  and  C_17
REMARK    5  A    between atoms: N_6  and  C_18
REMARK    6  A    between atoms: N_7  and  C_16
REMARK    7  A    between atoms: C_9  and  C_15
REMARK    8  A    between atoms: C_10  and  C_16
REMARK                            x       y       z     vdW  Elec       q    Type
REMARK                         _______ _______ _______ _____ _____    ______ ____
ROOT
ATOM      5  N   UNL     1      13.494   9.514   6.040  0.00  0.00    -0.298 NA
ATOM      8  C   UNL     1      15.088   7.548   5.440  0.00  0.00    -0.002 C 
ATOM      9  C   UNL     1      14.348   8.062   4.185  0.00  0.00    +0.023 C 
ATOM     10  C   UNL     1      13.228   8.352   6.932  0.00  0.00    +0.072 C 
ATOM     11  C   UNL     1      14.057   7.122   6.501  0.00  0.00    +0.024 C 
ATOM     12  C   UNL     1      13.315   9.124   4.621  0.00  0.00    +0.090 C 
ATOM     13  C   UNL     1      15.870   8.744   6.020  0.00  0.00    +0.019 C 
ATOM     14  C   UNL     1      14.905   9.924   6.233  0.00  0.00    +0.085 C 
ENDROOT
BRANCH   9  15
ATOM     15  C   UNL     1      13.700   6.946   3.369  0.00  0.00    +0.109 C 
BRANCH  15   6
ATOM      6  N   UNL     1      14.462   6.711   2.172  0.00  0.00    -0.333 N 
ATOM     17  C   UNL     1      15.601   7.586   1.878  0.00  0.00    +0.129 C 
BRANCH   6  18
ATOM     18  C   UNL     1      14.135   5.673   1.283  0.00  0.00    +0.029 A 
ATOM     20  C   UNL     1      14.020   4.364   1.752  0.00  0.00    +0.023 A 
ATOM     21  C   UNL     1      13.926   5.952  -0.067  0.00  0.00    +0.023 A 
ATOM     22  C   UNL     1      13.696   3.334   0.870  0.00  0.00    +0.002 A 
ATOM     23  C   UNL     1      13.601   4.922  -0.950  0.00  0.00    +0.002 A 
ATOM     26  C   UNL     1      13.486   3.613  -0.481  0.00  0.00    +0.000 A 
ENDBRANCH   6  18
ENDBRANCH  15   6
ENDBRANCH   9  15
BRANCH  10  16
ATOM     16  C   UNL     1      11.737   8.025   7.036  0.00  0.00    +0.124 C 
BRANCH  16   7
ATOM      7  N   UNL     1      11.536   6.616   6.833  0.00  0.00    -0.188 NA
ATOM     30  H   UNL     1      12.353   5.996   6.801  0.00  0.00    +0.148 HD
BRANCH   7   2
ATOM      2  S   UNL     1       9.979   5.983   6.462  0.00  0.00    +0.058 S 
ATOM      3  O   UNL     1       8.982   6.985   6.784  0.00  0.00    -0.153 OA
ATOM      4  O   UNL     1       9.853   4.635   6.983  0.00  0.00    -0.153 OA
BRANCH   2  19
ATOM      1 CL   UNL     1      10.302   5.513   0.210  0.00  0.00    -0.084 Cl
ATOM     19  C   UNL     1      10.070   5.850   4.702  0.00  0.00    +0.105 A 
ATOM     24  C   UNL     1      10.511   4.664   4.114  0.00  0.00    +0.030 A 
ATOM     25  C   UNL     1       9.700   6.931   3.901  0.00  0.00    +0.030 A 
ATOM     27  C   UNL     1      10.583   4.561   2.725  0.00  0.00    +0.022 A 
ATOM     28  C   UNL     1       9.772   6.826   2.512  0.00  0.00    +0.022 A 
ATOM     29  C   UNL     1      10.213   5.642   1.924  0.00  0.00    +0.041 A 
ENDBRANCH   2  19
ENDBRANCH   7   2
ENDBRANCH  16   7
ENDBRANCH  10  16
TORSDOF 7
ENDMDL
MODEL 6
REMARK VINA RESULT:      -6.3     19.186     20.446
REMARK  Name = 40779858
REMARK  8 active torsions:
REMARK  status: ('A' for Active; 'I' for Inactive)
REMARK    1  A    between atoms: S_2  and  N_7
REMARK    2  A    between atoms: S_2  and  C_19
REMARK    3  A    between atoms: N_6  and  C_15
REMARK    4  A    between atoms: N_6  and  C_17
REMARK    5  A    between atoms: N_6  and  C_18
REMARK    6  A    between atoms: N_7  and  C_16
REMARK    7  A    between atoms: C_9  and  C_15
REMARK    8  A    between atoms: C_10  and  C_16
REMARK                            x       y       z     vdW  Elec       q    Type
REMARK                         _______ _______ _______ _____ _____    ______ ____
ROOT
ATOM      5  N   UNL     1      -5.092 -12.343  18.317  0.00  0.00    -0.298 NA
ATOM      8  C   UNL     1      -6.705 -10.308  18.148  0.00  0.00    -0.002 C 
ATOM      9  C   UNL     1      -7.409 -11.610  17.700  0.00  0.00    +0.023 C 
ATOM     10  C   UNL     1      -4.454 -11.250  17.532  0.00  0.00    +0.072 C 
ATOM     11  C   UNL     1      -5.446 -10.090  17.291  0.00  0.00    +0.024 C 
ATOM     12  C   UNL     1      -6.369 -12.752  17.682  0.00  0.00    +0.090 C 
ATOM     13  C   UNL     1      -6.236 -10.530  19.599  0.00  0.00    +0.019 C 
ATOM     14  C   UNL     1      -5.396 -11.817  19.669  0.00  0.00    +0.085 C 
ENDROOT
BRANCH   9  15
ATOM     15  C   UNL     1      -8.124 -11.477  16.358  0.00  0.00    +0.109 C 
BRANCH  15   6
ATOM      6  N   UNL     1      -9.191 -10.519  16.466  0.00  0.00    -0.333 N 
ATOM     17  C   UNL     1      -9.153  -9.322  15.620  0.00  0.00    +0.129 C 
BRANCH   6  18
ATOM     18  C   UNL     1     -10.256 -10.702  17.364  0.00  0.00    +0.029 A 
ATOM     20  C   UNL     1     -11.054 -11.843  17.275  0.00  0.00    +0.023 A 
ATOM     21  C   UNL     1     -10.515  -9.744  18.343  0.00  0.00    +0.023 A 
ATOM     22  C   UNL     1     -12.111 -12.025  18.166  0.00  0.00    +0.002 A 
ATOM     23  C   UNL     1     -11.572  -9.926  19.235  0.00  0.00    +0.002 A 
ATOM     26  C   UNL     1     -12.370 -11.067  19.147  0.00  0.00    +0.000 A 
ENDBRANCH   6  18
ENDBRANCH  15   6
ENDBRANCH   9  15
BRANCH  10  16
ATOM     16  C   UNL     1      -3.837 -11.753  16.226  0.00  0.00    +0.124 C 
BRANCH  16   7
ATOM      7  N   UNL     1      -3.385 -10.634  15.444  0.00  0.00    -0.188 NA
ATOM     30  H   UNL     1      -3.966  -9.790  15.399  0.00  0.00    +0.148 HD
BRANCH   7   2
ATOM      2  S   UNL     1      -1.987 -10.753  14.446  0.00  0.00    +0.058 S 
ATOM      3  O   UNL     1      -1.587 -12.144  14.371  0.00  0.00    -0.153 OA
ATOM      4  O   UNL     1      -1.023  -9.735  14.817  0.00  0.00    -0.153 OA
BRANCH   2  19
ATOM      1 CL   UNL     1      -4.329  -9.107   8.858  0.00  0.00    -0.084 Cl
ATOM     19  C   UNL     1      -2.647 -10.289  12.873  0.00  0.00    +0.105 A 
ATOM     24  C   UNL     1      -1.792  -9.859  11.857  0.00  0.00    +0.030 A 
ATOM     25  C   UNL     1      -4.022 -10.354  12.646  0.00  0.00    +0.030 A 
ATOM     27  C   UNL     1      -2.313  -9.493  10.616  0.00  0.00    +0.022 A 
ATOM     28  C   UNL     1      -4.542  -9.989  11.404  0.00  0.00    +0.022 A 
ATOM     29  C   UNL     1      -3.688  -9.558  10.390  0.00  0.00    +0.041 A 
ENDBRANCH   2  19
ENDBRANCH   7   2
ENDBRANCH  16   7
ENDBRANCH  10  16
TORSDOF 7
ENDMDL
MODEL 7
REMARK VINA RESULT:      -6.2     43.454     44.873
REMARK  Name = 40779858
REMARK  8 active torsions:
REMARK  status: ('A' for Active; 'I' for Inactive)
REMARK    1  A    between atoms: S_2  and  N_7
REMARK    2  A    between atoms: S_2  and  C_19
REMARK    3  A    between atoms: N_6  and  C_15
REMARK    4  A    between atoms: N_6  and  C_17
REMARK    5  A    between atoms: N_6  and  C_18
REMARK    6  A    between atoms: N_7  and  C_16
REMARK    7  A    between atoms: C_9  and  C_15
REMARK    8  A    between atoms: C_10  and  C_16
REMARK                            x       y       z     vdW  Elec       q    Type
REMARK                         _______ _______ _______ _____ _____    ______ ____
ROOT
ATOM      5  N   UNL     1      14.205  -7.653  -5.894  0.00  0.00    -0.298 NA
ATOM      8  C   UNL     1      14.740  -5.249  -5.055  0.00  0.00    -0.002 C 
ATOM      9  C   UNL     1      15.843  -5.758  -6.010  0.00  0.00    +0.023 C 
ATOM     10  C   UNL     1      14.136  -7.605  -4.408  0.00  0.00    +0.072 C 
ATOM     11  C   UNL     1      14.595  -6.229  -3.876  0.00  0.00    +0.024 C 
ATOM     12  C   UNL     1      15.550  -7.234  -6.360  0.00  0.00    +0.090 C 
ATOM     13  C   UNL     1      13.415  -5.283  -5.842  0.00  0.00    +0.019 C 
ATOM     14  C   UNL     1      13.211  -6.691  -6.429  0.00  0.00    +0.085 C 
ENDROOT
BRANCH   9  15
ATOM     15  C   UNL     1      17.253  -5.581  -5.451  0.00  0.00    +0.109 C 
BRANCH  15   6
ATOM      6  N   UNL     1      17.631  -4.195  -5.513  0.00  0.00    -0.333 N 
ATOM     17  C   UNL     1      17.628  -3.521  -6.815  0.00  0.00    +0.129 C 
BRANCH   6  18
ATOM     18  C   UNL     1      18.004  -3.482  -4.362  0.00  0.00    +0.029 A 
ATOM     20  C   UNL     1      17.042  -3.134  -3.413  0.00  0.00    +0.023 A 
ATOM     21  C   UNL     1      19.338  -3.122  -4.168  0.00  0.00    +0.023 A 
ATOM     22  C   UNL     1      17.414  -2.427  -2.271  0.00  0.00    +0.002 A 
ATOM     23  C   UNL     1      19.710  -2.415  -3.024  0.00  0.00    +0.002 A 
ATOM     26  C   UNL     1      18.748  -2.067  -2.076  0.00  0.00    +0.000 A 
ENDBRANCH   6  18
ENDBRANCH  15   6
ENDBRANCH   9  15
BRANCH  10  16
ATOM     16  C   UNL     1      14.905  -8.753  -3.751  0.00  0.00    +0.124 C 
BRANCH  16   7
ATOM      7  N   UNL     1      15.988  -8.224  -2.968  0.00  0.00    -0.188 NA
ATOM     30  H   UNL     1      15.859  -7.331  -2.479  0.00  0.00    +0.148 HD
BRANCH   7   2
ATOM      2  S   UNL     1      17.542  -8.963  -2.983  0.00  0.00    +0.058 S 
ATOM      3  O   UNL     1      18.079  -8.887  -4.328  0.00  0.00    -0.153 OA
ATOM      4  O   UNL     1      17.496 -10.234  -2.286  0.00  0.00    -0.153 OA
BRANCH   2  19
ATOM      1 CL   UNL     1      20.815  -5.009   0.632  0.00  0.00    -0.084 Cl
ATOM     19  C   UNL     1      18.464  -7.850  -1.965  0.00  0.00    +0.105 A 
ATOM     24  C   UNL     1      19.377  -8.348  -1.036  0.00  0.00    +0.030 A 
ATOM     25  C   UNL     1      18.278  -6.473  -2.091  0.00  0.00    +0.030 A 
ATOM     27  C   UNL     1      20.104  -7.470  -0.232  0.00  0.00    +0.022 A 
ATOM     28  C   UNL     1      19.006  -5.595  -1.288  0.00  0.00    +0.022 A 
ATOM     29  C   UNL     1      19.918  -6.093  -0.359  0.00  0.00    +0.041 A 
ENDBRANCH   2  19
ENDBRANCH   7   2
ENDBRANCH  16   7
ENDBRANCH  10  16
TORSDOF 7
ENDMDL
MODEL 8
REMARK VINA RESULT:      -6.2     30.498     34.813
REMARK  Name = 40779858
REMARK  8 active torsions:
REMARK  status: ('A' for Active; 'I' for Inactive)
REMARK    1  A    between atoms: S_2  and  N_7
REMARK    2  A    between atoms: S_2  and  C_19
REMARK    3  A    between atoms: N_6  and  C_15
REMARK    4  A    between atoms: N_6  and  C_17
REMARK    5  A    between atoms: N_6  and  C_18
REMARK    6  A    between atoms: N_7  and  C_16
REMARK    7  A    between atoms: C_9  and  C_15
REMARK    8  A    between atoms: C_10  and  C_16
REMARK                            x       y       z     vdW  Elec       q    Type
REMARK                         _______ _______ _______ _____ _____    ______ ____
ROOT
ATOM      5  N   UNL     1      14.132  10.358   5.416  0.00  0.00    -0.298 NA
ATOM      8  C   UNL     1      14.276   7.796   4.988  0.00  0.00    -0.002 C 
ATOM      9  C   UNL     1      14.416   8.585   3.667  0.00  0.00    +0.023 C 
ATOM     10  C   UNL     1      12.964   9.672   6.032  0.00  0.00    +0.072 C 
ATOM     11  C   UNL     1      12.947   8.171   5.667  0.00  0.00    +0.024 C 
ATOM     12  C   UNL     1      14.179  10.083   3.959  0.00  0.00    +0.090 C 
ATOM     13  C   UNL     1      15.412   8.272   5.916  0.00  0.00    +0.019 C 
ATOM     14  C   UNL     1      15.363   9.806   6.030  0.00  0.00    +0.085 C 
ENDROOT
BRANCH   9  15
ATOM     15  C   UNL     1      13.497   8.074   2.560  0.00  0.00    +0.109 C 
BRANCH  15   6
ATOM      6  N   UNL     1      13.979   6.810   2.071  0.00  0.00    -0.333 N 
ATOM     17  C   UNL     1      15.321   6.746   1.486  0.00  0.00    +0.129 C 
BRANCH   6  18
ATOM     18  C   UNL     1      13.192   5.648   2.136  0.00  0.00    +0.029 A 
ATOM     20  C   UNL     1      13.667   4.453   1.596  0.00  0.00    +0.023 A 
ATOM     21  C   UNL     1      11.937   5.689   2.743  0.00  0.00    +0.023 A 
ATOM     22  C   UNL     1      12.887   3.299   1.661  0.00  0.00    +0.002 A 
ATOM     23  C   UNL     1      11.156   4.535   2.809  0.00  0.00    +0.002 A 
ATOM     26  C   UNL     1      11.631   3.340   2.268  0.00  0.00    +0.000 A 
ENDBRANCH   6  18
ENDBRANCH  15   6
ENDBRANCH   9  15
BRANCH  10  16
ATOM     16  C   UNL     1      11.638  10.355   5.692  0.00  0.00    +0.124 C 
BRANCH  16   7
ATOM      7  N   UNL     1      10.830   9.472   4.896  0.00  0.00    -0.188 NA
ATOM     30  H   UNL     1      11.214   9.097   4.022  0.00  0.00    +0.148 HD
BRANCH   7   2
ATOM      2  S   UNL     1       9.180   9.179   5.287  0.00  0.00    +0.058 S 
ATOM      3  O   UNL     1       8.466   8.843   4.070  0.00  0.00    -0.153 OA
ATOM      4  O   UNL     1       8.682  10.226   6.159  0.00  0.00    -0.153 OA
BRANCH   2  19
ATOM      1 CL   UNL     1       9.648   3.969   8.759  0.00  0.00    -0.084 Cl
ATOM     19  C   UNL     1       9.311   7.712   6.265  0.00  0.00    +0.105 A 
ATOM     24  C   UNL     1       9.014   7.754   7.627  0.00  0.00    +0.030 A 
ATOM     25  C   UNL     1       9.712   6.514   5.674  0.00  0.00    +0.030 A 
ATOM     27  C   UNL     1       9.119   6.596   8.398  0.00  0.00    +0.022 A 
ATOM     28  C   UNL     1       9.815   5.357   6.445  0.00  0.00    +0.022 A 
ATOM     29  C   UNL     1       9.519   5.398   7.807  0.00  0.00    +0.041 A 
ENDBRANCH   2  19
ENDBRANCH   7   2
ENDBRANCH  16   7
ENDBRANCH  10  16
TORSDOF 7
ENDMDL
MODEL 9
REMARK VINA RESULT:      -6.2     27.865     30.827
REMARK  Name = 40779858
REMARK  8 active torsions:
REMARK  status: ('A' for Active; 'I' for Inactive)
REMARK    1  A    between atoms: S_2  and  N_7
REMARK    2  A    between atoms: S_2  and  C_19
REMARK    3  A    between atoms: N_6  and  C_15
REMARK    4  A    between atoms: N_6  and  C_17
REMARK    5  A    between atoms: N_6  and  C_18
REMARK    6  A    between atoms: N_7  and  C_16
REMARK    7  A    between atoms: C_9  and  C_15
REMARK    8  A    between atoms: C_10  and  C_16
REMARK                            x       y       z     vdW  Elec       q    Type
REMARK                         _______ _______ _______ _____ _____    ______ ____
ROOT
ATOM      5  N   UNL     1      11.971   8.111  21.996  0.00  0.00    -0.298 NA
ATOM      8  C   UNL     1      12.773   7.540  19.587  0.00  0.00    -0.002 C 
ATOM      9  C   UNL     1      13.976   7.776  20.529  0.00  0.00    +0.023 C 
ATOM     10  C   UNL     1      11.303   9.005  21.011  0.00  0.00    +0.072 C 
ATOM     11  C   UNL     1      11.871   8.788  19.591  0.00  0.00    +0.024 C 
ATOM     12  C   UNL     1      13.444   8.251  21.899  0.00  0.00    +0.090 C 
ATOM     13  C   UNL     1      11.953   6.383  20.192  0.00  0.00    +0.019 C 
ATOM     14  C   UNL     1      11.616   6.712  21.657  0.00  0.00    +0.085 C 
ENDROOT
BRANCH   9  15
ATOM     15  C   UNL     1      15.007   8.747  19.957  0.00  0.00    +0.109 C 
BRANCH  15   6
ATOM      6  N   UNL     1      16.235   8.645  20.697  0.00  0.00    -0.333 N 
ATOM     17  C   UNL     1      16.540   9.668  21.703  0.00  0.00    +0.129 C 
BRANCH   6  18
ATOM     18  C   UNL     1      17.145   7.598  20.473  0.00  0.00    +0.029 A 
ATOM     20  C   UNL     1      16.892   6.655  19.476  0.00  0.00    +0.023 A 
ATOM     21  C   UNL     1      18.300   7.501  21.248  0.00  0.00    +0.023 A 
ATOM     22  C   UNL     1      17.795   5.616  19.254  0.00  0.00    +0.002 A 
ATOM     23  C   UNL     1      19.204   6.462  21.026  0.00  0.00    +0.002 A 
ATOM     26  C   UNL     1      18.951   5.519  20.029  0.00  0.00    +0.000 A 
ENDBRANCH   6  18
ENDBRANCH  15   6
ENDBRANCH   9  15
BRANCH  10  16
ATOM     16  C   UNL     1      11.357  10.477  21.426  0.00  0.00    +0.124 C 
BRANCH  16   7
ATOM      7  N   UNL     1      11.152  10.586  22.844  0.00  0.00    -0.188 NA
ATOM     30  H   UNL     1      10.878   9.751  23.374  0.00  0.00    +0.148 HD
BRANCH   7   2
ATOM      2  S   UNL     1      11.182  12.116  23.633  0.00  0.00    +0.058 S 
ATOM      3  O   UNL     1      10.409  12.022  24.856  0.00  0.00    -0.153 OA
ATOM      4  O   UNL     1      10.912  13.173  22.678  0.00  0.00    -0.153 OA
BRANCH   2  19
ATOM      1 CL   UNL     1      17.243  12.569  25.204  0.00  0.00    -0.084 Cl
ATOM     19  C   UNL     1      12.888  12.243  24.075  0.00  0.00    +0.105 A 
ATOM     24  C   UNL     1      13.835  12.591  23.111  0.00  0.00    +0.030 A 
ATOM     25  C   UNL     1      13.289  11.997  25.389  0.00  0.00    +0.030 A 
ATOM     27  C   UNL     1      15.181  12.690  23.460  0.00  0.00    +0.022 A 
ATOM     28  C   UNL     1      14.635  12.099  25.738  0.00  0.00    +0.022 A 
ATOM     29  C   UNL     1      15.582  12.444  24.774  0.00  0.00    +0.041 A 
ENDBRANCH   2  19
ENDBRANCH   7   2
ENDBRANCH  16   7
ENDBRANCH  10  16
TORSDOF 7
ENDMDL
MODEL 10
REMARK VINA RESULT:      -6.1     19.406     21.150
REMARK  Name = 40779858
REMARK  8 active torsions:
REMARK  status: ('A' for Active; 'I' for Inactive)
REMARK    1  A    between atoms: S_2  and  N_7
REMARK    2  A    between atoms: S_2  and  C_19
REMARK    3  A    between atoms: N_6  and  C_15
REMARK    4  A    between atoms: N_6  and  C_17
REMARK    5  A    between atoms: N_6  and  C_18
REMARK    6  A    between atoms: N_7  and  C_16
REMARK    7  A    between atoms: C_9  and  C_15
REMARK    8  A    between atoms: C_10  and  C_16
REMARK                            x       y       z     vdW  Elec       q    Type
REMARK                         _______ _______ _______ _____ _____    ______ ____
ROOT
ATOM      5  N   UNL     1      -6.010 -10.269   8.801  0.00  0.00    -0.298 NA
ATOM      8  C   UNL     1      -4.620  -8.872  10.500  0.00  0.00    -0.002 C 
ATOM      9  C   UNL     1      -4.901 -10.289  11.049  0.00  0.00    +0.023 C 
ATOM     10  C   UNL     1      -6.679  -8.965   9.057  0.00  0.00    +0.072 C 
ATOM     11  C   UNL     1      -5.955  -8.179  10.172  0.00  0.00    +0.024 C 
ATOM     12  C   UNL     1      -5.846 -11.019  10.070  0.00  0.00    +0.090 C 
ATOM     13  C   UNL     1      -3.860  -9.050   9.170  0.00  0.00    +0.019 C 
ATOM     14  C   UNL     1      -4.661  -9.991   8.252  0.00  0.00    +0.085 C 
ENDROOT
BRANCH   9  15
ATOM     15  C   UNL     1      -5.457 -10.283  12.472  0.00  0.00    +0.109 C 
BRANCH  15   6
ATOM      6  N   UNL     1      -4.417 -10.629  13.403  0.00  0.00    -0.333 N 
ATOM     17  C   UNL     1      -3.121 -11.074  12.880  0.00  0.00    +0.129 C 
BRANCH   6  18
ATOM     18  C   UNL     1      -4.618 -10.556  14.791  0.00  0.00    +0.029 A 
ATOM     20  C   UNL     1      -3.672 -11.096  15.663  0.00  0.00    +0.023 A 
ATOM     21  C   UNL     1      -5.763  -9.943  15.298  0.00  0.00    +0.023 A 
ATOM     22  C   UNL     1      -3.872 -11.023  17.040  0.00  0.00    +0.002 A 
ATOM     23  C   UNL     1      -5.963  -9.869  16.676  0.00  0.00    +0.002 A 
ATOM     26  C   UNL     1      -5.018 -10.409  17.548  0.00  0.00    +0.000 A 
ENDBRANCH   6  18
ENDBRANCH  15   6
ENDBRANCH   9  15
BRANCH  10  16
ATOM     16  C   UNL     1      -8.173  -9.122   9.350  0.00  0.00    +0.124 C 
BRANCH  16   7
ATOM      7  N   UNL     1      -8.787  -7.825   9.439  0.00  0.00    -0.188 NA
ATOM     30  H   UNL     1      -9.313  -7.580  10.285  0.00  0.00    +0.148 HD
BRANCH   7   2
ATOM      2  S   UNL     1      -8.808  -6.756   8.091  0.00  0.00    +0.058 S 
ATOM      3  O   UNL     1      -9.107  -7.521   6.896  0.00  0.00    -0.153 OA
ATOM      4  O   UNL     1      -7.649  -5.885   8.128  0.00  0.00    -0.153 OA
BRANCH   2  19
ATOM      1 CL   UNL     1     -13.813  -3.206   9.419  0.00  0.00    -0.084 Cl
ATOM     19  C   UNL     1     -10.217  -5.756   8.465  0.00  0.00    +0.105 A 
ATOM     24  C   UNL     1     -11.500  -6.299   8.378  0.00  0.00    +0.030 A 
ATOM     25  C   UNL     1     -10.047  -4.426   8.847  0.00  0.00    +0.030 A 
ATOM     27  C   UNL     1     -12.611  -5.510   8.672  0.00  0.00    +0.022 A 
ATOM     28  C   UNL     1     -11.159  -3.638   9.143  0.00  0.00    +0.022 A 
ATOM     29  C   UNL     1     -12.441  -4.179   9.055  0.00  0.00    +0.041 A 
ENDBRANCH   2  19
ENDBRANCH   7   2
ENDBRANCH  16   7
ENDBRANCH  10  16
TORSDOF 7
ENDMDL
