REMARK  Name = 9424622
REMARK  4 active torsions:
REMARK  status: ('A' for Active; 'I' for Inactive)
REMARK    1  A    between atoms: N_4  and  C_15
REMARK    2  A    between atoms: N_7  and  C_22
REMARK    3  A    between atoms: C_26  and  C_27
REMARK    4  A    between atoms: C_28  and  C_29
REMARK                            x       y       z     vdW  Elec       q    Type
REMARK                         _______ _______ _______ _____ _____    ______ ____
ROOT
ATOM      1  O   UNL     1       1.903   3.002  -2.760  0.00  0.00    -0.268 OA
ATOM      4  N   UNL     1       1.792   0.457   1.564  0.00  0.00    -0.298 NA
ATOM      5  N   UNL     1       0.844   2.449  -0.745  0.00  0.00    -0.310 N 
ATOM     10  C   UNL     1       1.897   2.962   1.536  0.00  0.00    +0.024 C 
ATOM     11  C   UNL     1      -0.278   1.845   1.423  0.00  0.00    +0.052 C 
ATOM     12  C   UNL     1       0.456   3.049   2.010  0.00  0.00    +0.017 C 
ATOM     13  C   UNL     1       2.536   1.641   2.011  0.00  0.00    +0.090 C 
ATOM     14  C   UNL     1       0.373   0.542   1.940  0.00  0.00    +0.094 C 
ATOM     16  C   UNL     1       1.914   3.114   0.012  0.00  0.00    +0.130 C 
ATOM     17  C   UNL     1      -0.269   1.874  -0.104  0.00  0.00    +0.047 A 
ATOM     22  C   UNL     1      -1.270   1.348  -0.846  0.00  0.00    +0.054 A 
ATOM     23  C   UNL     1       0.961   2.499  -2.146  0.00  0.00    +0.252 A 
ATOM     24  C   UNL     1      -1.200   1.377  -2.287  0.00  0.00    +0.030 A 
ATOM     25  C   UNL     1      -0.154   1.907  -2.925  0.00  0.00    +0.072 A 
ENDROOT
BRANCH   4  15
ATOM      2  O   UNL     1       3.274  -4.224  -1.427  0.00  0.00    -0.276 OA
ATOM      6  N   UNL     1       3.378  -2.218  -0.259  0.00  0.00    -0.302 N 
ATOM     15  C   UNL     1       2.398  -0.771   2.081  0.00  0.00    +0.060 C 
ATOM     18  C   UNL     1       3.889  -0.826   1.716  0.00  0.00    +0.038 C 
ATOM     19  C   UNL     1       1.676  -2.003   1.516  0.00  0.00    +0.038 C 
ATOM     20  C   UNL     1       4.119  -1.043   0.219  0.00  0.00    +0.109 C 
ATOM     21  C   UNL     1       1.940  -2.200   0.023  0.00  0.00    +0.109 C 
ATOM     26  C   UNL     1       3.926  -3.274  -0.987  0.00  0.00    +0.212 C 
ATOM     27  C   UNL     1       5.413  -3.225  -1.234  0.00  0.00    +0.109 C 
ENDBRANCH   4  15
BRANCH  22   7
ATOM      3  O   UNL     1      -2.726  -0.822  -1.993  0.00  0.00    -0.268 OA
ATOM      7  N   UNL     1      -2.376   0.745  -0.311  0.00  0.00    -0.279 N 
ATOM     28  C   UNL     1      -3.038  -0.308  -0.921  0.00  0.00    +0.268 C 
ATOM     33  H   UNL     1      -2.612   0.942   0.657  0.00  0.00    +0.155 HD
BRANCH  28  29
ATOM      8  N   UNL     1      -4.466  -0.248   0.984  0.00  0.00    -0.247 NA
ATOM      9  N   UNL     1      -5.984  -2.380  -0.025  0.00  0.00    -0.259 NA
ATOM     29  C   UNL     1      -4.206  -0.847  -0.177  0.00  0.00    +0.144 A 
ATOM     30  C   UNL     1      -4.924  -1.881  -0.691  0.00  0.00    +0.143 A 
ATOM     31  C   UNL     1      -5.527  -0.747   1.649  0.00  0.00    +0.131 A 
ATOM     32  C   UNL     1      -6.272  -1.794   1.154  0.00  0.00    +0.130 A 
ENDBRANCH  28  29
ENDBRANCH  22   7
TORSDOF 3
