MODEL 1
REMARK VINA RESULT:      -5.4      0.000      0.000
REMARK  Name = 56775461
REMARK  9 active torsions:
REMARK  status: ('A' for Active; 'I' for Inactive)
REMARK    1  A    between atoms: N_3  and  C_5
REMARK    2  A    between atoms: N_3  and  C_7
REMARK    3  A    between atoms: C_5  and  C_12
REMARK    4  A    between atoms: C_6  and  C_7
REMARK    5  A    between atoms: C_12  and  C_16
REMARK    6  A    between atoms: C_18  and  C_19
REMARK    7  A    between atoms: C_18  and  C_20
REMARK    8  A    between atoms: C_18  and  C_21
REMARK    9  A    between atoms: C_18  and  C_22
REMARK                            x       y       z     vdW  Elec       q    Type
REMARK                         _______ _______ _______ _____ _____    ______ ____
ROOT
ATOM      1  O   UNL     1      -1.829 -14.168  14.077  0.00  0.00    -0.376 OA
ATOM      5  C   UNL     1      -2.716 -12.230  14.172  0.00  0.00    +0.072 C 
ATOM      8  C   UNL     1      -3.090 -13.654  14.563  0.00  0.00    +0.184 C 
ATOM      9  C   UNL     1      -1.453 -12.858  13.596  0.00  0.00    +0.184 C 
ENDROOT
BRANCH   5   3
ATOM      3  N   UNL     1      -3.579 -11.802  13.064  0.00  0.00    -0.306 NA
ATOM     23  H   UNL     1      -3.746 -12.505  12.345  0.00  0.00    +0.123 HD
BRANCH   3   7
ATOM      7  C   UNL     1      -3.034 -10.594  12.463  0.00  0.00    +0.085 C 
BRANCH   7   6
ATOM      6  C   UNL     1      -3.940 -10.087  11.344  0.00  0.00    +0.003 C 
ATOM     10  C   UNL     1      -3.127  -9.315  10.296  0.00  0.00    +0.005 C 
ATOM     11  C   UNL     1      -4.703 -11.249  10.695  0.00  0.00    +0.005 C 
ATOM     13  C   UNL     1      -4.002  -8.842   9.138  0.00  0.00    +0.000 C 
ATOM     14  C   UNL     1      -5.577 -10.773   9.537  0.00  0.00    +0.000 C 
ATOM     15  C   UNL     1      -4.767  -9.999   8.501  0.00  0.00    +0.000 C 
ENDBRANCH   7   6
ENDBRANCH   3   7
ENDBRANCH   5   3
BRANCH   5  12
ATOM     12  C   UNL     1      -2.588 -11.193  15.245  0.00  0.00    +0.085 C 
BRANCH  12  16
ATOM      2  O   UNL     1      -5.929 -10.249  16.246  0.00  0.00    -0.359 OA
ATOM      4  N   UNL     1      -4.867 -10.248  15.350  0.00  0.00    -0.083 NA
ATOM     16  C   UNL     1      -3.914 -10.974  15.944  0.00  0.00    +0.086 A 
ATOM     17  C   UNL     1      -4.314 -11.453  17.203  0.00  0.00    +0.071 A 
ATOM     19  C   UNL     1      -5.588 -10.969  17.345  0.00  0.00    +0.143 A 
BRANCH  19  18
ATOM     18  C   UNL     1      -6.603 -11.074  18.400  0.00  0.00    +0.023 C 
ATOM     20  C   UNL     1      -7.069 -12.532  18.774  0.00  0.00    +0.019 C 
ATOM     21  C   UNL     1      -7.927 -10.322  18.022  0.00  0.00    +0.019 C 
ATOM     22  C   UNL     1      -6.107 -10.460  19.757  0.00  0.00    +0.019 C 
ENDBRANCH  19  18
ENDBRANCH  12  16
ENDBRANCH   5  12
TORSDOF 6
ENDMDL
MODEL 2
REMARK VINA RESULT:      -5.4     23.473     26.405
REMARK  Name = 56775461
REMARK  9 active torsions:
REMARK  status: ('A' for Active; 'I' for Inactive)
REMARK    1  A    between atoms: N_3  and  C_5
REMARK    2  A    between atoms: N_3  and  C_7
REMARK    3  A    between atoms: C_5  and  C_12
REMARK    4  A    between atoms: C_6  and  C_7
REMARK    5  A    between atoms: C_12  and  C_16
REMARK    6  A    between atoms: C_18  and  C_19
REMARK    7  A    between atoms: C_18  and  C_20
REMARK    8  A    between atoms: C_18  and  C_21
REMARK    9  A    between atoms: C_18  and  C_22
REMARK                            x       y       z     vdW  Elec       q    Type
REMARK                         _______ _______ _______ _____ _____    ______ ____
ROOT
ATOM      1  O   UNL     1      12.901   7.728   2.721  0.00  0.00    -0.376 OA
ATOM      5  C   UNL     1      11.698   5.971   2.850  0.00  0.00    +0.072 C 
ATOM      8  C   UNL     1      11.917   7.110   1.861  0.00  0.00    +0.184 C 
ATOM      9  C   UNL     1      12.672   6.732   3.743  0.00  0.00    +0.184 C 
ENDROOT
BRANCH   5   3
ATOM      3  N   UNL     1      10.349   6.089   3.415  0.00  0.00    -0.306 NA
ATOM     23  H   UNL     1      10.140   6.979   3.865  0.00  0.00    +0.123 HD
BRANCH   3   7
ATOM      7  C   UNL     1      10.113   4.994   4.344  0.00  0.00    +0.085 C 
BRANCH   7   6
ATOM      6  C   UNL     1       9.316   5.469   5.556  0.00  0.00    +0.003 C 
ATOM     10  C   UNL     1      10.086   5.192   6.854  0.00  0.00    +0.005 C 
ATOM     11  C   UNL     1       8.977   6.961   5.430  0.00  0.00    +0.005 C 
ATOM     13  C   UNL     1       9.332   5.707   8.078  0.00  0.00    +0.000 C 
ATOM     14  C   UNL     1       8.225   7.474   6.656  0.00  0.00    +0.000 C 
ATOM     15  C   UNL     1       8.989   7.188   7.945  0.00  0.00    +0.000 C 
ENDBRANCH   7   6
ENDBRANCH   3   7
ENDBRANCH   5   3
BRANCH   5  12
ATOM     12  C   UNL     1      12.035   4.572   2.433  0.00  0.00    +0.085 C 
BRANCH  12  16
ATOM      2  O   UNL     1      10.107   4.060  -0.580  0.00  0.00    -0.359 OA
ATOM      4  N   UNL     1      10.221   4.368   0.770  0.00  0.00    -0.083 NA
ATOM     16  C   UNL     1      11.530   4.292   1.033  0.00  0.00    +0.086 A 
ATOM     17  C   UNL     1      12.282   3.941  -0.102  0.00  0.00    +0.071 A 
ATOM     19  C   UNL     1      11.341   3.807  -1.088  0.00  0.00    +0.143 A 
BRANCH  19  18
ATOM     18  C   UNL     1      11.405   3.462  -2.513  0.00  0.00    +0.023 C 
ATOM     20  C   UNL     1      10.657   2.144  -2.943  0.00  0.00    +0.019 C 
ATOM     21  C   UNL     1      12.881   3.256  -3.004  0.00  0.00    +0.019 C 
ATOM     22  C   UNL     1      10.780   4.581  -3.419  0.00  0.00    +0.019 C 
ENDBRANCH  19  18
ENDBRANCH  12  16
ENDBRANCH   5  12
TORSDOF 6
ENDMDL
MODEL 3
REMARK VINA RESULT:      -5.3      2.802      7.043
REMARK  Name = 56775461
REMARK  9 active torsions:
REMARK  status: ('A' for Active; 'I' for Inactive)
REMARK    1  A    between atoms: N_3  and  C_5
REMARK    2  A    between atoms: N_3  and  C_7
REMARK    3  A    between atoms: C_5  and  C_12
REMARK    4  A    between atoms: C_6  and  C_7
REMARK    5  A    between atoms: C_12  and  C_16
REMARK    6  A    between atoms: C_18  and  C_19
REMARK    7  A    between atoms: C_18  and  C_20
REMARK    8  A    between atoms: C_18  and  C_21
REMARK    9  A    between atoms: C_18  and  C_22
REMARK                            x       y       z     vdW  Elec       q    Type
REMARK                         _______ _______ _______ _____ _____    ______ ____
ROOT
ATOM      1  O   UNL     1      -7.889 -13.069  18.097  0.00  0.00    -0.376 OA
ATOM      5  C   UNL     1      -7.481 -11.054  17.522  0.00  0.00    +0.072 C 
ATOM      8  C   UNL     1      -8.139 -11.775  18.692  0.00  0.00    +0.184 C 
ATOM      9  C   UNL     1      -7.338 -12.445  16.914  0.00  0.00    +0.184 C 
ENDROOT
BRANCH   5   3
ATOM      3  N   UNL     1      -8.512 -10.319  16.780  0.00  0.00    -0.306 NA
ATOM     23  H   UNL     1      -8.491 -10.439  15.768  0.00  0.00    +0.123 HD
BRANCH   3   7
ATOM      7  C   UNL     1      -8.436  -8.905  17.116  0.00  0.00    +0.085 C 
BRANCH   7   6
ATOM      6  C   UNL     1      -9.831  -8.303  17.257  0.00  0.00    +0.003 C 
ATOM     10  C   UNL     1     -10.075  -7.239  16.178  0.00  0.00    +0.005 C 
ATOM     11  C   UNL     1     -10.903  -9.398  17.194  0.00  0.00    +0.005 C 
ATOM     13  C   UNL     1     -11.484  -6.658  16.266  0.00  0.00    +0.000 C 
ATOM     14  C   UNL     1     -12.312  -8.816  17.280  0.00  0.00    +0.000 C 
ATOM     15  C   UNL     1     -12.547  -7.752  16.212  0.00  0.00    +0.000 C 
ENDBRANCH   7   6
ENDBRANCH   3   7
ENDBRANCH   5   3
BRANCH   5  12
ATOM     12  C   UNL     1      -6.249 -10.240  17.772  0.00  0.00    +0.085 C 
BRANCH  12  16
ATOM      2  O   UNL     1      -4.504 -10.306  14.609  0.00  0.00    -0.359 OA
ATOM      4  N   UNL     1      -5.622 -10.047  15.391  0.00  0.00    -0.083 NA
ATOM     16  C   UNL     1      -5.263 -10.392  16.632  0.00  0.00    +0.086 A 
ATOM     17  C   UNL     1      -3.943 -10.870  16.692  0.00  0.00    +0.071 A 
ATOM     19  C   UNL     1      -3.510 -10.796  15.394  0.00  0.00    +0.143 A 
BRANCH  19  18
ATOM     18  C   UNL     1      -2.247 -11.125  14.724  0.00  0.00    +0.023 C 
ATOM     20  C   UNL     1      -2.039 -12.639  14.339  0.00  0.00    +0.019 C 
ATOM     21  C   UNL     1      -1.001 -10.767  15.606  0.00  0.00    +0.019 C 
ATOM     22  C   UNL     1      -2.079 -10.349  13.370  0.00  0.00    +0.019 C 
ENDBRANCH  19  18
ENDBRANCH  12  16
ENDBRANCH   5  12
TORSDOF 6
ENDMDL
MODEL 4
REMARK VINA RESULT:      -5.3     27.925     29.324
REMARK  Name = 56775461
REMARK  9 active torsions:
REMARK  status: ('A' for Active; 'I' for Inactive)
REMARK    1  A    between atoms: N_3  and  C_5
REMARK    2  A    between atoms: N_3  and  C_7
REMARK    3  A    between atoms: C_5  and  C_12
REMARK    4  A    between atoms: C_6  and  C_7
REMARK    5  A    between atoms: C_12  and  C_16
REMARK    6  A    between atoms: C_18  and  C_19
REMARK    7  A    between atoms: C_18  and  C_20
REMARK    8  A    between atoms: C_18  and  C_21
REMARK    9  A    between atoms: C_18  and  C_22
REMARK                            x       y       z     vdW  Elec       q    Type
REMARK                         _______ _______ _______ _____ _____    ______ ____
ROOT
ATOM      1  O   UNL     1      11.653   6.114  20.032  0.00  0.00    -0.376 OA
ATOM      5  C   UNL     1      12.443   7.745  21.160  0.00  0.00    +0.072 C 
ATOM      8  C   UNL     1      11.543   6.540  21.409  0.00  0.00    +0.184 C 
ATOM      9  C   UNL     1      12.434   7.287  19.706  0.00  0.00    +0.184 C 
ENDROOT
BRANCH   5   3
ATOM      3  N   UNL     1      11.640   8.967  21.276  0.00  0.00    -0.306 NA
ATOM     23  H   UNL     1      12.082   9.815  20.925  0.00  0.00    +0.123 HD
BRANCH   3   7
ATOM      7  C   UNL     1      11.234   9.153  22.661  0.00  0.00    +0.085 C 
BRANCH   7   6
ATOM      6  C   UNL     1      10.757  10.583  22.901  0.00  0.00    +0.003 C 
ATOM     10  C   UNL     1      11.098  11.036  24.328  0.00  0.00    +0.005 C 
ATOM     11  C   UNL     1      11.364  11.539  21.866  0.00  0.00    +0.005 C 
ATOM     13  C   UNL     1      10.678  12.482  24.576  0.00  0.00    +0.000 C 
ATOM     14  C   UNL     1      10.944  12.985  22.118  0.00  0.00    +0.000 C 
ATOM     15  C   UNL     1      11.277  13.428  23.539  0.00  0.00    +0.000 C 
ENDBRANCH   7   6
ENDBRANCH   3   7
ENDBRANCH   5   3
BRANCH   5  12
ATOM     12  C   UNL     1      13.751   7.836  21.885  0.00  0.00    +0.085 C 
BRANCH  12  16
ATOM      2  O   UNL     1      15.111  10.974  20.721  0.00  0.00    -0.359 OA
ATOM      4  N   UNL     1      14.550   9.721  20.506  0.00  0.00    -0.083 NA
ATOM     16  C   UNL     1      14.359   9.214  21.728  0.00  0.00    +0.086 A 
ATOM     17  C   UNL     1      14.777  10.092  22.742  0.00  0.00    +0.071 A 
ATOM     19  C   UNL     1      15.242  11.184  22.057  0.00  0.00    +0.143 A 
BRANCH  19  18
ATOM     18  C   UNL     1      15.822  12.468  22.464  0.00  0.00    +0.023 C 
ATOM     20  C   UNL     1      16.948  13.051  21.528  0.00  0.00    +0.019 C 
ATOM     21  C   UNL     1      16.490  12.390  23.882  0.00  0.00    +0.019 C 
ATOM     22  C   UNL     1      14.743  13.606  22.536  0.00  0.00    +0.019 C 
ENDBRANCH  19  18
ENDBRANCH  12  16
ENDBRANCH   5  12
TORSDOF 6
ENDMDL
MODEL 5
REMARK VINA RESULT:      -5.2      1.965      6.216
REMARK  Name = 56775461
REMARK  9 active torsions:
REMARK  status: ('A' for Active; 'I' for Inactive)
REMARK    1  A    between atoms: N_3  and  C_5
REMARK    2  A    between atoms: N_3  and  C_7
REMARK    3  A    between atoms: C_5  and  C_12
REMARK    4  A    between atoms: C_6  and  C_7
REMARK    5  A    between atoms: C_12  and  C_16
REMARK    6  A    between atoms: C_18  and  C_19
REMARK    7  A    between atoms: C_18  and  C_20
REMARK    8  A    between atoms: C_18  and  C_21
REMARK    9  A    between atoms: C_18  and  C_22
REMARK                            x       y       z     vdW  Elec       q    Type
REMARK                         _______ _______ _______ _____ _____    ______ ____
ROOT
ATOM      1  O   UNL     1      -2.285 -14.011  12.880  0.00  0.00    -0.376 OA
ATOM      5  C   UNL     1      -2.416 -12.159  13.933  0.00  0.00    +0.072 C 
ATOM      8  C   UNL     1      -1.375 -13.249  13.705  0.00  0.00    +0.184 C 
ATOM      9  C   UNL     1      -3.347 -13.063  13.133  0.00  0.00    +0.184 C 
ENDROOT
BRANCH   5   3
ATOM      3  N   UNL     1      -2.827 -12.186  15.341  0.00  0.00    -0.306 NA
ATOM     23  H   UNL     1      -3.787 -12.481  15.510  0.00  0.00    +0.123 HD
BRANCH   3   7
ATOM      7  C   UNL     1      -2.596 -10.879  15.939  0.00  0.00    +0.085 C 
BRANCH   7   6
ATOM      6  C   UNL     1      -3.791 -10.448  16.785  0.00  0.00    +0.003 C 
ATOM     10  C   UNL     1      -5.032 -10.243  15.905  0.00  0.00    +0.005 C 
ATOM     11  C   UNL     1      -4.071 -11.473  17.891  0.00  0.00    +0.005 C 
ATOM     13  C   UNL     1      -6.255  -9.862  16.734  0.00  0.00    +0.000 C 
ATOM     14  C   UNL     1      -5.296 -11.092  18.718  0.00  0.00    +0.000 C 
ATOM     15  C   UNL     1      -6.525 -10.880  17.839  0.00  0.00    +0.000 C 
ENDBRANCH   7   6
ENDBRANCH   3   7
ENDBRANCH   5   3
BRANCH   5  12
ATOM     12  C   UNL     1      -2.138 -10.775  13.432  0.00  0.00    +0.085 C 
BRANCH  12  16
ATOM      2  O   UNL     1      -3.671 -10.038  10.244  0.00  0.00    -0.359 OA
ATOM      4  N   UNL     1      -2.582 -10.382  11.035  0.00  0.00    -0.083 NA
ATOM     16  C   UNL     1      -3.060 -10.424  12.282  0.00  0.00    +0.086 A 
ATOM     17  C   UNL     1      -4.431 -10.117  12.339  0.00  0.00    +0.071 A 
ATOM     19  C   UNL     1      -4.766  -9.883  11.031  0.00  0.00    +0.143 A 
BRANCH  19  18
ATOM     18  C   UNL     1      -6.015  -9.516  10.353  0.00  0.00    +0.023 C 
ATOM     20  C   UNL     1      -6.623 -10.598   9.384  0.00  0.00    +0.019 C 
ATOM     21  C   UNL     1      -5.846  -8.237   9.460  0.00  0.00    +0.019 C 
ATOM     22  C   UNL     1      -7.169  -9.206  11.370  0.00  0.00    +0.019 C 
ENDBRANCH  19  18
ENDBRANCH  12  16
ENDBRANCH   5  12
TORSDOF 6
ENDMDL
MODEL 6
REMARK VINA RESULT:      -5.2     27.644     28.989
REMARK  Name = 56775461
REMARK  9 active torsions:
REMARK  status: ('A' for Active; 'I' for Inactive)
REMARK    1  A    between atoms: N_3  and  C_5
REMARK    2  A    between atoms: N_3  and  C_7
REMARK    3  A    between atoms: C_5  and  C_12
REMARK    4  A    between atoms: C_6  and  C_7
REMARK    5  A    between atoms: C_12  and  C_16
REMARK    6  A    between atoms: C_18  and  C_19
REMARK    7  A    between atoms: C_18  and  C_20
REMARK    8  A    between atoms: C_18  and  C_21
REMARK    9  A    between atoms: C_18  and  C_22
REMARK                            x       y       z     vdW  Elec       q    Type
REMARK                         _______ _______ _______ _____ _____    ______ ____
ROOT
ATOM      1  O   UNL     1      11.677   6.634  20.121  0.00  0.00    -0.376 OA
ATOM      5  C   UNL     1      12.750   8.254  21.002  0.00  0.00    +0.072 C 
ATOM      8  C   UNL     1      11.775   8.050  19.849  0.00  0.00    +0.184 C 
ATOM      9  C   UNL     1      12.670   6.741  21.166  0.00  0.00    +0.184 C 
ENDROOT
BRANCH   5   3
ATOM      3  N   UNL     1      14.066   8.601  20.453  0.00  0.00    -0.306 NA
ATOM     23  H   UNL     1      14.234   8.293  19.496  0.00  0.00    +0.123 HD
BRANCH   3   7
ATOM      7  C   UNL     1      15.108   8.090  21.330  0.00  0.00    +0.085 C 
BRANCH   7   6
ATOM      6  C   UNL     1      16.332   7.656  20.527  0.00  0.00    +0.003 C 
ATOM     10  C   UNL     1      17.541   7.448  21.450  0.00  0.00    +0.005 C 
ATOM     11  C   UNL     1      16.032   6.382  19.727  0.00  0.00    +0.005 C 
ATOM     13  C   UNL     1      18.764   6.963  20.677  0.00  0.00    +0.000 C 
ATOM     14  C   UNL     1      17.257   5.897  18.956  0.00  0.00    +0.000 C 
ATOM     15  C   UNL     1      18.459   5.700  19.875  0.00  0.00    +0.000 C 
ENDBRANCH   7   6
ENDBRANCH   3   7
ENDBRANCH   5   3
BRANCH   5  12
ATOM     12  C   UNL     1      12.347   9.132  22.147  0.00  0.00    +0.085 C 
BRANCH  12  16
ATOM      2  O   UNL     1      13.764  12.437  21.805  0.00  0.00    -0.359 OA
ATOM      4  N   UNL     1      13.812  11.117  22.235  0.00  0.00    -0.083 NA
ATOM     16  C   UNL     1      12.649  10.584  21.845  0.00  0.00    +0.086 A 
ATOM     17  C   UNL     1      11.837  11.512  21.171  0.00  0.00    +0.071 A 
ATOM     19  C   UNL     1      12.583  12.661  21.172  0.00  0.00    +0.143 A 
BRANCH  19  18
ATOM     18  C   UNL     1      12.365  14.015  20.650  0.00  0.00    +0.023 C 
ATOM     20  C   UNL     1      10.882  14.545  20.689  0.00  0.00    +0.019 C 
ATOM     21  C   UNL     1      12.790  14.141  19.145  0.00  0.00    +0.019 C 
ATOM     22  C   UNL     1      13.188  15.091  21.443  0.00  0.00    +0.019 C 
ENDBRANCH  19  18
ENDBRANCH  12  16
ENDBRANCH   5  12
TORSDOF 6
ENDMDL
MODEL 7
REMARK VINA RESULT:      -5.2     24.165     26.831
REMARK  Name = 56775461
REMARK  9 active torsions:
REMARK  status: ('A' for Active; 'I' for Inactive)
REMARK    1  A    between atoms: N_3  and  C_5
REMARK    2  A    between atoms: N_3  and  C_7
REMARK    3  A    between atoms: C_5  and  C_12
REMARK    4  A    between atoms: C_6  and  C_7
REMARK    5  A    between atoms: C_12  and  C_16
REMARK    6  A    between atoms: C_18  and  C_19
REMARK    7  A    between atoms: C_18  and  C_20
REMARK    8  A    between atoms: C_18  and  C_21
REMARK    9  A    between atoms: C_18  and  C_22
REMARK                            x       y       z     vdW  Elec       q    Type
REMARK                         _______ _______ _______ _____ _____    ______ ____
ROOT
ATOM      1  O   UNL     1      16.262   8.193   5.927  0.00  0.00    -0.376 OA
ATOM      5  C   UNL     1      14.886   7.609   4.405  0.00  0.00    +0.072 C 
ATOM      8  C   UNL     1      15.098   7.337   5.889  0.00  0.00    +0.184 C 
ATOM      9  C   UNL     1      16.175   8.417   4.502  0.00  0.00    +0.184 C 
ENDROOT
BRANCH   5   3
ATOM      3  N   UNL     1      15.156   6.377   3.655  0.00  0.00    -0.306 NA
ATOM     23  H   UNL     1      16.126   6.064   3.666  0.00  0.00    +0.123 HD
BRANCH   3   7
ATOM      7  C   UNL     1      14.698   6.533   2.282  0.00  0.00    +0.085 C 
BRANCH   7   6
ATOM      6  C   UNL     1      14.537   5.175   1.604  0.00  0.00    +0.003 C 
ATOM     10  C   UNL     1      13.181   4.550   1.959  0.00  0.00    +0.005 C 
ATOM     11  C   UNL     1      14.696   5.306   0.084  0.00  0.00    +0.005 C 
ATOM     13  C   UNL     1      12.972   3.214   1.250  0.00  0.00    +0.000 C 
ATOM     14  C   UNL     1      14.485   3.970  -0.623  0.00  0.00    +0.000 C 
ATOM     15  C   UNL     1      13.141   3.347  -0.261  0.00  0.00    +0.000 C 
ENDBRANCH   7   6
ENDBRANCH   3   7
ENDBRANCH   5   3
BRANCH   5  12
ATOM     12  C   UNL     1      13.629   8.295   3.965  0.00  0.00    +0.085 C 
BRANCH  12  16
ATOM      2  O   UNL     1      10.942   7.864   6.342  0.00  0.00    -0.359 OA
ATOM      4  N   UNL     1      12.023   8.565   5.821  0.00  0.00    -0.083 NA
ATOM     16  C   UNL     1      12.445   7.830   4.787  0.00  0.00    +0.086 A 
ATOM     17  C   UNL     1      11.677   6.666   4.611  0.00  0.00    +0.071 A 
ATOM     19  C   UNL     1      10.746   6.735   5.613  0.00  0.00    +0.143 A 
BRANCH  19  18
ATOM     18  C   UNL     1       9.635   5.871   6.030  0.00  0.00    +0.023 C 
ATOM     20  C   UNL     1       9.781   4.340   5.691  0.00  0.00    +0.019 C 
ATOM     21  C   UNL     1       8.278   6.294   5.366  0.00  0.00    +0.019 C 
ATOM     22  C   UNL     1       9.409   5.910   7.583  0.00  0.00    +0.019 C 
ENDBRANCH  19  18
ENDBRANCH  12  16
ENDBRANCH   5  12
TORSDOF 6
ENDMDL
MODEL 8
REMARK VINA RESULT:      -5.2     26.972     28.617
REMARK  Name = 56775461
REMARK  9 active torsions:
REMARK  status: ('A' for Active; 'I' for Inactive)
REMARK    1  A    between atoms: N_3  and  C_5
REMARK    2  A    between atoms: N_3  and  C_7
REMARK    3  A    between atoms: C_5  and  C_12
REMARK    4  A    between atoms: C_6  and  C_7
REMARK    5  A    between atoms: C_12  and  C_16
REMARK    6  A    between atoms: C_18  and  C_19
REMARK    7  A    between atoms: C_18  and  C_20
REMARK    8  A    between atoms: C_18  and  C_21
REMARK    9  A    between atoms: C_18  and  C_22
REMARK                            x       y       z     vdW  Elec       q    Type
REMARK                         _______ _______ _______ _____ _____    ______ ____
ROOT
ATOM      1  O   UNL     1      10.591   7.983  22.722  0.00  0.00    -0.376 OA
ATOM      5  C   UNL     1      11.692   7.851  20.898  0.00  0.00    +0.072 C 
ATOM      8  C   UNL     1      10.698   6.994  21.672  0.00  0.00    +0.184 C 
ATOM      9  C   UNL     1      11.600   8.801  22.087  0.00  0.00    +0.184 C 
ENDROOT
BRANCH   5   3
ATOM      3  N   UNL     1      13.003   7.192  20.921  0.00  0.00    -0.306 NA
ATOM     23  H   UNL     1      13.007   6.240  21.283  0.00  0.00    +0.123 HD
BRANCH   3   7
ATOM      7  C   UNL     1      13.946   8.012  21.667  0.00  0.00    +0.085 C 
BRANCH   7   6
ATOM      6  C   UNL     1      15.329   7.976  21.021  0.00  0.00    +0.003 C 
ATOM     10  C   UNL     1      16.221   9.089  21.588  0.00  0.00    +0.005 C 
ATOM     11  C   UNL     1      15.982   6.602  21.216  0.00  0.00    +0.005 C 
ATOM     13  C   UNL     1      17.627   9.041  20.996  0.00  0.00    +0.000 C 
ATOM     14  C   UNL     1      17.389   6.557  20.626  0.00  0.00    +0.000 C 
ATOM     15  C   UNL     1      18.270   7.670  21.184  0.00  0.00    +0.000 C 
ENDBRANCH   7   6
ENDBRANCH   3   7
ENDBRANCH   5   3
BRANCH   5  12
ATOM     12  C   UNL     1      11.314   8.351  19.538  0.00  0.00    +0.085 C 
BRANCH  12  16
ATOM      2  O   UNL     1      14.229   9.372  17.664  0.00  0.00    -0.359 OA
ATOM      4  N   UNL     1      13.302   8.423  18.076  0.00  0.00    -0.083 NA
ATOM     16  C   UNL     1      12.472   9.082  18.891  0.00  0.00    +0.086 A 
ATOM     17  C   UNL     1      12.823  10.435  19.030  0.00  0.00    +0.071 A 
ATOM     19  C   UNL     1      13.934  10.567  18.239  0.00  0.00    +0.143 A 
BRANCH  19  18
ATOM     18  C   UNL     1      14.820  11.690  17.909  0.00  0.00    +0.023 C 
ATOM     20  C   UNL     1      14.162  13.121  17.925  0.00  0.00    +0.019 C 
ATOM     21  C   UNL     1      15.434  11.553  16.472  0.00  0.00    +0.019 C 
ATOM     22  C   UNL     1      16.026  11.801  18.907  0.00  0.00    +0.019 C 
ENDBRANCH  19  18
ENDBRANCH  12  16
ENDBRANCH   5  12
TORSDOF 6
ENDMDL
MODEL 9
REMARK VINA RESULT:      -5.1     20.540     22.747
REMARK  Name = 56775461
REMARK  9 active torsions:
REMARK  status: ('A' for Active; 'I' for Inactive)
REMARK    1  A    between atoms: N_3  and  C_5
REMARK    2  A    between atoms: N_3  and  C_7
REMARK    3  A    between atoms: C_5  and  C_12
REMARK    4  A    between atoms: C_6  and  C_7
REMARK    5  A    between atoms: C_12  and  C_16
REMARK    6  A    between atoms: C_18  and  C_19
REMARK    7  A    between atoms: C_18  and  C_20
REMARK    8  A    between atoms: C_18  and  C_21
REMARK    9  A    between atoms: C_18  and  C_22
REMARK                            x       y       z     vdW  Elec       q    Type
REMARK                         _______ _______ _______ _____ _____    ______ ____
ROOT
ATOM      1  O   UNL     1     -10.478  12.677  16.325  0.00  0.00    -0.376 OA
ATOM      5  C   UNL     1     -10.659  10.724  17.165  0.00  0.00    +0.072 C 
ATOM      8  C   UNL     1     -11.578  11.762  16.532  0.00  0.00    +0.184 C 
ATOM      9  C   UNL     1      -9.570  11.779  17.001  0.00  0.00    +0.184 C 
ENDROOT
BRANCH   5   3
ATOM      3  N   UNL     1     -10.991  10.606  18.590  0.00  0.00    -0.306 NA
ATOM     23  H   UNL     1     -10.889  11.461  19.134  0.00  0.00    +0.123 HD
BRANCH   3   7
ATOM      7  C   UNL     1     -10.200   9.539  19.186  0.00  0.00    +0.085 C 
BRANCH   7   6
ATOM      6  C   UNL     1     -10.981   8.835  20.292  0.00  0.00    +0.003 C 
ATOM     10  C   UNL     1     -12.281   9.589  20.602  0.00  0.00    +0.005 C 
ATOM     11  C   UNL     1     -11.274   7.379  19.907  0.00  0.00    +0.005 C 
ATOM     13  C   UNL     1     -13.107   8.876  21.669  0.00  0.00    +0.000 C 
ATOM     14  C   UNL     1     -12.101   6.668  20.975  0.00  0.00    +0.000 C 
ATOM     15  C   UNL     1     -13.389   7.425  21.287  0.00  0.00    +0.000 C 
ENDBRANCH   7   6
ENDBRANCH   3   7
ENDBRANCH   5   3
BRANCH   5  12
ATOM     12  C   UNL     1     -10.491   9.396  16.493  0.00  0.00    +0.085 C 
BRANCH  12  16
ATOM      2  O   UNL     1     -13.835   8.048  16.268  0.00  0.00    -0.359 OA
ATOM      4  N   UNL     1     -12.746   8.522  16.989  0.00  0.00    -0.083 NA
ATOM     16  C   UNL     1     -11.832   8.836  16.066  0.00  0.00    +0.086 A 
ATOM     17  C   UNL     1     -12.284   8.584  14.759  0.00  0.00    +0.071 A 
ATOM     19  C   UNL     1     -13.548   8.090  14.941  0.00  0.00    +0.143 A 
BRANCH  19  18
ATOM     18  C   UNL     1     -14.598   7.621  14.029  0.00  0.00    +0.023 C 
ATOM     20  C   UNL     1     -14.133   6.659  12.871  0.00  0.00    +0.019 C 
ATOM     21  C   UNL     1     -15.311   8.809  13.292  0.00  0.00    +0.019 C 
ATOM     22  C   UNL     1     -15.718   6.819  14.781  0.00  0.00    +0.019 C 
ENDBRANCH  19  18
ENDBRANCH  12  16
ENDBRANCH   5  12
TORSDOF 6
ENDMDL
MODEL 10
REMARK VINA RESULT:      -5.1      2.095      6.816
REMARK  Name = 56775461
REMARK  9 active torsions:
REMARK  status: ('A' for Active; 'I' for Inactive)
REMARK    1  A    between atoms: N_3  and  C_5
REMARK    2  A    between atoms: N_3  and  C_7
REMARK    3  A    between atoms: C_5  and  C_12
REMARK    4  A    between atoms: C_6  and  C_7
REMARK    5  A    between atoms: C_12  and  C_16
REMARK    6  A    between atoms: C_18  and  C_19
REMARK    7  A    between atoms: C_18  and  C_20
REMARK    8  A    between atoms: C_18  and  C_21
REMARK    9  A    between atoms: C_18  and  C_22
REMARK                            x       y       z     vdW  Elec       q    Type
REMARK                         _______ _______ _______ _____ _____    ______ ____
ROOT
ATOM      1  O   UNL     1      -4.849 -14.009  17.187  0.00  0.00    -0.376 OA
ATOM      5  C   UNL     1      -5.045 -11.923  16.783  0.00  0.00    +0.072 C 
ATOM      8  C   UNL     1      -5.022 -12.831  18.007  0.00  0.00    +0.184 C 
ATOM      9  C   UNL     1      -4.957 -13.218  15.982  0.00  0.00    +0.184 C 
ENDROOT
BRANCH   5   3
ATOM      3  N   UNL     1      -6.393 -11.365  16.633  0.00  0.00    -0.306 NA
ATOM     23  H   UNL     1      -6.814 -11.482  15.712  0.00  0.00    +0.123 HD
BRANCH   3   7
ATOM      7  C   UNL     1      -6.380  -9.957  17.000  0.00  0.00    +0.085 C 
BRANCH   7   6
ATOM      6  C   UNL     1      -7.664  -9.573  17.730  0.00  0.00    +0.003 C 
ATOM     10  C   UNL     1      -8.626  -8.838  16.786  0.00  0.00    +0.005 C 
ATOM     11  C   UNL     1      -8.336 -10.813  18.335  0.00  0.00    +0.005 C 
ATOM     13  C   UNL     1      -9.940  -8.489  17.479  0.00  0.00    +0.000 C 
ATOM     14  C   UNL     1      -9.652 -10.462  19.026  0.00  0.00    +0.000 C 
ATOM     15  C   UNL     1     -10.601  -9.723  18.087  0.00  0.00    +0.000 C 
ENDBRANCH   7   6
ENDBRANCH   3   7
ENDBRANCH   5   3
BRANCH   5  12
ATOM     12  C   UNL     1      -3.967 -10.895  16.622  0.00  0.00    +0.085 C 
BRANCH  12  16
ATOM      2  O   UNL     1      -2.147 -10.918  13.501  0.00  0.00    -0.359 OA
ATOM      4  N   UNL     1      -2.226 -11.069  14.880  0.00  0.00    -0.083 NA
ATOM     16  C   UNL     1      -3.504 -10.821  15.182  0.00  0.00    +0.086 A 
ATOM     17  C   UNL     1      -4.270 -10.511  14.045  0.00  0.00    +0.071 A 
ATOM     19  C   UNL     1      -3.370 -10.586  13.015  0.00  0.00    +0.143 A 
BRANCH  19  18
ATOM     18  C   UNL     1      -3.467 -10.387  11.564  0.00  0.00    +0.023 C 
ATOM     20  C   UNL     1      -2.284  -9.595  10.890  0.00  0.00    +0.019 C 
ATOM     21  C   UNL     1      -4.756  -9.587  11.164  0.00  0.00    +0.019 C 
ATOM     22  C   UNL     1      -3.522 -11.749  10.786  0.00  0.00    +0.019 C 
ENDBRANCH  19  18
ENDBRANCH  12  16
ENDBRANCH   5  12
TORSDOF 6
ENDMDL
