MODEL 1
REMARK VINA RESULT:      -7.9      0.000      0.000
REMARK  Name = 51137049
REMARK  4 active torsions:
REMARK  status: ('A' for Active; 'I' for Inactive)
REMARK    1  A    between atoms: N_2  and  C_9
REMARK    2  A    between atoms: C_5  and  C_10
REMARK    3  A    between atoms: C_9  and  C_11
REMARK    4  A    between atoms: C_20  and  C_24
REMARK                            x       y       z     vdW  Elec       q    Type
REMARK                         _______ _______ _______ _____ _____    ______ ____
ROOT
ATOM      2  N   UNL     1      12.038   8.562  21.076  0.00  0.00    -0.297 NA
ATOM      5  C   UNL     1      14.049   8.153  19.940  0.00  0.00    +0.090 C 
ATOM      6  C   UNL     1      13.015   7.080  19.558  0.00  0.00    +0.029 C 
ATOM      7  C   UNL     1      13.475   8.814  21.200  0.00  0.00    +0.097 C 
ATOM      8  C   UNL     1      11.937   7.172  20.630  0.00  0.00    +0.085 C 
ENDROOT
BRANCH   5  10
ATOM      1  O   UNL     1      16.243   8.360  20.979  0.00  0.00    -0.439 OA
ATOM      3  N   UNL     1      16.023   6.585  19.589  0.00  0.00    -0.213 NA
ATOM     10  C   UNL     1      15.456   7.639  20.133  0.00  0.00    +0.201 A 
ATOM     12  C   UNL     1      17.293   6.601  20.114  0.00  0.00    +0.110 A 
ATOM     13  C   UNL     1      17.431   7.687  20.966  0.00  0.00    +0.155 A 
ATOM     17  C   UNL     1      18.385   5.742  19.927  0.00  0.00    +0.035 A 
ATOM     18  C   UNL     1      18.590   8.002  21.665  0.00  0.00    +0.049 A 
ATOM     20  C   UNL     1      19.572   6.028  20.616  0.00  0.00    -0.048 A 
ATOM     21  C   UNL     1      19.670   7.136  21.467  0.00  0.00    +0.007 A 
ATOM     24  C   UNL     1      20.755   5.133  20.438  0.00  0.00    +0.044 C 
ENDBRANCH   5  10
BRANCH   2   9
ATOM      9  C   UNL     1      11.323   8.797  22.321  0.00  0.00    +0.121 C 
BRANCH   9  11
ATOM      4  N   UNL     1      11.045  12.522  21.841  0.00  0.00    -0.255 NA
ATOM     11  C   UNL     1      11.174  10.244  22.628  0.00  0.00    -0.015 A 
ATOM     14  C   UNL     1      11.030  10.690  23.935  0.00  0.00    +0.016 A 
ATOM     15  C   UNL     1      11.176  11.193  21.627  0.00  0.00    +0.116 A 
ATOM     16  C   UNL     1      10.891  12.059  24.201  0.00  0.00    +0.001 A 
ATOM     19  C   UNL     1      10.905  12.952  23.110  0.00  0.00    +0.071 A 
ATOM     22  C   UNL     1      10.744  12.543  25.512  0.00  0.00    +0.010 A 
ATOM     23  C   UNL     1      10.768  14.312  23.375  0.00  0.00    +0.028 A 
ATOM     25  C   UNL     1      10.608  13.907  25.749  0.00  0.00    +0.001 A 
ATOM     26  C   UNL     1      10.621  14.792  24.678  0.00  0.00    +0.002 A 
ENDBRANCH   9  11
ENDBRANCH   2   9
TORSDOF 3
ENDMDL
MODEL 2
REMARK VINA RESULT:      -7.5      3.922      5.588
REMARK  Name = 51137049
REMARK  4 active torsions:
REMARK  status: ('A' for Active; 'I' for Inactive)
REMARK    1  A    between atoms: N_2  and  C_9
REMARK    2  A    between atoms: C_5  and  C_10
REMARK    3  A    between atoms: C_9  and  C_11
REMARK    4  A    between atoms: C_20  and  C_24
REMARK                            x       y       z     vdW  Elec       q    Type
REMARK                         _______ _______ _______ _____ _____    ______ ____
ROOT
ATOM      2  N   UNL     1      11.833   7.751  18.766  0.00  0.00    -0.297 NA
ATOM      5  C   UNL     1      13.636   6.714  19.847  0.00  0.00    +0.090 C 
ATOM      6  C   UNL     1      12.638   7.233  20.896  0.00  0.00    +0.029 C 
ATOM      7  C   UNL     1      13.245   7.432  18.549  0.00  0.00    +0.097 C 
ATOM      8  C   UNL     1      11.763   8.229  20.147  0.00  0.00    +0.085 C 
ENDROOT
BRANCH   5  10
ATOM      1  O   UNL     1      15.960   6.002  19.665  0.00  0.00    -0.439 OA
ATOM      3  N   UNL     1      15.631   7.817  20.981  0.00  0.00    -0.213 NA
ATOM     10  C   UNL     1      15.091   6.900  20.208  0.00  0.00    +0.201 A 
ATOM     12  C   UNL     1      16.969   7.508  20.952  0.00  0.00    +0.110 A 
ATOM     13  C   UNL     1      17.175   6.398  20.147  0.00  0.00    +0.155 A 
ATOM     17  C   UNL     1      18.074   8.110  21.572  0.00  0.00    +0.035 A 
ATOM     18  C   UNL     1      18.413   5.818  19.899  0.00  0.00    +0.049 A 
ATOM     20  C   UNL     1      19.340   7.553  21.345  0.00  0.00    -0.048 A 
ATOM     21  C   UNL     1      19.504   6.430  20.525  0.00  0.00    +0.007 A 
ATOM     24  C   UNL     1      20.537   8.170  21.992  0.00  0.00    +0.044 C 
ENDBRANCH   5  10
BRANCH   2   9
ATOM      9  C   UNL     1      11.332   8.732  17.815  0.00  0.00    +0.121 C 
BRANCH   9  11
ATOM      4  N   UNL     1      13.605   9.887  15.043  0.00  0.00    -0.255 NA
ATOM     11  C   UNL     1      12.425   9.444  17.101  0.00  0.00    -0.015 A 
ATOM     14  C   UNL     1      13.277  10.310  17.773  0.00  0.00    +0.016 A 
ATOM     15  C   UNL     1      12.630   9.269  15.748  0.00  0.00    +0.116 A 
ATOM     16  C   UNL     1      14.301  10.970  17.079  0.00  0.00    +0.001 A 
ATOM     19  C   UNL     1      14.431  10.726  15.696  0.00  0.00    +0.071 A 
ATOM     22  C   UNL     1      15.180  11.852  17.730  0.00  0.00    +0.010 A 
ATOM     23  C   UNL     1      15.448  11.382  15.008  0.00  0.00    +0.028 A 
ATOM     25  C   UNL     1      16.188  12.494  17.018  0.00  0.00    +0.001 A 
ATOM     26  C   UNL     1      16.322  12.258  15.655  0.00  0.00    +0.002 A 
ENDBRANCH   9  11
ENDBRANCH   2   9
TORSDOF 3
ENDMDL
MODEL 3
REMARK VINA RESULT:      -7.3     28.103     30.965
REMARK  Name = 51137049
REMARK  4 active torsions:
REMARK  status: ('A' for Active; 'I' for Inactive)
REMARK    1  A    between atoms: N_2  and  C_9
REMARK    2  A    between atoms: C_5  and  C_10
REMARK    3  A    between atoms: C_9  and  C_11
REMARK    4  A    between atoms: C_20  and  C_24
REMARK                            x       y       z     vdW  Elec       q    Type
REMARK                         _______ _______ _______ _____ _____    ______ ____
ROOT
ATOM      2  N   UNL     1     -17.178   3.561  24.791  0.00  0.00    -0.297 NA
ATOM      5  C   UNL     1     -16.494   1.986  26.388  0.00  0.00    +0.090 C 
ATOM      6  C   UNL     1     -17.992   1.802  26.093  0.00  0.00    +0.029 C 
ATOM      7  C   UNL     1     -16.153   3.370  25.819  0.00  0.00    +0.097 C 
ATOM      8  C   UNL     1     -18.420   3.092  25.405  0.00  0.00    +0.085 C 
ENDROOT
BRANCH   5  10
ATOM      1  O   UNL     1     -15.907   0.560  28.275  0.00  0.00    -0.439 OA
ATOM      3  N   UNL     1     -15.947   2.776  28.746  0.00  0.00    -0.213 NA
ATOM     10  C   UNL     1     -16.110   1.836  27.842  0.00  0.00    +0.201 A 
ATOM     12  C   UNL     1     -15.606   2.073  29.876  0.00  0.00    +0.110 A 
ATOM     13  C   UNL     1     -15.580   0.716  29.591  0.00  0.00    +0.155 A 
ATOM     17  C   UNL     1     -15.303   2.499  31.177  0.00  0.00    +0.035 A 
ATOM     18  C   UNL     1     -15.273  -0.280  30.510  0.00  0.00    +0.049 A 
ATOM     20  C   UNL     1     -14.987   1.522  32.132  0.00  0.00    -0.048 A 
ATOM     21  C   UNL     1     -14.973   0.161  31.803  0.00  0.00    +0.007 A 
ATOM     24  C   UNL     1     -14.660   1.943  33.528  0.00  0.00    +0.044 C 
ENDBRANCH   5  10
BRANCH   2   9
ATOM      9  C   UNL     1     -17.268   4.944  24.346  0.00  0.00    +0.121 C 
BRANCH   9  11
ATOM      4  N   UNL     1     -14.299   4.717  22.043  0.00  0.00    -0.255 NA
ATOM     11  C   UNL     1     -16.114   5.348  23.503  0.00  0.00    -0.015 A 
ATOM     14  C   UNL     1     -15.754   6.683  23.368  0.00  0.00    +0.016 A 
ATOM     15  C   UNL     1     -15.359   4.413  22.825  0.00  0.00    +0.116 A 
ATOM     16  C   UNL     1     -14.661   7.040  22.567  0.00  0.00    +0.001 A 
ATOM     19  C   UNL     1     -13.951   6.011  21.914  0.00  0.00    +0.071 A 
ATOM     22  C   UNL     1     -14.272   8.381  22.410  0.00  0.00    +0.010 A 
ATOM     23  C   UNL     1     -12.865   6.368  21.118  0.00  0.00    +0.028 A 
ATOM     25  C   UNL     1     -13.182   8.709  21.609  0.00  0.00    +0.001 A 
ATOM     26  C   UNL     1     -12.479   7.701  20.963  0.00  0.00    +0.002 A 
ENDBRANCH   9  11
ENDBRANCH   2   9
TORSDOF 3
ENDMDL
MODEL 4
REMARK VINA RESULT:      -7.3      4.255      6.001
REMARK  Name = 51137049
REMARK  4 active torsions:
REMARK  status: ('A' for Active; 'I' for Inactive)
REMARK    1  A    between atoms: N_2  and  C_9
REMARK    2  A    between atoms: C_5  and  C_10
REMARK    3  A    between atoms: C_9  and  C_11
REMARK    4  A    between atoms: C_20  and  C_24
REMARK                            x       y       z     vdW  Elec       q    Type
REMARK                         _______ _______ _______ _____ _____    ______ ____
ROOT
ATOM      2  N   UNL     1      16.167   7.756  20.104  0.00  0.00    -0.297 NA
ATOM      5  C   UNL     1      18.434   7.202  20.336  0.00  0.00    +0.090 C 
ATOM      6  C   UNL     1      17.698   6.062  19.611  0.00  0.00    +0.029 C 
ATOM      7  C   UNL     1      17.318   8.051  20.959  0.00  0.00    +0.097 C 
ATOM      8  C   UNL     1      16.220   6.309  19.886  0.00  0.00    +0.085 C 
ENDROOT
BRANCH   5  10
ATOM      1  O   UNL     1      19.441   7.393  22.547  0.00  0.00    -0.439 OA
ATOM      3  N   UNL     1      20.384   5.822  21.214  0.00  0.00    -0.213 NA
ATOM     10  C   UNL     1      19.465   6.752  21.345  0.00  0.00    +0.201 A 
ATOM     12  C   UNL     1      21.029   5.841  22.428  0.00  0.00    +0.110 A 
ATOM     13  C   UNL     1      20.454   6.801  23.246  0.00  0.00    +0.155 A 
ATOM     17  C   UNL     1      22.102   5.085  22.920  0.00  0.00    +0.035 A 
ATOM     18  C   UNL     1      20.864   7.084  24.543  0.00  0.00    +0.049 A 
ATOM     20  C   UNL     1      22.544   5.341  24.225  0.00  0.00    -0.048 A 
ATOM     21  C   UNL     1      21.936   6.322  25.019  0.00  0.00    +0.007 A 
ATOM     24  C   UNL     1      23.687   4.554  24.779  0.00  0.00    +0.044 C 
ENDBRANCH   5  10
BRANCH   2   9
ATOM      9  C   UNL     1      14.908   8.180  20.698  0.00  0.00    +0.121 C 
BRANCH   9  11
ATOM      4  N   UNL     1      11.512   7.869  19.103  0.00  0.00    -0.255 NA
ATOM     11  C   UNL     1      13.813   8.286  19.700  0.00  0.00    -0.015 A 
ATOM     14  C   UNL     1      14.024   8.877  18.462  0.00  0.00    +0.016 A 
ATOM     15  C   UNL     1      12.549   7.802  19.968  0.00  0.00    +0.116 A 
ATOM     16  C   UNL     1      12.975   8.966  17.535  0.00  0.00    +0.001 A 
ATOM     19  C   UNL     1      11.719   8.442  17.902  0.00  0.00    +0.071 A 
ATOM     22  C   UNL     1      13.157   9.558  16.274  0.00  0.00    +0.010 A 
ATOM     23  C   UNL     1      10.678   8.530  16.982  0.00  0.00    +0.028 A 
ATOM     25  C   UNL     1      12.099   9.633  15.373  0.00  0.00    +0.001 A 
ATOM     26  C   UNL     1      10.859   9.118  15.728  0.00  0.00    +0.002 A 
ENDBRANCH   9  11
ENDBRANCH   2   9
TORSDOF 3
ENDMDL
MODEL 5
REMARK VINA RESULT:      -7.3     27.428     30.241
REMARK  Name = 51137049
REMARK  4 active torsions:
REMARK  status: ('A' for Active; 'I' for Inactive)
REMARK    1  A    between atoms: N_2  and  C_9
REMARK    2  A    between atoms: C_5  and  C_10
REMARK    3  A    between atoms: C_9  and  C_11
REMARK    4  A    between atoms: C_20  and  C_24
REMARK                            x       y       z     vdW  Elec       q    Type
REMARK                         _______ _______ _______ _____ _____    ______ ____
ROOT
ATOM      2  N   UNL     1     -17.008   4.295  25.535  0.00  0.00    -0.297 NA
ATOM      5  C   UNL     1     -16.183   4.949  23.439  0.00  0.00    +0.090 C 
ATOM      6  C   UNL     1     -15.630   3.560  23.798  0.00  0.00    +0.029 C 
ATOM      7  C   UNL     1     -16.724   5.507  24.762  0.00  0.00    +0.097 C 
ATOM      8  C   UNL     1     -15.860   3.420  25.298  0.00  0.00    +0.085 C 
ENDROOT
BRANCH   5  10
ATOM      1  O   UNL     1     -14.101   5.276  22.215  0.00  0.00    -0.439 OA
ATOM      3  N   UNL     1     -15.242   7.182  22.658  0.00  0.00    -0.213 NA
ATOM     10  C   UNL     1     -15.192   5.874  22.772  0.00  0.00    +0.201 A 
ATOM     12  C   UNL     1     -14.093   7.485  21.968  0.00  0.00    +0.110 A 
ATOM     13  C   UNL     1     -13.392   6.320  21.695  0.00  0.00    +0.155 A 
ATOM     17  C   UNL     1     -13.568   8.711  21.534  0.00  0.00    +0.035 A 
ATOM     18  C   UNL     1     -12.184   6.265  21.011  0.00  0.00    +0.049 A 
ATOM     20  C   UNL     1     -12.350   8.696  20.840  0.00  0.00    -0.048 A 
ATOM     21  C   UNL     1     -11.673   7.496  20.585  0.00  0.00    +0.007 A 
ATOM     24  C   UNL     1     -11.763   9.984  20.364  0.00  0.00    +0.044 C 
ENDBRANCH   5  10
BRANCH   2   9
ATOM      9  C   UNL     1     -17.210   4.572  26.949  0.00  0.00    +0.121 C 
BRANCH   9  11
ATOM      4  N   UNL     1     -17.163   1.183  28.589  0.00  0.00    -0.255 NA
ATOM     11  C   UNL     1     -16.795   3.440  27.817  0.00  0.00    -0.015 A 
ATOM     14  C   UNL     1     -15.691   3.543  28.653  0.00  0.00    +0.016 A 
ATOM     15  C   UNL     1     -17.490   2.249  27.823  0.00  0.00    +0.116 A 
ATOM     16  C   UNL     1     -15.317   2.462  29.463  0.00  0.00    +0.001 A 
ATOM     19  C   UNL     1     -16.092   1.285  29.399  0.00  0.00    +0.071 A 
ATOM     22  C   UNL     1     -14.206   2.534  30.319  0.00  0.00    +0.010 A 
ATOM     23  C   UNL     1     -15.720   0.212  30.204  0.00  0.00    +0.028 A 
ATOM     25  C   UNL     1     -13.857   1.446  31.114  0.00  0.00    +0.001 A 
ATOM     26  C   UNL     1     -14.616   0.284  31.055  0.00  0.00    +0.002 A 
ENDBRANCH   9  11
ENDBRANCH   2   9
TORSDOF 3
ENDMDL
MODEL 6
REMARK VINA RESULT:      -7.3     27.195     30.390
REMARK  Name = 51137049
REMARK  4 active torsions:
REMARK  status: ('A' for Active; 'I' for Inactive)
REMARK    1  A    between atoms: N_2  and  C_9
REMARK    2  A    between atoms: C_5  and  C_10
REMARK    3  A    between atoms: C_9  and  C_11
REMARK    4  A    between atoms: C_20  and  C_24
REMARK                            x       y       z     vdW  Elec       q    Type
REMARK                         _______ _______ _______ _____ _____    ______ ____
ROOT
ATOM      2  N   UNL     1      -4.686 -11.967  16.880  0.00  0.00    -0.297 NA
ATOM      5  C   UNL     1      -6.141 -10.783  18.289  0.00  0.00    +0.090 C 
ATOM      6  C   UNL     1      -5.436 -11.891  19.091  0.00  0.00    +0.029 C 
ATOM      7  C   UNL     1      -5.905 -11.157  16.820  0.00  0.00    +0.097 C 
ATOM      8  C   UNL     1      -4.871 -12.838  18.041  0.00  0.00    +0.085 C 
ENDROOT
BRANCH   5  10
ATOM      1  O   UNL     1      -8.345  -9.937  17.684  0.00  0.00    -0.439 OA
ATOM      3  N   UNL     1      -8.252 -10.970  19.698  0.00  0.00    -0.213 NA
ATOM     10  C   UNL     1      -7.602 -10.590  18.621  0.00  0.00    +0.201 A 
ATOM     12  C   UNL     1      -9.535 -10.536  19.463  0.00  0.00    +0.110 A 
ATOM     13  C   UNL     1      -9.595  -9.904  18.231  0.00  0.00    +0.155 A 
ATOM     17  C   UNL     1     -10.703 -10.635  20.233  0.00  0.00    +0.035 A 
ATOM     18  C   UNL     1     -10.744  -9.346  17.683  0.00  0.00    +0.049 A 
ATOM     20  C   UNL     1     -11.883 -10.084  19.713  0.00  0.00    -0.048 A 
ATOM     21  C   UNL     1     -11.900  -9.453  18.463  0.00  0.00    +0.007 A 
ATOM     24  C   UNL     1     -13.144 -10.172  20.508  0.00  0.00    +0.044 C 
ENDBRANCH   5  10
BRANCH   2   9
ATOM      9  C   UNL     1      -4.456 -12.717  15.655  0.00  0.00    +0.121 C 
BRANCH   9  11
ATOM      4  N   UNL     1      -1.745 -10.764  13.919  0.00  0.00    -0.255 NA
ATOM     11  C   UNL     1      -3.744 -11.920  14.623  0.00  0.00    -0.015 A 
ATOM     14  C   UNL     1      -4.360 -11.578  13.427  0.00  0.00    +0.016 A 
ATOM     15  C   UNL     1      -2.447 -11.491  14.818  0.00  0.00    +0.116 A 
ATOM     16  C   UNL     1      -3.668 -10.825  12.468  0.00  0.00    +0.001 A 
ATOM     19  C   UNL     1      -2.345 -10.433  12.760  0.00  0.00    +0.071 A 
ATOM     22  C   UNL     1      -4.263 -10.462  11.248  0.00  0.00    +0.010 A 
ATOM     23  C   UNL     1      -1.658  -9.685  11.807  0.00  0.00    +0.028 A 
ATOM     25  C   UNL     1      -3.554  -9.714  10.314  0.00  0.00    +0.001 A 
ATOM     26  C   UNL     1      -2.250  -9.325  10.594  0.00  0.00    +0.002 A 
ENDBRANCH   9  11
ENDBRANCH   2   9
TORSDOF 3
ENDMDL
MODEL 7
REMARK VINA RESULT:      -7.3     25.876     28.915
REMARK  Name = 51137049
REMARK  4 active torsions:
REMARK  status: ('A' for Active; 'I' for Inactive)
REMARK    1  A    between atoms: N_2  and  C_9
REMARK    2  A    between atoms: C_5  and  C_10
REMARK    3  A    between atoms: C_9  and  C_11
REMARK    4  A    between atoms: C_20  and  C_24
REMARK                            x       y       z     vdW  Elec       q    Type
REMARK                         _______ _______ _______ _____ _____    ______ ____
ROOT
ATOM      2  N   UNL     1     -13.351   6.731  21.076  0.00  0.00    -0.297 NA
ATOM      5  C   UNL     1     -15.150   5.428  21.828  0.00  0.00    +0.090 C 
ATOM      6  C   UNL     1     -15.491   6.918  21.994  0.00  0.00    +0.029 C 
ATOM      7  C   UNL     1     -13.631   5.398  21.613  0.00  0.00    +0.097 C 
ATOM      8  C   UNL     1     -14.154   7.642  21.893  0.00  0.00    +0.085 C 
ENDROOT
BRANCH   5  10
ATOM      1  O   UNL     1     -16.455   3.534  22.634  0.00  0.00    -0.439 OA
ATOM      3  N   UNL     1     -15.280   4.619  24.239  0.00  0.00    -0.213 NA
ATOM     10  C   UNL     1     -15.602   4.543  22.966  0.00  0.00    +0.201 A 
ATOM     12  C   UNL     1     -15.973   3.576  24.804  0.00  0.00    +0.110 A 
ATOM     13  C   UNL     1     -16.693   2.910  23.825  0.00  0.00    +0.155 A 
ATOM     17  C   UNL     1     -16.050   3.124  26.129  0.00  0.00    +0.035 A 
ATOM     18  C   UNL     1     -17.505   1.805  24.053  0.00  0.00    +0.049 A 
ATOM     20  C   UNL     1     -16.859   2.011  26.398  0.00  0.00    -0.048 A 
ATOM     21  C   UNL     1     -17.571   1.366  25.379  0.00  0.00    +0.007 A 
ATOM     24  C   UNL     1     -16.963   1.504  27.800  0.00  0.00    +0.044 C 
ENDBRANCH   5  10
BRANCH   2   9
ATOM      9  C   UNL     1     -11.934   7.059  21.113  0.00  0.00    +0.121 C 
BRANCH   9  11
ATOM      4  N   UNL     1     -10.850   7.727  17.569  0.00  0.00    -0.255 NA
ATOM     11  C   UNL     1     -11.486   7.786  19.897  0.00  0.00    -0.015 A 
ATOM     14  C   UNL     1     -11.279   9.159  19.916  0.00  0.00    +0.016 A 
ATOM     15  C   UNL     1     -11.258   7.123  18.708  0.00  0.00    +0.116 A 
ATOM     16  C   UNL     1     -10.856   9.824  18.756  0.00  0.00    +0.001 A 
ATOM     19  C   UNL     1     -10.650   9.059  17.589  0.00  0.00    +0.071 A 
ATOM     22  C   UNL     1     -10.638  11.211  18.742  0.00  0.00    +0.010 A 
ATOM     23  C   UNL     1     -10.230   9.720  16.438  0.00  0.00    +0.028 A 
ATOM     25  C   UNL     1     -10.218  11.847  17.578  0.00  0.00    +0.001 A 
ATOM     26  C   UNL     1     -10.013  11.100  16.425  0.00  0.00    +0.002 A 
ENDBRANCH   9  11
ENDBRANCH   2   9
TORSDOF 3
ENDMDL
MODEL 8
REMARK VINA RESULT:      -7.1     27.816     30.562
REMARK  Name = 51137049
REMARK  4 active torsions:
REMARK  status: ('A' for Active; 'I' for Inactive)
REMARK    1  A    between atoms: N_2  and  C_9
REMARK    2  A    between atoms: C_5  and  C_10
REMARK    3  A    between atoms: C_9  and  C_11
REMARK    4  A    between atoms: C_20  and  C_24
REMARK                            x       y       z     vdW  Elec       q    Type
REMARK                         _______ _______ _______ _____ _____    ______ ____
ROOT
ATOM      2  N   UNL     1     -17.117   2.469  26.373  0.00  0.00    -0.297 NA
ATOM      5  C   UNL     1     -16.866   4.208  24.820  0.00  0.00    +0.090 C 
ATOM      6  C   UNL     1     -17.642   3.048  24.172  0.00  0.00    +0.029 C 
ATOM      7  C   UNL     1     -16.233   3.598  26.077  0.00  0.00    +0.097 C 
ATOM      8  C   UNL     1     -17.384   1.849  25.075  0.00  0.00    +0.085 C 
ENDROOT
BRANCH   5  10
ATOM      1  O   UNL     1     -16.139   6.163  23.560  0.00  0.00    -0.439 OA
ATOM      3  N   UNL     1     -14.741   4.385  23.430  0.00  0.00    -0.213 NA
ATOM     10  C   UNL     1     -15.857   4.879  23.917  0.00  0.00    +0.201 A 
ATOM     12  C   UNL     1     -14.234   5.423  22.686  0.00  0.00    +0.110 A 
ATOM     13  C   UNL     1     -15.087   6.513  22.763  0.00  0.00    +0.155 A 
ATOM     17  C   UNL     1     -13.065   5.529  21.918  0.00  0.00    +0.035 A 
ATOM     18  C   UNL     1     -14.875   7.731  22.128  0.00  0.00    +0.049 A 
ATOM     20  C   UNL     1     -12.817   6.743  21.262  0.00  0.00    -0.048 A 
ATOM     21  C   UNL     1     -13.706   7.821  21.366  0.00  0.00    +0.007 A 
ATOM     24  C   UNL     1     -11.581   6.889  20.436  0.00  0.00    +0.044 C 
ENDBRANCH   5  10
BRANCH   2   9
ATOM      9  C   UNL     1     -16.529   1.536  27.323  0.00  0.00    +0.121 C 
BRANCH   9  11
ATOM      4  N   UNL     1     -17.061   3.330  30.590  0.00  0.00    -0.255 NA
ATOM     11  C   UNL     1     -16.247   2.164  28.640  0.00  0.00    -0.015 A 
ATOM     14  C   UNL     1     -14.962   2.190  29.163  0.00  0.00    +0.016 A 
ATOM     15  C   UNL     1     -17.252   2.744  29.387  0.00  0.00    +0.116 A 
ATOM     16  C   UNL     1     -14.720   2.789  30.408  0.00  0.00    +0.001 A 
ATOM     19  C   UNL     1     -15.813   3.354  31.096  0.00  0.00    +0.071 A 
ATOM     22  C   UNL     1     -13.431   2.832  30.965  0.00  0.00    +0.010 A 
ATOM     23  C   UNL     1     -15.572   3.949  32.332  0.00  0.00    +0.028 A 
ATOM     25  C   UNL     1     -13.218   3.432  32.202  0.00  0.00    +0.001 A 
ATOM     26  C   UNL     1     -14.290   3.991  32.886  0.00  0.00    +0.002 A 
ENDBRANCH   9  11
ENDBRANCH   2   9
TORSDOF 3
ENDMDL
MODEL 9
REMARK VINA RESULT:      -7.1     28.551     31.504
REMARK  Name = 51137049
REMARK  4 active torsions:
REMARK  status: ('A' for Active; 'I' for Inactive)
REMARK    1  A    between atoms: N_2  and  C_9
REMARK    2  A    between atoms: C_5  and  C_10
REMARK    3  A    between atoms: C_9  and  C_11
REMARK    4  A    between atoms: C_20  and  C_24
REMARK                            x       y       z     vdW  Elec       q    Type
REMARK                         _______ _______ _______ _____ _____    ______ ____
ROOT
ATOM      2  N   UNL     1     -10.231  -8.606  16.002  0.00  0.00    -0.297 NA
ATOM      5  C   UNL     1     -11.891  -6.965  15.778  0.00  0.00    +0.090 C 
ATOM      6  C   UNL     1     -12.550  -8.351  15.885  0.00  0.00    +0.029 C 
ATOM      7  C   UNL     1     -10.418  -7.257  15.463  0.00  0.00    +0.097 C 
ATOM      8  C   UNL     1     -11.429  -9.342  15.598  0.00  0.00    +0.085 C 
ENDROOT
BRANCH   5  10
ATOM      1  O   UNL     1     -11.685  -5.413  13.911  0.00  0.00    -0.439 OA
ATOM      3  N   UNL     1     -13.807  -5.739  14.634  0.00  0.00    -0.213 NA
ATOM     10  C   UNL     1     -12.534  -6.032  14.778  0.00  0.00    +0.201 A 
ATOM     12  C   UNL     1     -13.812  -4.851  13.586  0.00  0.00    +0.110 A 
ATOM     13  C   UNL     1     -12.514  -4.649  13.140  0.00  0.00    +0.155 A 
ATOM     17  C   UNL     1     -14.861  -4.172  12.950  0.00  0.00    +0.035 A 
ATOM     18  C   UNL     1     -12.159  -3.809  12.091  0.00  0.00    +0.049 A 
ATOM     20  C   UNL     1     -14.542  -3.315  11.887  0.00  0.00    -0.048 A 
ATOM     21  C   UNL     1     -13.217  -3.139  11.468  0.00  0.00    +0.007 A 
ATOM     24  C   UNL     1     -15.637  -2.577  11.189  0.00  0.00    +0.044 C 
ENDBRANCH   5  10
BRANCH   2   9
ATOM      9  C   UNL     1      -9.008  -9.232  15.521  0.00  0.00    +0.121 C 
BRANCH   9  11
ATOM      4  N   UNL     1      -8.028 -10.533  18.916  0.00  0.00    -0.255 NA
ATOM     11  C   UNL     1      -8.187  -9.799  16.622  0.00  0.00    -0.015 A 
ATOM     14  C   UNL     1      -6.852 -10.126  16.427  0.00  0.00    +0.016 A 
ATOM     15  C   UNL     1      -8.722 -10.020  17.874  0.00  0.00    +0.116 A 
ATOM     16  C   UNL     1      -6.097 -10.660  17.481  0.00  0.00    +0.001 A 
ATOM     19  C   UNL     1      -6.733 -10.849  18.725  0.00  0.00    +0.071 A 
ATOM     22  C   UNL     1      -4.744 -11.001  17.317  0.00  0.00    +0.010 A 
ATOM     23  C   UNL     1      -5.982 -11.379  19.771  0.00  0.00    +0.028 A 
ATOM     25  C   UNL     1      -4.017 -11.530  18.379  0.00  0.00    +0.001 A 
ATOM     26  C   UNL     1      -4.637 -11.718  19.607  0.00  0.00    +0.002 A 
ENDBRANCH   9  11
ENDBRANCH   2   9
TORSDOF 3
ENDMDL
MODEL 10
REMARK VINA RESULT:      -7.1     26.533     29.535
REMARK  Name = 51137049
REMARK  4 active torsions:
REMARK  status: ('A' for Active; 'I' for Inactive)
REMARK    1  A    between atoms: N_2  and  C_9
REMARK    2  A    between atoms: C_5  and  C_10
REMARK    3  A    between atoms: C_9  and  C_11
REMARK    4  A    between atoms: C_20  and  C_24
REMARK                            x       y       z     vdW  Elec       q    Type
REMARK                         _______ _______ _______ _____ _____    ______ ____
ROOT
ATOM      2  N   UNL     1     -14.814   6.939  21.837  0.00  0.00    -0.297 NA
ATOM      5  C   UNL     1     -15.424   4.758  22.448  0.00  0.00    +0.090 C 
ATOM      6  C   UNL     1     -16.596   5.434  21.715  0.00  0.00    +0.029 C 
ATOM      7  C   UNL     1     -14.487   5.912  22.828  0.00  0.00    +0.097 C 
ATOM      8  C   UNL     1     -16.274   6.922  21.746  0.00  0.00    +0.085 C 
ENDROOT
BRANCH   5  10
ATOM      1  O   UNL     1     -16.477   2.749  23.338  0.00  0.00    -0.439 OA
ATOM      3  N   UNL     1     -15.619   4.138  24.909  0.00  0.00    -0.213 NA
ATOM     10  C   UNL     1     -15.822   3.907  23.631  0.00  0.00    +0.201 A 
ATOM     12  C   UNL     1     -16.184   3.045  25.522  0.00  0.00    +0.110 A 
ATOM     13  C   UNL     1     -16.709   2.193  24.563  0.00  0.00    +0.155 A 
ATOM     17  C   UNL     1     -16.296   2.695  26.875  0.00  0.00    +0.035 A 
ATOM     18  C   UNL     1     -17.353   0.992  24.838  0.00  0.00    +0.049 A 
ATOM     20  C   UNL     1     -16.939   1.491  27.192  0.00  0.00    -0.048 A 
ATOM     21  C   UNL     1     -17.457   0.658  26.192  0.00  0.00    +0.007 A 
ATOM     24  C   UNL     1     -17.075   1.089  28.625  0.00  0.00    +0.044 C 
ENDBRANCH   5  10
BRANCH   2   9
ATOM      9  C   UNL     1     -14.297   8.249  22.202  0.00  0.00    +0.121 C 
BRANCH   9  11
ATOM      4  N   UNL     1     -11.642  10.424  20.653  0.00  0.00    -0.255 NA
ATOM     11  C   UNL     1     -13.246   8.728  21.267  0.00  0.00    -0.015 A 
ATOM     14  C   UNL     1     -12.874   7.979  20.160  0.00  0.00    +0.016 A 
ATOM     15  C   UNL     1     -12.605   9.934  21.466  0.00  0.00    +0.116 A 
ATOM     16  C   UNL     1     -11.879   8.451  19.291  0.00  0.00    +0.001 A 
ATOM     19  C   UNL     1     -11.282   9.696  19.579  0.00  0.00    +0.071 A 
ATOM     22  C   UNL     1     -11.480   7.717  18.162  0.00  0.00    +0.010 A 
ATOM     23  C   UNL     1     -10.296  10.165  18.716  0.00  0.00    +0.028 A 
ATOM     25  C   UNL     1     -10.491   8.209  17.315  0.00  0.00    +0.001 A 
ATOM     26  C   UNL     1      -9.899   9.435  17.593  0.00  0.00    +0.002 A 
ENDBRANCH   9  11
ENDBRANCH   2   9
TORSDOF 3
ENDMDL
