MODEL 1
REMARK VINA RESULT:      -7.6      0.000      0.000
REMARK  Name = 28960388
REMARK  7 active torsions:
REMARK  status: ('A' for Active; 'I' for Inactive)
REMARK    1  A    between atoms: O_3  and  C_8
REMARK    2  A    between atoms: N_5  and  C_7
REMARK    3  A    between atoms: N_6  and  C_9
REMARK    4  A    between atoms: N_6  and  C_19
REMARK    5  A    between atoms: C_14  and  C_18
REMARK    6  A    between atoms: C_18  and  C_20
REMARK    7  A    between atoms: C_19  and  C_21
REMARK                            x       y       z     vdW  Elec       q    Type
REMARK                         _______ _______ _______ _____ _____    ______ ____
ROOT
ATOM      1  O   UNL     1      13.161   9.487  20.017  0.00  0.00    -0.343 OA
ATOM      2  O   UNL     1      11.653   8.368  21.378  0.00  0.00    -0.347 OA
ATOM      7  C   UNL     1      13.681   7.235  20.711  0.00  0.00    +0.143 C 
ATOM      8  C   UNL     1      12.978   6.669  19.455  0.00  0.00    +0.156 C 
ATOM      9  C   UNL     1      12.490   7.758  18.467  0.00  0.00    +0.116 C 
ATOM     10  C   UNL     1      13.051   8.578  21.121  0.00  0.00    +0.270 C 
ATOM     11  C   UNL     1      12.077   9.065  19.182  0.00  0.00    +0.166 C 
ATOM     15  C   UNL     1      10.983   8.888  20.219  0.00  0.00    +0.196 C 
ENDROOT
BRANCH   7   5
ATOM      5  N   UNL     1      15.114   7.407  20.468  0.00  0.00    -0.293 NA
ATOM     12  C   UNL     1      15.695   6.175  19.920  0.00  0.00    +0.085 C 
ATOM     13  C   UNL     1      15.799   7.812  21.703  0.00  0.00    +0.085 C 
ATOM     14  C   UNL     1      17.958   6.810  20.850  0.00  0.00    -0.004 C 
ATOM     16  C   UNL     1      17.181   6.355  19.610  0.00  0.00    +0.019 C 
ATOM     17  C   UNL     1      17.290   8.050  21.455  0.00  0.00    +0.019 C 
BRANCH  14  18
ATOM     18  C   UNL     1      19.421   7.084  20.513  0.00  0.00    +0.038 C 
BRANCH  18  20
ATOM     20  C   UNL     1      20.333   6.048  21.110  0.00  0.00    -0.047 A 
ATOM     22  C   UNL     1      20.963   6.293  22.331  0.00  0.00    +0.003 A 
ATOM     23  C   UNL     1      20.549   4.843  20.443  0.00  0.00    +0.003 A 
ATOM     25  C   UNL     1      21.808   5.332  22.884  0.00  0.00    +0.000 A 
ATOM     26  C   UNL     1      21.395   3.881  20.998  0.00  0.00    +0.000 A 
ATOM     27  C   UNL     1      22.025   4.126  22.218  0.00  0.00    +0.000 A 
ENDBRANCH  18  20
ENDBRANCH  14  18
ENDBRANCH   7   5
BRANCH   8   3
ATOM      3  O   UNL     1      11.841   5.913  19.898  0.00  0.00    -0.388 OA
ATOM     31  H   UNL     1      12.084   5.482  20.735  0.00  0.00    +0.210 HD
ENDBRANCH   8   3
BRANCH   9   6
ATOM      6  N   UNL     1      13.540   8.080  17.495  0.00  0.00    -0.302 NA
ATOM     30  H   UNL     1      14.338   8.488  17.980  0.00  0.00    +0.123 HD
BRANCH   6  19
ATOM     19  C   UNL     1      13.053   9.036  16.515  0.00  0.00    +0.156 C 
BRANCH  19  21
ATOM      4  O   UNL     1      14.650   9.876  14.882  0.00  0.00    -0.467 OA
ATOM     21  C   UNL     1      14.115  10.027  16.123  0.00  0.00    +0.119 A 
ATOM     24  C   UNL     1      14.688  11.098  16.768  0.00  0.00    +0.046 A 
ATOM     28  C   UNL     1      15.636  11.638  15.868  0.00  0.00    +0.041 A 
ATOM     29  C   UNL     1      15.575  10.860  14.735  0.00  0.00    +0.195 A 
ENDBRANCH  19  21
ENDBRANCH   6  19
ENDBRANCH   9   6
TORSDOF 7
ENDMDL
MODEL 2
REMARK VINA RESULT:      -7.3      3.599      7.869
REMARK  Name = 28960388
REMARK  7 active torsions:
REMARK  status: ('A' for Active; 'I' for Inactive)
REMARK    1  A    between atoms: O_3  and  C_8
REMARK    2  A    between atoms: N_5  and  C_7
REMARK    3  A    between atoms: N_6  and  C_9
REMARK    4  A    between atoms: N_6  and  C_19
REMARK    5  A    between atoms: C_14  and  C_18
REMARK    6  A    between atoms: C_18  and  C_20
REMARK    7  A    between atoms: C_19  and  C_21
REMARK                            x       y       z     vdW  Elec       q    Type
REMARK                         _______ _______ _______ _____ _____    ______ ____
ROOT
ATOM      1  O   UNL     1      14.259   9.716  18.639  0.00  0.00    -0.343 OA
ATOM      2  O   UNL     1      12.807   9.641  16.831  0.00  0.00    -0.347 OA
ATOM      7  C   UNL     1      11.988   8.987  19.010  0.00  0.00    +0.143 C 
ATOM      8  C   UNL     1      12.400   7.520  18.749  0.00  0.00    +0.156 C 
ATOM      9  C   UNL     1      13.923   7.324  18.544  0.00  0.00    +0.116 C 
ATOM     10  C   UNL     1      12.904   9.950  18.232  0.00  0.00    +0.270 C 
ATOM     11  C   UNL     1      14.594   8.548  17.880  0.00  0.00    +0.166 C 
ATOM     15  C   UNL     1      14.013   8.921  16.529  0.00  0.00    +0.196 C 
ENDROOT
BRANCH   7   5
ATOM      5  N   UNL     1      12.041   9.293  20.440  0.00  0.00    -0.293 NA
ATOM     12  C   UNL     1      10.870   8.734  21.129  0.00  0.00    +0.085 C 
ATOM     13  C   UNL     1      12.138  10.743  20.652  0.00  0.00    +0.085 C 
ATOM     14  C   UNL     1      11.072  10.495  22.932  0.00  0.00    -0.004 C 
ATOM     16  C   UNL     1      10.937   8.998  22.634  0.00  0.00    +0.019 C 
ATOM     17  C   UNL     1      12.249  11.077  22.141  0.00  0.00    +0.019 C 
BRANCH  14  18
ATOM     18  C   UNL     1      11.238  10.745  24.428  0.00  0.00    +0.038 C 
BRANCH  18  20
ATOM     20  C   UNL     1      11.221  12.214  24.751  0.00  0.00    -0.047 A 
ATOM     22  C   UNL     1      12.229  12.766  25.541  0.00  0.00    +0.003 A 
ATOM     23  C   UNL     1      10.197  13.024  24.260  0.00  0.00    +0.003 A 
ATOM     25  C   UNL     1      12.213  14.128  25.840  0.00  0.00    +0.000 A 
ATOM     26  C   UNL     1      10.182  14.387  24.559  0.00  0.00    +0.000 A 
ATOM     27  C   UNL     1      11.189  14.939  25.350  0.00  0.00    +0.000 A 
ENDBRANCH  18  20
ENDBRANCH  14  18
ENDBRANCH   7   5
BRANCH   8   3
ATOM      3  O   UNL     1      11.721   7.084  17.562  0.00  0.00    -0.388 OA
ATOM     31  H   UNL     1      11.597   7.862  16.992  0.00  0.00    +0.210 HD
ENDBRANCH   8   3
BRANCH   9   6
ATOM      6  N   UNL     1      14.588   7.077  19.828  0.00  0.00    -0.302 NA
ATOM     30  H   UNL     1      14.705   7.960  20.324  0.00  0.00    +0.123 HD
BRANCH   6  19
ATOM     19  C   UNL     1      15.898   6.484  19.618  0.00  0.00    +0.156 C 
BRANCH  19  21
ATOM      4  O   UNL     1      16.855   8.506  20.578  0.00  0.00    -0.467 OA
ATOM     21  C   UNL     1      16.957   7.156  20.449  0.00  0.00    +0.119 A 
ATOM     24  C   UNL     1      18.052   6.688  21.137  0.00  0.00    +0.046 A 
ATOM     28  C   UNL     1      18.662   7.821  21.725  0.00  0.00    +0.041 A 
ATOM     29  C   UNL     1      17.896   8.902  21.355  0.00  0.00    +0.195 A 
ENDBRANCH  19  21
ENDBRANCH   6  19
ENDBRANCH   9   6
TORSDOF 7
ENDMDL
MODEL 3
REMARK VINA RESULT:      -6.6     12.931     14.906
REMARK  Name = 28960388
REMARK  7 active torsions:
REMARK  status: ('A' for Active; 'I' for Inactive)
REMARK    1  A    between atoms: O_3  and  C_8
REMARK    2  A    between atoms: N_5  and  C_7
REMARK    3  A    between atoms: N_6  and  C_9
REMARK    4  A    between atoms: N_6  and  C_19
REMARK    5  A    between atoms: C_14  and  C_18
REMARK    6  A    between atoms: C_18  and  C_20
REMARK    7  A    between atoms: C_19  and  C_21
REMARK                            x       y       z     vdW  Elec       q    Type
REMARK                         _______ _______ _______ _____ _____    ______ ____
ROOT
ATOM      1  O   UNL     1      10.322   8.212   5.596  0.00  0.00    -0.343 OA
ATOM      2  O   UNL     1       9.681   8.216   7.825  0.00  0.00    -0.347 OA
ATOM      7  C   UNL     1      11.979   7.705   7.276  0.00  0.00    +0.143 C 
ATOM      8  C   UNL     1      11.643   6.199   7.175  0.00  0.00    +0.156 C 
ATOM      9  C   UNL     1      10.621   5.859   6.062  0.00  0.00    +0.116 C 
ATOM     10  C   UNL     1      10.747   8.557   6.922  0.00  0.00    +0.270 C 
ATOM     11  C   UNL     1       9.601   6.997   5.826  0.00  0.00    +0.166 C 
ATOM     15  C   UNL     1       8.801   7.381   7.057  0.00  0.00    +0.196 C 
ENDROOT
BRANCH   7   5
ATOM      5  N   UNL     1      13.094   8.047   6.392  0.00  0.00    -0.293 NA
ATOM     12  C   UNL     1      14.171   7.055   6.514  0.00  0.00    +0.085 C 
ATOM     13  C   UNL     1      13.585   9.400   6.684  0.00  0.00    +0.085 C 
ATOM     14  C   UNL     1      15.866   8.782   5.783  0.00  0.00    -0.004 C 
ATOM     16  C   UNL     1      15.321   7.368   5.557  0.00  0.00    +0.019 C 
ATOM     17  C   UNL     1      14.716   9.795   5.732  0.00  0.00    +0.019 C 
BRANCH  14  18
ATOM     18  C   UNL     1      16.945   9.126   4.761  0.00  0.00    +0.038 C 
BRANCH  18  20
ATOM     20  C   UNL     1      18.296   8.621   5.188  0.00  0.00    -0.047 A 
ATOM     22  C   UNL     1      19.090   7.906   4.291  0.00  0.00    +0.003 A 
ATOM     23  C   UNL     1      18.754   8.866   6.482  0.00  0.00    +0.003 A 
ATOM     25  C   UNL     1      20.342   7.438   4.687  0.00  0.00    +0.000 A 
ATOM     26  C   UNL     1      20.008   8.398   6.879  0.00  0.00    +0.000 A 
ATOM     27  C   UNL     1      20.802   7.683   5.982  0.00  0.00    +0.000 A 
ENDBRANCH  18  20
ENDBRANCH  14  18
ENDBRANCH   7   5
BRANCH   8   3
ATOM      3  O   UNL     1      11.095   5.792   8.437  0.00  0.00    -0.388 OA
ATOM     31  H   UNL     1      10.705   6.578   8.855  0.00  0.00    +0.210 HD
ENDBRANCH   8   3
BRANCH   9   6
ATOM      6  N   UNL     1      11.309   5.591   4.795  0.00  0.00    -0.302 NA
ATOM     30  H   UNL     1      11.463   6.469   4.300  0.00  0.00    +0.123 HD
BRANCH   6  19
ATOM     19  C   UNL     1      10.508   4.718   3.954  0.00  0.00    +0.156 C 
BRANCH  19  21
ATOM      4  O   UNL     1      12.055   3.672   2.392  0.00  0.00    -0.467 OA
ATOM     21  C   UNL     1      11.076   4.600   2.566  0.00  0.00    +0.119 A 
ATOM     24  C   UNL     1      10.813   5.250   1.382  0.00  0.00    +0.046 A 
ATOM     28  C   UNL     1      11.686   4.687   0.422  0.00  0.00    +0.041 A 
ATOM     29  C   UNL     1      12.420   3.732   1.086  0.00  0.00    +0.195 A 
ENDBRANCH  19  21
ENDBRANCH   6  19
ENDBRANCH   9   6
TORSDOF 7
ENDMDL
MODEL 4
REMARK VINA RESULT:      -6.4     13.542     17.601
REMARK  Name = 28960388
REMARK  7 active torsions:
REMARK  status: ('A' for Active; 'I' for Inactive)
REMARK    1  A    between atoms: O_3  and  C_8
REMARK    2  A    between atoms: N_5  and  C_7
REMARK    3  A    between atoms: N_6  and  C_9
REMARK    4  A    between atoms: N_6  and  C_19
REMARK    5  A    between atoms: C_14  and  C_18
REMARK    6  A    between atoms: C_18  and  C_20
REMARK    7  A    between atoms: C_19  and  C_21
REMARK                            x       y       z     vdW  Elec       q    Type
REMARK                         _______ _______ _______ _____ _____    ______ ____
ROOT
ATOM      1  O   UNL     1      10.387   5.043   6.731  0.00  0.00    -0.343 OA
ATOM      2  O   UNL     1       8.559   6.442   6.447  0.00  0.00    -0.347 OA
ATOM      7  C   UNL     1      10.288   6.429   4.757  0.00  0.00    +0.143 C 
ATOM      8  C   UNL     1      11.046   7.558   5.493  0.00  0.00    +0.156 C 
ATOM      9  C   UNL     1      11.527   7.167   6.913  0.00  0.00    +0.116 C 
ATOM     10  C   UNL     1       9.481   5.581   5.758  0.00  0.00    +0.270 C 
ATOM     11  C   UNL     1      10.577   6.162   7.604  0.00  0.00    +0.166 C 
ATOM     15  C   UNL     1       9.146   6.650   7.741  0.00  0.00    +0.196 C 
ENDROOT
BRANCH   7   5
ATOM      5  N   UNL     1      11.219   5.577   4.016  0.00  0.00    -0.293 NA
ATOM     12  C   UNL     1      12.109   6.393   3.179  0.00  0.00    +0.085 C 
ATOM     13  C   UNL     1      10.485   4.594   3.208  0.00  0.00    +0.085 C 
ATOM     14  C   UNL     1      12.428   4.448   1.596  0.00  0.00    -0.004 C 
ATOM     16  C   UNL     1      13.124   5.522   2.439  0.00  0.00    +0.019 C 
ATOM     17  C   UNL     1      11.445   3.660   2.469  0.00  0.00    +0.019 C 
BRANCH  14  18
ATOM     18  C   UNL     1      13.445   3.519   0.940  0.00  0.00    +0.038 C 
BRANCH  18  20
ATOM     20  C   UNL     1      13.348   3.561  -0.561  0.00  0.00    -0.047 A 
ATOM     22  C   UNL     1      12.357   2.829  -1.217  0.00  0.00    +0.003 A 
ATOM     23  C   UNL     1      14.249   4.330  -1.297  0.00  0.00    +0.003 A 
ATOM     25  C   UNL     1      12.267   2.868  -2.607  0.00  0.00    +0.000 A 
ATOM     26  C   UNL     1      14.157   4.369  -2.689  0.00  0.00    +0.000 A 
ATOM     27  C   UNL     1      13.167   3.637  -3.344  0.00  0.00    +0.000 A 
ENDBRANCH  18  20
ENDBRANCH  14  18
ENDBRANCH   7   5
BRANCH   8   3
ATOM      3  O   UNL     1      10.155   8.677   5.605  0.00  0.00    -0.388 OA
ATOM     31  H   UNL     1       9.412   8.523   4.997  0.00  0.00    +0.210 HD
ENDBRANCH   8   3
BRANCH   9   6
ATOM      6  N   UNL     1      12.865   6.570   6.859  0.00  0.00    -0.302 NA
ATOM     30  H   UNL     1      12.977   5.918   7.634  0.00  0.00    +0.123 HD
BRANCH   6  19
ATOM     19  C   UNL     1      13.887   7.598   6.963  0.00  0.00    +0.156 C 
BRANCH  19  21
ATOM      4  O   UNL     1      15.390   6.955   5.160  0.00  0.00    -0.467 OA
ATOM     21  C   UNL     1      14.525   7.891   5.632  0.00  0.00    +0.119 A 
ATOM     24  C   UNL     1      14.421   8.941   4.749  0.00  0.00    +0.046 A 
ATOM     28  C   UNL     1      15.277   8.631   3.667  0.00  0.00    +0.041 A 
ATOM     29  C   UNL     1      15.843   7.413   3.964  0.00  0.00    +0.195 A 
ENDBRANCH  19  21
ENDBRANCH   6  19
ENDBRANCH   9   6
TORSDOF 7
ENDMDL
MODEL 5
REMARK VINA RESULT:      -6.4     27.078     29.190
REMARK  Name = 28960388
REMARK  7 active torsions:
REMARK  status: ('A' for Active; 'I' for Inactive)
REMARK    1  A    between atoms: O_3  and  C_8
REMARK    2  A    between atoms: N_5  and  C_7
REMARK    3  A    between atoms: N_6  and  C_9
REMARK    4  A    between atoms: N_6  and  C_19
REMARK    5  A    between atoms: C_14  and  C_18
REMARK    6  A    between atoms: C_18  and  C_20
REMARK    7  A    between atoms: C_19  and  C_21
REMARK                            x       y       z     vdW  Elec       q    Type
REMARK                         _______ _______ _______ _____ _____    ______ ____
ROOT
ATOM      1  O   UNL     1      -4.745 -10.301  18.156  0.00  0.00    -0.343 OA
ATOM      2  O   UNL     1      -4.951 -12.440  19.030  0.00  0.00    -0.347 OA
ATOM      7  C   UNL     1      -4.947 -12.160  16.629  0.00  0.00    +0.143 C 
ATOM      8  C   UNL     1      -6.486 -12.007  16.623  0.00  0.00    +0.156 C 
ATOM      9  C   UNL     1      -6.997 -10.779  17.417  0.00  0.00    +0.116 C 
ATOM     10  C   UNL     1      -4.363 -11.671  17.967  0.00  0.00    +0.270 C 
ATOM     11  C   UNL     1      -6.092 -10.436  18.623  0.00  0.00    +0.166 C 
ATOM     15  C   UNL     1      -5.927 -11.568  19.620  0.00  0.00    +0.196 C 
ENDROOT
BRANCH   7   5
ATOM      5  N   UNL     1      -4.349 -11.415  15.520  0.00  0.00    -0.293 NA
ATOM     12  C   UNL     1      -5.123 -11.616  14.288  0.00  0.00    +0.085 C 
ATOM     13  C   UNL     1      -2.946 -11.809  15.335  0.00  0.00    +0.085 C 
ATOM     14  C   UNL     1      -3.066 -11.138  12.899  0.00  0.00    -0.004 C 
ATOM     16  C   UNL     1      -4.542 -10.801  13.132  0.00  0.00    +0.019 C 
ATOM     17  C   UNL     1      -2.289 -11.000  14.214  0.00  0.00    +0.019 C 
BRANCH  14  18
ATOM     18  C   UNL     1      -2.465 -10.252  11.812  0.00  0.00    +0.038 C 
BRANCH  18  20
ATOM     20  C   UNL     1      -3.302 -10.261  10.562  0.00  0.00    -0.047 A 
ATOM     22  C   UNL     1      -3.686 -11.473   9.987  0.00  0.00    +0.003 A 
ATOM     23  C   UNL     1      -3.695  -9.057   9.978  0.00  0.00    +0.003 A 
ATOM     25  C   UNL     1      -4.463 -11.480   8.829  0.00  0.00    +0.000 A 
ATOM     26  C   UNL     1      -4.473  -9.064   8.820  0.00  0.00    +0.000 A 
ATOM     27  C   UNL     1      -4.856 -10.276   8.245  0.00  0.00    +0.000 A 
ENDBRANCH  18  20
ENDBRANCH  14  18
ENDBRANCH   7   5
BRANCH   8   3
ATOM      3  O   UNL     1      -7.042 -13.193  17.210  0.00  0.00    -0.388 OA
ATOM     31  H   UNL     1      -8.007 -13.082  17.237  0.00  0.00    +0.210 HD
ENDBRANCH   8   3
BRANCH   9   6
ATOM      6  N   UNL     1      -7.072  -9.599  16.550  0.00  0.00    -0.302 NA
ATOM     30  H   UNL     1      -7.156  -8.761  17.124  0.00  0.00    +0.123 HD
BRANCH   6  19
ATOM     19  C   UNL     1      -8.229  -9.681  15.675  0.00  0.00    +0.156 C 
BRANCH  19  21
ATOM      4  O   UNL     1     -10.009  -8.151  15.028  0.00  0.00    -0.467 OA
ATOM     21  C   UNL     1      -9.289  -8.682  16.053  0.00  0.00    +0.119 A 
ATOM     24  C   UNL     1      -9.710  -8.165  17.256  0.00  0.00    +0.046 A 
ATOM     28  C   UNL     1     -10.753  -7.259  16.952  0.00  0.00    +0.041 A 
ATOM     29  C   UNL     1     -10.897  -7.287  15.584  0.00  0.00    +0.195 A 
ENDBRANCH  19  21
ENDBRANCH   6  19
ENDBRANCH   9   6
TORSDOF 7
ENDMDL
MODEL 6
REMARK VINA RESULT:      -6.2     27.630     30.535
REMARK  Name = 28960388
REMARK  7 active torsions:
REMARK  status: ('A' for Active; 'I' for Inactive)
REMARK    1  A    between atoms: O_3  and  C_8
REMARK    2  A    between atoms: N_5  and  C_7
REMARK    3  A    between atoms: N_6  and  C_9
REMARK    4  A    between atoms: N_6  and  C_19
REMARK    5  A    between atoms: C_14  and  C_18
REMARK    6  A    between atoms: C_18  and  C_20
REMARK    7  A    between atoms: C_19  and  C_21
REMARK                            x       y       z     vdW  Elec       q    Type
REMARK                         _______ _______ _______ _____ _____    ______ ____
ROOT
ATOM      1  O   UNL     1     -15.341   4.775  24.122  0.00  0.00    -0.343 OA
ATOM      2  O   UNL     1     -16.715   3.346  22.918  0.00  0.00    -0.347 OA
ATOM      7  C   UNL     1     -15.834   5.312  21.821  0.00  0.00    +0.143 C 
ATOM      8  C   UNL     1     -17.066   6.136  22.262  0.00  0.00    +0.156 C 
ATOM      9  C   UNL     1     -17.217   6.265  23.798  0.00  0.00    +0.116 C 
ATOM     10  C   UNL     1     -15.552   4.186  22.832  0.00  0.00    +0.270 C 
ATOM     11  C   UNL     1     -16.684   5.025  24.552  0.00  0.00    +0.166 C 
ATOM     15  C   UNL     1     -17.349   3.720  24.152  0.00  0.00    +0.196 C 
ENDROOT
BRANCH   7   5
ATOM      5  N   UNL     1     -14.658   6.172  21.688  0.00  0.00    -0.293 NA
ATOM     12  C   UNL     1     -14.789   7.045  20.514  0.00  0.00    +0.085 C 
ATOM     13  C   UNL     1     -13.435   5.361  21.611  0.00  0.00    +0.085 C 
ATOM     14  C   UNL     1     -12.272   7.210  20.337  0.00  0.00    -0.004 C 
ATOM     16  C   UNL     1     -13.591   7.988  20.390  0.00  0.00    +0.019 C 
ATOM     17  C   UNL     1     -12.190   6.246  21.526  0.00  0.00    +0.019 C 
BRANCH  14  18
ATOM     18  C   UNL     1     -11.076   8.157  20.314  0.00  0.00    +0.038 C 
BRANCH  18  20
ATOM     20  C   UNL     1     -10.811   8.684  18.931  0.00  0.00    -0.047 A 
ATOM     22  C   UNL     1     -10.963   7.848  17.824  0.00  0.00    +0.003 A 
ATOM     23  C   UNL     1     -10.411  10.008  18.754  0.00  0.00    +0.003 A 
ATOM     25  C   UNL     1     -10.717   8.337  16.542  0.00  0.00    +0.000 A 
ATOM     26  C   UNL     1     -10.166  10.498  17.470  0.00  0.00    +0.000 A 
ATOM     27  C   UNL     1     -10.318   9.662  16.364  0.00  0.00    +0.000 A 
ENDBRANCH  18  20
ENDBRANCH  14  18
ENDBRANCH   7   5
BRANCH   8   3
ATOM      3  O   UNL     1     -18.234   5.482  21.743  0.00  0.00    -0.388 OA
ATOM     31  H   UNL     1     -18.131   4.528  21.902  0.00  0.00    +0.210 HD
ENDBRANCH   8   3
BRANCH   9   6
ATOM      6  N   UNL     1     -16.497   7.444  24.290  0.00  0.00    -0.302 NA
ATOM     30  H   UNL     1     -16.796   7.652  25.242  0.00  0.00    +0.123 HD
BRANCH   6  19
ATOM     19  C   UNL     1     -16.776   8.598  23.452  0.00  0.00    +0.156 C 
BRANCH  19  21
ATOM      4  O   UNL     1     -15.703  10.537  22.443  0.00  0.00    -0.467 OA
ATOM     21  C   UNL     1     -15.554   9.454  23.252  0.00  0.00    +0.119 A 
ATOM     24  C   UNL     1     -14.266   9.381  23.728  0.00  0.00    +0.046 A 
ATOM     28  C   UNL     1     -13.579  10.488  23.176  0.00  0.00    +0.041 A 
ATOM     29  C   UNL     1     -14.497  11.160  22.402  0.00  0.00    +0.195 A 
ENDBRANCH  19  21
ENDBRANCH   6  19
ENDBRANCH   9   6
TORSDOF 7
ENDMDL
MODEL 7
REMARK VINA RESULT:      -6.1      3.755      7.817
REMARK  Name = 28960388
REMARK  7 active torsions:
REMARK  status: ('A' for Active; 'I' for Inactive)
REMARK    1  A    between atoms: O_3  and  C_8
REMARK    2  A    between atoms: N_5  and  C_7
REMARK    3  A    between atoms: N_6  and  C_9
REMARK    4  A    between atoms: N_6  and  C_19
REMARK    5  A    between atoms: C_14  and  C_18
REMARK    6  A    between atoms: C_18  and  C_20
REMARK    7  A    between atoms: C_19  and  C_21
REMARK                            x       y       z     vdW  Elec       q    Type
REMARK                         _______ _______ _______ _____ _____    ______ ____
ROOT
ATOM      1  O   UNL     1      21.392   7.138  20.147  0.00  0.00    -0.343 OA
ATOM      2  O   UNL     1      21.942   5.396  21.576  0.00  0.00    -0.347 OA
ATOM      7  C   UNL     1      19.650   6.160  21.502  0.00  0.00    +0.143 C 
ATOM      8  C   UNL     1      19.932   7.182  22.628  0.00  0.00    +0.156 C 
ATOM      9  C   UNL     1      20.984   8.255  22.252  0.00  0.00    +0.116 C 
ATOM     10  C   UNL     1      20.928   5.893  20.687  0.00  0.00    +0.270 C 
ATOM     11  C   UNL     1      22.056   7.717  21.277  0.00  0.00    +0.166 C 
ATOM     15  C   UNL     1      22.820   6.512  21.794  0.00  0.00    +0.196 C 
ENDROOT
BRANCH   7   5
ATOM      5  N   UNL     1      18.586   6.642  20.621  0.00  0.00    -0.293 NA
ATOM     12  C   UNL     1      17.501   7.246  21.406  0.00  0.00    +0.085 C 
ATOM     13  C   UNL     1      18.084   5.550  19.777  0.00  0.00    +0.085 C 
ATOM     14  C   UNL     1      15.854   6.722  19.562  0.00  0.00    -0.004 C 
ATOM     16  C   UNL     1      16.405   7.803  20.497  0.00  0.00    +0.019 C 
ATOM     17  C   UNL     1      17.008   6.048  18.811  0.00  0.00    +0.019 C 
BRANCH  14  18
ATOM     18  C   UNL     1      14.833   7.305  18.590  0.00  0.00    +0.038 C 
BRANCH  18  20
ATOM     20  C   UNL     1      13.527   7.610  19.272  0.00  0.00    -0.047 A 
ATOM     22  C   UNL     1      12.872   8.816  19.017  0.00  0.00    +0.003 A 
ATOM     23  C   UNL     1      12.973   6.690  20.160  0.00  0.00    +0.003 A 
ATOM     25  C   UNL     1      11.662   9.099  19.650  0.00  0.00    +0.000 A 
ATOM     26  C   UNL     1      11.761   6.973  20.793  0.00  0.00    +0.000 A 
ATOM     27  C   UNL     1      11.106   8.178  20.538  0.00  0.00    +0.000 A 
ENDBRANCH  18  20
ENDBRANCH  14  18
ENDBRANCH   7   5
BRANCH   8   3
ATOM      3  O   UNL     1      20.413   6.451  23.766  0.00  0.00    -0.388 OA
ATOM     31  H   UNL     1      19.895   6.737  24.539  0.00  0.00    +0.210 HD
ENDBRANCH   8   3
BRANCH   9   6
ATOM      6  N   UNL     1      20.338   9.414  21.629  0.00  0.00    -0.302 NA
ATOM     30  H   UNL     1      21.051  10.054  21.280  0.00  0.00    +0.123 HD
BRANCH   6  19
ATOM     19  C   UNL     1      19.514  10.120  22.596  0.00  0.00    +0.156 C 
BRANCH  19  21
ATOM      4  O   UNL     1      18.315  10.797  20.588  0.00  0.00    -0.467 OA
ATOM     21  C   UNL     1      18.322  10.770  21.947  0.00  0.00    +0.119 A 
ATOM     24  C   UNL     1      17.188  11.369  22.447  0.00  0.00    +0.046 A 
ATOM     28  C   UNL     1      16.439  11.790  21.324  0.00  0.00    +0.041 A 
ATOM     29  C   UNL     1      17.166  11.419  20.217  0.00  0.00    +0.195 A 
ENDBRANCH  19  21
ENDBRANCH   6  19
ENDBRANCH   9   6
TORSDOF 7
ENDMDL
MODEL 8
REMARK VINA RESULT:      -6.1     29.768     32.955
REMARK  Name = 28960388
REMARK  7 active torsions:
REMARK  status: ('A' for Active; 'I' for Inactive)
REMARK    1  A    between atoms: O_3  and  C_8
REMARK    2  A    between atoms: N_5  and  C_7
REMARK    3  A    between atoms: N_6  and  C_9
REMARK    4  A    between atoms: N_6  and  C_19
REMARK    5  A    between atoms: C_14  and  C_18
REMARK    6  A    between atoms: C_18  and  C_20
REMARK    7  A    between atoms: C_19  and  C_21
REMARK                            x       y       z     vdW  Elec       q    Type
REMARK                         _______ _______ _______ _____ _____    ______ ____
ROOT
ATOM      1  O   UNL     1     -16.890   5.441  31.792  0.00  0.00    -0.343 OA
ATOM      2  O   UNL     1     -18.072   5.716  33.769  0.00  0.00    -0.347 OA
ATOM      7  C   UNL     1     -15.799   6.529  33.649  0.00  0.00    +0.143 C 
ATOM      8  C   UNL     1     -15.262   5.168  34.151  0.00  0.00    +0.156 C 
ATOM      9  C   UNL     1     -15.577   3.983  33.204  0.00  0.00    +0.116 C 
ATOM     10  C   UNL     1     -17.122   6.337  32.887  0.00  0.00    +0.270 C 
ATOM     11  C   UNL     1     -16.912   4.168  32.447  0.00  0.00    +0.166 C 
ATOM     15  C   UNL     1     -18.120   4.343  33.349  0.00  0.00    +0.196 C 
ENDROOT
BRANCH   7   5
ATOM      5  N   UNL     1     -14.815   7.186  32.788  0.00  0.00    -0.293 NA
ATOM     12  C   UNL     1     -13.469   7.072  33.363  0.00  0.00    +0.085 C 
ATOM     13  C   UNL     1     -15.181   8.592  32.571  0.00  0.00    +0.085 C 
ATOM     14  C   UNL     1     -12.756   9.173  32.151  0.00  0.00    -0.004 C 
ATOM     16  C   UNL     1     -12.421   7.707  32.448  0.00  0.00    +0.019 C 
ATOM     17  C   UNL     1     -14.192   9.281  31.628  0.00  0.00    +0.019 C 
BRANCH  14  18
ATOM     18  C   UNL     1     -11.764   9.773  31.159  0.00  0.00    +0.038 C 
BRANCH  18  20
ATOM     20  C   UNL     1     -10.675  10.541  31.858  0.00  0.00    -0.047 A 
ATOM     22  C   UNL     1      -9.968   9.951  32.906  0.00  0.00    +0.003 A 
ATOM     23  C   UNL     1     -10.374  11.842  31.459  0.00  0.00    +0.003 A 
ATOM     25  C   UNL     1      -8.959  10.663  33.554  0.00  0.00    +0.000 A 
ATOM     26  C   UNL     1      -9.363  12.554  32.106  0.00  0.00    +0.000 A 
ATOM     27  C   UNL     1      -8.656  11.966  33.154  0.00  0.00    +0.000 A 
ENDBRANCH  18  20
ENDBRANCH  14  18
ENDBRANCH   7   5
BRANCH   8   3
ATOM      3  O   UNL     1     -15.869   4.906  35.425  0.00  0.00    -0.388 OA
ATOM     31  H   UNL     1     -16.596   4.276  35.280  0.00  0.00    +0.210 HD
ENDBRANCH   8   3
BRANCH   9   6
ATOM      6  N   UNL     1     -14.508   3.818  32.213  0.00  0.00    -0.302 NA
ATOM     30  H   UNL     1     -14.917   3.737  31.283  0.00  0.00    +0.123 HD
BRANCH   6  19
ATOM     19  C   UNL     1     -13.738   2.616  32.489  0.00  0.00    +0.156 C 
BRANCH  19  21
ATOM      4  O   UNL     1     -14.925   0.544  32.020  0.00  0.00    -0.467 OA
ATOM     21  C   UNL     1     -14.085   1.499  31.542  0.00  0.00    +0.119 A 
ATOM     24  C   UNL     1     -13.724   1.219  30.245  0.00  0.00    +0.046 A 
ATOM     28  C   UNL     1     -14.384   0.015  29.904  0.00  0.00    +0.041 A 
ATOM     29  C   UNL     1     -15.102  -0.355  31.017  0.00  0.00    +0.195 A 
ENDBRANCH  19  21
ENDBRANCH   6  19
ENDBRANCH   9   6
TORSDOF 7
ENDMDL
MODEL 9
REMARK VINA RESULT:      -6.0     26.835     29.530
REMARK  Name = 28960388
REMARK  7 active torsions:
REMARK  status: ('A' for Active; 'I' for Inactive)
REMARK    1  A    between atoms: O_3  and  C_8
REMARK    2  A    between atoms: N_5  and  C_7
REMARK    3  A    between atoms: N_6  and  C_9
REMARK    4  A    between atoms: N_6  and  C_19
REMARK    5  A    between atoms: C_14  and  C_18
REMARK    6  A    between atoms: C_18  and  C_20
REMARK    7  A    between atoms: C_19  and  C_21
REMARK                            x       y       z     vdW  Elec       q    Type
REMARK                         _______ _______ _______ _____ _____    ______ ____
ROOT
ATOM      1  O   UNL     1      -3.756 -13.042  13.101  0.00  0.00    -0.343 OA
ATOM      2  O   UNL     1      -2.275 -14.103  14.537  0.00  0.00    -0.347 OA
ATOM      7  C   UNL     1      -3.471 -12.157  15.329  0.00  0.00    +0.143 C 
ATOM      8  C   UNL     1      -2.336 -11.230  14.832  0.00  0.00    +0.156 C 
ATOM      9  C   UNL     1      -2.116 -11.276  13.299  0.00  0.00    +0.116 C 
ATOM     10  C   UNL     1      -3.543 -13.429  14.466  0.00  0.00    +0.270 C 
ATOM     11  C   UNL     1      -2.436 -12.663  12.696  0.00  0.00    +0.166 C 
ATOM     15  C   UNL     1      -1.628 -13.802  13.291  0.00  0.00    +0.196 C 
ENDROOT
BRANCH   7   5
ATOM      5  N   UNL     1      -4.757 -11.459  15.301  0.00  0.00    -0.293 NA
ATOM     12  C   UNL     1      -4.734 -10.299  16.202  0.00  0.00    +0.085 C 
ATOM     13  C   UNL     1      -5.848 -12.379  15.649  0.00  0.00    +0.085 C 
ATOM     14  C   UNL     1      -7.244 -10.436  16.468  0.00  0.00    -0.004 C 
ATOM     16  C   UNL     1      -6.053  -9.528  16.144  0.00  0.00    +0.019 C 
ATOM     17  C   UNL     1      -7.207 -11.680  15.572  0.00  0.00    +0.019 C 
BRANCH  14  18
ATOM     18  C   UNL     1      -8.564  -9.687  16.312  0.00  0.00    +0.038 C 
BRANCH  18  20
ATOM     20  C   UNL     1      -9.454  -9.873  17.510  0.00  0.00    -0.047 A 
ATOM     22  C   UNL     1      -8.985 -10.567  18.627  0.00  0.00    +0.003 A 
ATOM     23  C   UNL     1     -10.748  -9.354  17.505  0.00  0.00    +0.003 A 
ATOM     25  C   UNL     1      -9.810 -10.739  19.737  0.00  0.00    +0.000 A 
ATOM     26  C   UNL     1     -11.573  -9.526  18.617  0.00  0.00    +0.000 A 
ATOM     27  C   UNL     1     -11.105 -10.219  19.733  0.00  0.00    +0.000 A 
ENDBRANCH  18  20
ENDBRANCH  14  18
ENDBRANCH   7   5
BRANCH   8   3
ATOM      3  O   UNL     1      -1.124 -11.645  15.479  0.00  0.00    -0.388 OA
ATOM     31  H   UNL     1      -1.371 -12.213  16.228  0.00  0.00    +0.210 HD
ENDBRANCH   8   3
BRANCH   9   6
ATOM      6  N   UNL     1      -2.958 -10.280  12.628  0.00  0.00    -0.302 NA
ATOM     30  H   UNL     1      -3.880 -10.678  12.451  0.00  0.00    +0.123 HD
BRANCH   6  19
ATOM     19  C   UNL     1      -2.370  -9.887  11.359  0.00  0.00    +0.156 C 
BRANCH  19  21
ATOM      4  O   UNL     1      -3.755 -11.086   9.755  0.00  0.00    -0.467 OA
ATOM     21  C   UNL     1      -3.387  -9.874  10.250  0.00  0.00    +0.119 A 
ATOM     24  C   UNL     1      -4.056  -8.864   9.598  0.00  0.00    +0.046 A 
ATOM     28  C   UNL     1      -4.887  -9.495   8.643  0.00  0.00    +0.041 A 
ATOM     29  C   UNL     1      -4.667 -10.846   8.778  0.00  0.00    +0.195 A 
ENDBRANCH  19  21
ENDBRANCH   6  19
ENDBRANCH   9   6
TORSDOF 7
ENDMDL
MODEL 10
REMARK VINA RESULT:      -5.9     29.740     33.233
REMARK  Name = 28960388
REMARK  7 active torsions:
REMARK  status: ('A' for Active; 'I' for Inactive)
REMARK    1  A    between atoms: O_3  and  C_8
REMARK    2  A    between atoms: N_5  and  C_7
REMARK    3  A    between atoms: N_6  and  C_9
REMARK    4  A    between atoms: N_6  and  C_19
REMARK    5  A    between atoms: C_14  and  C_18
REMARK    6  A    between atoms: C_18  and  C_20
REMARK    7  A    between atoms: C_19  and  C_21
REMARK                            x       y       z     vdW  Elec       q    Type
REMARK                         _______ _______ _______ _____ _____    ______ ____
ROOT
ATOM      1  O   UNL     1     -17.307   5.848  30.652  0.00  0.00    -0.343 OA
ATOM      2  O   UNL     1     -18.796   5.347  32.358  0.00  0.00    -0.347 OA
ATOM      7  C   UNL     1     -16.524   5.939  32.933  0.00  0.00    +0.143 C 
ATOM      8  C   UNL     1     -16.096   4.455  32.862  0.00  0.00    +0.156 C 
ATOM      9  C   UNL     1     -16.265   3.821  31.458  0.00  0.00    +0.116 C 
ATOM     10  C   UNL     1     -17.705   6.205  31.982  0.00  0.00    +0.270 C 
ATOM     11  C   UNL     1     -17.454   4.424  30.675  0.00  0.00    +0.166 C 
ATOM     15  C   UNL     1     -18.792   4.296  31.379  0.00  0.00    +0.196 C 
ENDROOT
BRANCH   7   5
ATOM      5  N   UNL     1     -15.403   6.818  32.596  0.00  0.00    -0.293 NA
ATOM     12  C   UNL     1     -14.160   6.319  33.199  0.00  0.00    +0.085 C 
ATOM     13  C   UNL     1     -15.684   8.195  33.022  0.00  0.00    +0.085 C 
ATOM     14  C   UNL     1     -13.204   8.660  33.199  0.00  0.00    -0.004 C 
ATOM     16  C   UNL     1     -12.968   7.196  32.812  0.00  0.00    +0.019 C 
ATOM     17  C   UNL     1     -14.545   9.138  32.628  0.00  0.00    +0.019 C 
BRANCH  14  18
ATOM     18  C   UNL     1     -12.058   9.547  32.722  0.00  0.00    +0.038 C 
BRANCH  18  20
ATOM     20  C   UNL     1     -10.977   9.665  33.762  0.00  0.00    -0.047 A 
ATOM     22  C   UNL     1      -9.672   9.976  33.379  0.00  0.00    +0.003 A 
ATOM     23  C   UNL     1     -11.280   9.463  35.108  0.00  0.00    +0.003 A 
ATOM     25  C   UNL     1      -8.671  10.086  34.344  0.00  0.00    +0.000 A 
ATOM     26  C   UNL     1     -10.278   9.574  36.073  0.00  0.00    +0.000 A 
ATOM     27  C   UNL     1      -8.973   9.885  35.691  0.00  0.00    +0.000 A 
ENDBRANCH  18  20
ENDBRANCH  14  18
ENDBRANCH   7   5
BRANCH   8   3
ATOM      3  O   UNL     1     -16.909   3.724  33.792  0.00  0.00    -0.388 OA
ATOM     31  H   UNL     1     -17.668   4.287  34.023  0.00  0.00    +0.210 HD
ENDBRANCH   8   3
BRANCH   9   6
ATOM      6  N   UNL     1     -15.049   4.008  30.660  0.00  0.00    -0.302 NA
ATOM     30  H   UNL     1     -15.229   3.728  29.696  0.00  0.00    +0.123 HD
BRANCH   6  19
ATOM     19  C   UNL     1     -13.964   3.195  31.185  0.00  0.00    +0.156 C 
BRANCH  19  21
ATOM      4  O   UNL     1     -13.697   1.203  29.811  0.00  0.00    -0.467 OA
ATOM     21  C   UNL     1     -14.204   1.727  30.959  0.00  0.00    +0.119 A 
ATOM     24  C   UNL     1     -14.850   0.755  31.688  0.00  0.00    +0.046 A 
ATOM     28  C   UNL     1     -14.733  -0.440  30.941  0.00  0.00    +0.041 A 
ATOM     29  C   UNL     1     -14.023  -0.116  29.808  0.00  0.00    +0.195 A 
ENDBRANCH  19  21
ENDBRANCH   6  19
ENDBRANCH   9   6
TORSDOF 7
ENDMDL
