MODEL 1
REMARK VINA RESULT:      -6.2      0.000      0.000
REMARK  Name = 40777855
REMARK  7 active torsions:
REMARK  status: ('A' for Active; 'I' for Inactive)
REMARK    1  A    between atoms: O_3  and  C_10
REMARK    2  A    between atoms: O_4  and  C_11
REMARK    3  A    between atoms: N_8  and  C_14
REMARK    4  A    between atoms: C_9  and  C_13
REMARK    5  A    between atoms: C_12  and  C_14
REMARK    6  A    between atoms: C_13  and  C_15
REMARK    7  A    between atoms: C_22  and  C_25
REMARK                            x       y       z     vdW  Elec       q    Type
REMARK                         _______ _______ _______ _____ _____    ______ ____
ROOT
ATOM      2  O   UNL     1      -5.782 -10.506  18.174  0.00  0.00    -0.366 OA
ATOM      9  C   UNL     1      -5.745 -11.784  18.850  0.00  0.00    +0.159 C 
ATOM     10  C   UNL     1      -4.559 -12.545  18.268  0.00  0.00    +0.175 C 
ATOM     11  C   UNL     1      -4.472 -11.970  16.868  0.00  0.00    +0.176 C 
ATOM     12  C   UNL     1      -4.804 -10.508  17.119  0.00  0.00    +0.167 C 
ENDROOT
BRANCH  10   3
ATOM      3  O   UNL     1      -3.398 -12.195  19.019  0.00  0.00    -0.387 OA
ATOM     31  H   UNL     1      -2.656 -12.129  18.394  0.00  0.00    +0.210 HD
ENDBRANCH  10   3
BRANCH  11   4
ATOM      4  O   UNL     1      -3.201 -12.130  16.276  0.00  0.00    -0.387 OA
ATOM     32  H   UNL     1      -2.562 -12.280  16.994  0.00  0.00    +0.210 HD
ENDBRANCH  11   4
BRANCH   9  13
ATOM     13  C   UNL     1      -7.078 -12.480  18.604  0.00  0.00    +0.130 C 
BRANCH  13  15
ATOM      5  O   UNL     1      -7.961 -10.883  20.117  0.00  0.00    -0.275 OA
ATOM      7  N   UNL     1      -9.442 -11.865  18.605  0.00  0.00    -0.271 N 
ATOM     15  C   UNL     1      -8.202 -11.658  19.191  0.00  0.00    +0.222 C 
ATOM     16  C   UNL     1      -9.729 -12.796  17.493  0.00  0.00    +0.118 C 
ATOM     17  C   UNL     1     -11.222 -12.691  17.168  0.00  0.00    +0.056 C 
ATOM     18  C   UNL     1     -10.645 -11.225  18.968  0.00  0.00    +0.039 A 
ATOM     19  C   UNL     1     -11.691 -11.679  18.161  0.00  0.00    -0.024 A 
ATOM     20  C   UNL     1     -10.876 -10.277  19.955  0.00  0.00    +0.024 A 
ATOM     21  C   UNL     1     -12.983 -11.201  18.318  0.00  0.00    +0.005 A 
ATOM     23  C   UNL     1     -12.176  -9.791  20.121  0.00  0.00    +0.002 A 
ATOM     24  C   UNL     1     -13.222 -10.248  19.309  0.00  0.00    +0.000 A 
ENDBRANCH  13  15
ENDBRANCH   9  13
BRANCH  12  14
ATOM     14  C   UNL     1      -5.367  -9.801  15.899  0.00  0.00    +0.138 C 
BRANCH  14   8
ATOM      6  O   UNL     1      -7.825 -11.053  15.103  0.00  0.00    -0.270 OA
ATOM      8  N   UNL     1      -6.693  -9.317  16.147  0.00  0.00    -0.309 N 
ATOM     22  C   UNL     1      -7.834  -9.992  15.722  0.00  0.00    +0.244 C 
ATOM     33  H   UNL     1      -6.774  -8.472  16.702  0.00  0.00    +0.149 HD
BRANCH  22  25
ATOM      1  F   UNL     1     -12.595  -9.414  14.916  0.00  0.00    -0.205 F 
ATOM     25  C   UNL     1      -9.134  -9.345  16.036  0.00  0.00    +0.039 A 
ATOM     26  C   UNL     1     -10.277  -9.690  15.314  0.00  0.00    +0.051 A 
ATOM     27  C   UNL     1      -9.212  -8.392  17.052  0.00  0.00    +0.013 A 
ATOM     28  C   UNL     1     -11.497  -9.083  15.609  0.00  0.00    +0.124 A 
ATOM     29  C   UNL     1     -10.433  -7.784  17.346  0.00  0.00    +0.004 A 
ATOM     30  C   UNL     1     -11.575  -8.130  16.625  0.00  0.00    +0.038 A 
ENDBRANCH  22  25
ENDBRANCH  14   8
ENDBRANCH  12  14
TORSDOF 7
ENDMDL
MODEL 2
REMARK VINA RESULT:      -6.2     17.043     18.457
REMARK  Name = 40777855
REMARK  7 active torsions:
REMARK  status: ('A' for Active; 'I' for Inactive)
REMARK    1  A    between atoms: O_3  and  C_10
REMARK    2  A    between atoms: O_4  and  C_11
REMARK    3  A    between atoms: N_8  and  C_14
REMARK    4  A    between atoms: C_9  and  C_13
REMARK    5  A    between atoms: C_12  and  C_14
REMARK    6  A    between atoms: C_13  and  C_15
REMARK    7  A    between atoms: C_22  and  C_25
REMARK                            x       y       z     vdW  Elec       q    Type
REMARK                         _______ _______ _______ _____ _____    ______ ____
ROOT
ATOM      2  O   UNL     1     -15.597   2.832  24.597  0.00  0.00    -0.366 OA
ATOM      9  C   UNL     1     -16.798   2.029  24.645  0.00  0.00    +0.159 C 
ATOM     10  C   UNL     1     -17.581   2.350  23.377  0.00  0.00    +0.175 C 
ATOM     11  C   UNL     1     -17.149   3.775  23.092  0.00  0.00    +0.176 C 
ATOM     12  C   UNL     1     -15.679   3.728  23.475  0.00  0.00    +0.167 C 
ENDROOT
BRANCH  10   3
ATOM      3  O   UNL     1     -17.126   1.479  22.343  0.00  0.00    -0.387 OA
ATOM     31  H   UNL     1     -17.337   1.903  21.493  0.00  0.00    +0.210 HD
ENDBRANCH  10   3
BRANCH  11   4
ATOM      4  O   UNL     1     -17.334   4.157  21.746  0.00  0.00    -0.387 OA
ATOM     32  H   UNL     1     -18.011   3.570  21.367  0.00  0.00    +0.210 HD
ENDBRANCH  11   4
BRANCH   9  13
ATOM     13  C   UNL     1     -17.551   2.391  25.918  0.00  0.00    +0.130 C 
BRANCH  13  15
ATOM      5  O   UNL     1     -17.196   0.327  27.028  0.00  0.00    -0.275 OA
ATOM      7  N   UNL     1     -16.449   2.262  28.095  0.00  0.00    -0.271 N 
ATOM     15  C   UNL     1     -17.050   1.548  27.068  0.00  0.00    +0.222 C 
ATOM     16  C   UNL     1     -16.273   3.730  28.140  0.00  0.00    +0.118 C 
ATOM     17  C   UNL     1     -15.557   4.075  29.449  0.00  0.00    +0.056 C 
ATOM     18  C   UNL     1     -15.902   1.714  29.273  0.00  0.00    +0.039 A 
ATOM     19  C   UNL     1     -15.381   2.731  30.077  0.00  0.00    -0.024 A 
ATOM     20  C   UNL     1     -15.834   0.390  29.679  0.00  0.00    +0.024 A 
ATOM     21  C   UNL     1     -14.784   2.452  31.297  0.00  0.00    +0.005 A 
ATOM     23  C   UNL     1     -15.235   0.099  30.909  0.00  0.00    +0.002 A 
ATOM     24  C   UNL     1     -14.712   1.122  31.712  0.00  0.00    +0.000 A 
ENDBRANCH  13  15
ENDBRANCH   9  13
BRANCH  12  14
ATOM     14  C   UNL     1     -15.115   5.084  23.861  0.00  0.00    +0.138 C 
BRANCH  14   8
ATOM      6  O   UNL     1     -15.899   6.907  21.787  0.00  0.00    -0.270 OA
ATOM      8  N   UNL     1     -14.278   5.612  22.825  0.00  0.00    -0.309 N 
ATOM     22  C   UNL     1     -14.744   6.495  21.855  0.00  0.00    +0.244 C 
ATOM     33  H   UNL     1     -13.297   5.354  22.855  0.00  0.00    +0.149 HD
BRANCH  22  25
ATOM      1  F   UNL     1     -13.685   8.485  17.545  0.00  0.00    -0.205 F 
ATOM     25  C   UNL     1     -13.757   6.929  20.833  0.00  0.00    +0.039 A 
ATOM     26  C   UNL     1     -14.193   7.514  19.645  0.00  0.00    +0.051 A 
ATOM     27  C   UNL     1     -12.392   6.751  21.063  0.00  0.00    +0.013 A 
ATOM     28  C   UNL     1     -13.266   7.922  18.687  0.00  0.00    +0.124 A 
ATOM     29  C   UNL     1     -11.464   7.159  20.104  0.00  0.00    +0.004 A 
ATOM     30  C   UNL     1     -11.901   7.744  18.916  0.00  0.00    +0.038 A 
ENDBRANCH  22  25
ENDBRANCH  14   8
ENDBRANCH  12  14
TORSDOF 7
ENDMDL
MODEL 3
REMARK VINA RESULT:      -5.8      3.295      4.739
REMARK  Name = 40777855
REMARK  7 active torsions:
REMARK  status: ('A' for Active; 'I' for Inactive)
REMARK    1  A    between atoms: O_3  and  C_10
REMARK    2  A    between atoms: O_4  and  C_11
REMARK    3  A    between atoms: N_8  and  C_14
REMARK    4  A    between atoms: C_9  and  C_13
REMARK    5  A    between atoms: C_12  and  C_14
REMARK    6  A    between atoms: C_13  and  C_15
REMARK    7  A    between atoms: C_22  and  C_25
REMARK                            x       y       z     vdW  Elec       q    Type
REMARK                         _______ _______ _______ _____ _____    ______ ____
ROOT
ATOM      2  O   UNL     1      -3.863 -11.745  17.475  0.00  0.00    -0.366 OA
ATOM      9  C   UNL     1      -5.210 -11.948  17.960  0.00  0.00    +0.159 C 
ATOM     10  C   UNL     1      -6.018 -12.472  16.778  0.00  0.00    +0.175 C 
ATOM     11  C   UNL     1      -5.290 -11.856  15.600  0.00  0.00    +0.176 C 
ATOM     12  C   UNL     1      -3.842 -11.956  16.052  0.00  0.00    +0.167 C 
ENDROOT
BRANCH  10   3
ATOM      3  O   UNL     1      -5.891 -13.892  16.750  0.00  0.00    -0.387 OA
ATOM     31  H   UNL     1      -5.877 -14.201  17.672  0.00  0.00    +0.210 HD
ENDBRANCH  10   3
BRANCH  11   4
ATOM      4  O   UNL     1      -5.514 -12.538  14.385  0.00  0.00    -0.387 OA
ATOM     32  H   UNL     1      -5.235 -13.461  14.514  0.00  0.00    +0.210 HD
ENDBRANCH  11   4
BRANCH   9  13
ATOM     13  C   UNL     1      -5.721 -10.614  18.487  0.00  0.00    +0.130 C 
BRANCH  13  15
ATOM      5  O   UNL     1      -7.257 -11.503  20.058  0.00  0.00    -0.275 OA
ATOM      7  N   UNL     1      -8.107 -10.095  18.403  0.00  0.00    -0.271 N 
ATOM     15  C   UNL     1      -7.105 -10.788  19.068  0.00  0.00    +0.222 C 
ATOM     16  C   UNL     1      -7.921  -9.235  17.214  0.00  0.00    +0.118 C 
ATOM     17  C   UNL     1      -9.291  -8.672  16.826  0.00  0.00    +0.056 C 
ATOM     18  C   UNL     1      -9.475 -10.091  18.743  0.00  0.00    +0.039 A 
ATOM     19  C   UNL     1     -10.186  -9.282  17.854  0.00  0.00    -0.024 A 
ATOM     20  C   UNL     1     -10.128 -10.747  19.776  0.00  0.00    +0.024 A 
ATOM     21  C   UNL     1     -11.557  -9.110  17.974  0.00  0.00    +0.005 A 
ATOM     23  C   UNL     1     -11.510 -10.581  19.904  0.00  0.00    +0.002 A 
ATOM     24  C   UNL     1     -12.220  -9.768  19.010  0.00  0.00    +0.000 A 
ENDBRANCH  13  15
ENDBRANCH   9  13
BRANCH  12  14
ATOM     14  C   UNL     1      -2.935 -10.931  15.396  0.00  0.00    +0.138 C 
BRANCH  14   8
ATOM      6  O   UNL     1      -1.980 -11.281  12.711  0.00  0.00    -0.270 OA
ATOM      8  N   UNL     1      -3.527 -10.404  14.202  0.00  0.00    -0.309 N 
ATOM     22  C   UNL     1      -2.994 -10.625  12.935  0.00  0.00    +0.244 C 
ATOM     33  H   UNL     1      -4.399  -9.897  14.310  0.00  0.00    +0.149 HD
BRANCH  22  25
ATOM      1  F   UNL     1      -7.049  -8.810  10.955  0.00  0.00    -0.205 F 
ATOM     25  C   UNL     1      -3.712  -9.988  11.800  0.00  0.00    +0.039 A 
ATOM     26  C   UNL     1      -5.071  -9.693  11.912  0.00  0.00    +0.051 A 
ATOM     27  C   UNL     1      -3.027  -9.686  10.623  0.00  0.00    +0.013 A 
ATOM     28  C   UNL     1      -5.744  -9.094  10.848  0.00  0.00    +0.124 A 
ATOM     29  C   UNL     1      -3.701  -9.088   9.558  0.00  0.00    +0.004 A 
ATOM     30  C   UNL     1      -5.059  -8.792   9.670  0.00  0.00    +0.038 A 
ENDBRANCH  22  25
ENDBRANCH  14   8
ENDBRANCH  12  14
TORSDOF 7
ENDMDL
MODEL 4
REMARK VINA RESULT:      -5.8     26.683     29.512
REMARK  Name = 40777855
REMARK  7 active torsions:
REMARK  status: ('A' for Active; 'I' for Inactive)
REMARK    1  A    between atoms: O_3  and  C_10
REMARK    2  A    between atoms: O_4  and  C_11
REMARK    3  A    between atoms: N_8  and  C_14
REMARK    4  A    between atoms: C_9  and  C_13
REMARK    5  A    between atoms: C_12  and  C_14
REMARK    6  A    between atoms: C_13  and  C_15
REMARK    7  A    between atoms: C_22  and  C_25
REMARK                            x       y       z     vdW  Elec       q    Type
REMARK                         _______ _______ _______ _____ _____    ______ ____
ROOT
ATOM      2  O   UNL     1      11.001   6.916   7.255  0.00  0.00    -0.366 OA
ATOM      9  C   UNL     1      10.024   6.342   8.154  0.00  0.00    +0.159 C 
ATOM     10  C   UNL     1       9.726   4.943   7.628  0.00  0.00    +0.175 C 
ATOM     11  C   UNL     1       9.982   5.103   6.143  0.00  0.00    +0.176 C 
ATOM     12  C   UNL     1      11.189   6.025   6.141  0.00  0.00    +0.167 C 
ENDROOT
BRANCH  10   3
ATOM      3  O   UNL     1      10.674   4.043   8.200  0.00  0.00    -0.387 OA
ATOM     31  H   UNL     1      10.213   3.203   8.367  0.00  0.00    +0.210 HD
ENDBRANCH  10   3
BRANCH  11   4
ATOM      4  O   UNL     1      10.248   3.881   5.487  0.00  0.00    -0.387 OA
ATOM     32  H   UNL     1       9.646   3.214   5.859  0.00  0.00    +0.210 HD
ENDBRANCH  11   4
BRANCH   9  13
ATOM     13  C   UNL     1       8.802   7.252   8.156  0.00  0.00    +0.130 C 
BRANCH  13  15
ATOM      5  O   UNL     1       9.843   9.365   8.417  0.00  0.00    -0.275 OA
ATOM      7  N   UNL     1       8.753   8.946   6.397  0.00  0.00    -0.271 N 
ATOM     15  C   UNL     1       9.189   8.631   7.676  0.00  0.00    +0.222 C 
ATOM     16  C   UNL     1       7.968   8.062   5.509  0.00  0.00    +0.118 C 
ATOM     17  C   UNL     1       7.719   8.817   4.200  0.00  0.00    +0.056 C 
ATOM     18  C   UNL     1       8.981  10.163   5.722  0.00  0.00    +0.039 A 
ATOM     19  C   UNL     1       8.398  10.123   4.454  0.00  0.00    -0.024 A 
ATOM     20  C   UNL     1       9.663  11.293   6.150  0.00  0.00    +0.024 A 
ATOM     21  C   UNL     1       8.481  11.203   3.587  0.00  0.00    +0.005 A 
ATOM     23  C   UNL     1       9.750  12.386   5.283  0.00  0.00    +0.002 A 
ATOM     24  C   UNL     1       9.165  12.342   4.011  0.00  0.00    +0.000 A 
ENDBRANCH  13  15
ENDBRANCH   9  13
BRANCH  12  14
ATOM     14  C   UNL     1      11.329   6.830   4.861  0.00  0.00    +0.138 C 
BRANCH  14   8
ATOM      6  O   UNL     1      10.011   6.238   2.380  0.00  0.00    -0.270 OA
ATOM      8  N   UNL     1      11.838   6.022   3.794  0.00  0.00    -0.309 N 
ATOM     22  C   UNL     1      11.128   5.786   2.619  0.00  0.00    +0.244 C 
ATOM     33  H   UNL     1      12.781   5.662   3.903  0.00  0.00    +0.149 HD
BRANCH  22  25
ATOM      1  F   UNL     1      14.935   3.152   1.129  0.00  0.00    -0.205 F 
ATOM     25  C   UNL     1      11.785   4.904   1.621  0.00  0.00    +0.039 A 
ATOM     26  C   UNL     1      13.078   4.433   1.848  0.00  0.00    +0.051 A 
ATOM     27  C   UNL     1      11.107   4.547   0.454  0.00  0.00    +0.013 A 
ATOM     28  C   UNL     1      13.693   3.605   0.910  0.00  0.00    +0.124 A 
ATOM     29  C   UNL     1      11.724   3.718  -0.484  0.00  0.00    +0.004 A 
ATOM     30  C   UNL     1      13.016   3.247  -0.256  0.00  0.00    +0.038 A 
ENDBRANCH  22  25
ENDBRANCH  14   8
ENDBRANCH  12  14
TORSDOF 7
ENDMDL
MODEL 5
REMARK VINA RESULT:      -5.7     18.500     20.961
REMARK  Name = 40777855
REMARK  7 active torsions:
REMARK  status: ('A' for Active; 'I' for Inactive)
REMARK    1  A    between atoms: O_3  and  C_10
REMARK    2  A    between atoms: O_4  and  C_11
REMARK    3  A    between atoms: N_8  and  C_14
REMARK    4  A    between atoms: C_9  and  C_13
REMARK    5  A    between atoms: C_12  and  C_14
REMARK    6  A    between atoms: C_13  and  C_15
REMARK    7  A    between atoms: C_22  and  C_25
REMARK                            x       y       z     vdW  Elec       q    Type
REMARK                         _______ _______ _______ _____ _____    ______ ____
ROOT
ATOM      2  O   UNL     1     -14.988   3.801  29.383  0.00  0.00    -0.366 OA
ATOM      9  C   UNL     1     -14.586   3.293  30.676  0.00  0.00    +0.159 C 
ATOM     10  C   UNL     1     -14.493   1.778  30.533  0.00  0.00    +0.175 C 
ATOM     11  C   UNL     1     -15.509   1.501  29.443  0.00  0.00    +0.176 C 
ATOM     12  C   UNL     1     -15.298   2.691  28.522  0.00  0.00    +0.167 C 
ENDROOT
BRANCH  10   3
ATOM      3  O   UNL     1     -13.180   1.456  30.079  0.00  0.00    -0.387 OA
ATOM     31  H   UNL     1     -13.157   1.614  29.120  0.00  0.00    +0.210 HD
ENDBRANCH  10   3
BRANCH  11   4
ATOM      4  O   UNL     1     -15.297   0.273  28.780  0.00  0.00    -0.387 OA
ATOM     32  H   UNL     1     -14.542   0.394  28.179  0.00  0.00    +0.210 HD
ENDBRANCH  11   4
BRANCH   9  13
ATOM     13  C   UNL     1     -15.630   3.733  31.694  0.00  0.00    +0.130 C 
BRANCH  13  15
ATOM      5  O   UNL     1     -14.658   3.547  33.848  0.00  0.00    -0.275 OA
ATOM      7  N   UNL     1     -14.702   5.664  32.868  0.00  0.00    -0.271 N 
ATOM     15  C   UNL     1     -14.947   4.300  32.918  0.00  0.00    +0.222 C 
ATOM     16  C   UNL     1     -15.049   6.565  31.748  0.00  0.00    +0.118 C 
ATOM     17  C   UNL     1     -14.588   7.977  32.124  0.00  0.00    +0.056 C 
ATOM     18  C   UNL     1     -14.080   6.430  33.876  0.00  0.00    +0.039 A 
ATOM     19  C   UNL     1     -14.000   7.767  33.481  0.00  0.00    -0.024 A 
ATOM     20  C   UNL     1     -13.585   6.028  35.108  0.00  0.00    +0.024 A 
ATOM     21  C   UNL     1     -13.427   8.728  34.299  0.00  0.00    +0.005 A 
ATOM     23  C   UNL     1     -13.007   6.991  35.941  0.00  0.00    +0.002 A 
ATOM     24  C   UNL     1     -12.928   8.331  35.540  0.00  0.00    +0.000 A 
ENDBRANCH  13  15
ENDBRANCH   9  13
BRANCH  12  14
ATOM     14  C   UNL     1     -16.516   3.022  27.678  0.00  0.00    +0.138 C 
BRANCH  14   8
ATOM      6  O   UNL     1     -16.033   2.276  24.948  0.00  0.00    -0.270 OA
ATOM      8  N   UNL     1     -16.175   3.901  26.599  0.00  0.00    -0.309 N 
ATOM     22  C   UNL     1     -15.958   3.451  25.299  0.00  0.00    +0.244 C 
ATOM     33  H   UNL     1     -16.150   4.894  26.808  0.00  0.00    +0.149 HD
BRANCH  22  25
ATOM      1  F   UNL     1     -12.818   5.329  22.095  0.00  0.00    -0.205 F 
ATOM     25  C   UNL     1     -15.586   4.485  24.300  0.00  0.00    +0.039 A 
ATOM     26  C   UNL     1     -14.352   4.421  23.655  0.00  0.00    +0.051 A 
ATOM     27  C   UNL     1     -16.473   5.522  24.007  0.00  0.00    +0.013 A 
ATOM     28  C   UNL     1     -14.004   5.391  22.715  0.00  0.00    +0.124 A 
ATOM     29  C   UNL     1     -16.125   6.493  23.068  0.00  0.00    +0.004 A 
ATOM     30  C   UNL     1     -14.891   6.428  22.423  0.00  0.00    +0.038 A 
ENDBRANCH  22  25
ENDBRANCH  14   8
ENDBRANCH  12  14
TORSDOF 7
ENDMDL
MODEL 6
REMARK VINA RESULT:      -5.7     16.920     18.852
REMARK  Name = 40777855
REMARK  7 active torsions:
REMARK  status: ('A' for Active; 'I' for Inactive)
REMARK    1  A    between atoms: O_3  and  C_10
REMARK    2  A    between atoms: O_4  and  C_11
REMARK    3  A    between atoms: N_8  and  C_14
REMARK    4  A    between atoms: C_9  and  C_13
REMARK    5  A    between atoms: C_12  and  C_14
REMARK    6  A    between atoms: C_13  and  C_15
REMARK    7  A    between atoms: C_22  and  C_25
REMARK                            x       y       z     vdW  Elec       q    Type
REMARK                         _______ _______ _______ _____ _____    ______ ____
ROOT
ATOM      2  O   UNL     1     -15.940   2.078  26.246  0.00  0.00    -0.366 OA
ATOM      9  C   UNL     1     -16.793   0.940  26.507  0.00  0.00    +0.159 C 
ATOM     10  C   UNL     1     -17.772   0.860  25.341  0.00  0.00    +0.175 C 
ATOM     11  C   UNL     1     -17.872   2.311  24.914  0.00  0.00    +0.176 C 
ATOM     12  C   UNL     1     -16.438   2.779  25.093  0.00  0.00    +0.167 C 
ENDROOT
BRANCH  10   3
ATOM      3  O   UNL     1     -17.170   0.080  24.310  0.00  0.00    -0.387 OA
ATOM     31  H   UNL     1     -17.365  -0.854  24.500  0.00  0.00    +0.210 HD
ENDBRANCH  10   3
BRANCH  11   4
ATOM      4  O   UNL     1     -18.320   2.472  23.585  0.00  0.00    -0.387 OA
ATOM     32  H   UNL     1     -17.874   1.798  23.044  0.00  0.00    +0.210 HD
ENDBRANCH  11   4
BRANCH   9  13
ATOM     13  C   UNL     1     -17.479   1.170  27.847  0.00  0.00    +0.130 C 
BRANCH  13  15
ATOM      5  O   UNL     1     -15.914   0.110  29.278  0.00  0.00    -0.275 OA
ATOM      7  N   UNL     1     -16.206   2.412  29.523  0.00  0.00    -0.271 N 
ATOM     15  C   UNL     1     -16.452   1.170  28.956  0.00  0.00    +0.222 C 
ATOM     16  C   UNL     1     -16.854   3.683  29.135  0.00  0.00    +0.118 C 
ATOM     17  C   UNL     1     -16.274   4.792  30.018  0.00  0.00    +0.056 C 
ATOM     18  C   UNL     1     -15.299   2.679  30.569  0.00  0.00    +0.039 A 
ATOM     19  C   UNL     1     -15.314   4.040  30.880  0.00  0.00    -0.024 A 
ATOM     20  C   UNL     1     -14.467   1.807  31.257  0.00  0.00    +0.024 A 
ATOM     21  C   UNL     1     -14.505   4.561  31.879  0.00  0.00    +0.005 A 
ATOM     23  C   UNL     1     -13.650   2.323  32.267  0.00  0.00    +0.002 A 
ATOM     24  C   UNL     1     -13.667   3.690  32.575  0.00  0.00    +0.000 A 
ENDBRANCH  13  15
ENDBRANCH   9  13
BRANCH  12  14
ATOM     14  C   UNL     1     -16.317   4.277  25.314  0.00  0.00    +0.138 C 
BRANCH  14   8
ATOM      6  O   UNL     1     -16.851   5.009  22.589  0.00  0.00    -0.270 OA
ATOM      8  N   UNL     1     -15.394   4.864  24.389  0.00  0.00    -0.309 N 
ATOM     22  C   UNL     1     -15.739   5.189  23.080  0.00  0.00    +0.244 C 
ATOM     33  H   UNL     1     -14.471   5.091  24.747  0.00  0.00    +0.149 HD
BRANCH  22  25
ATOM      1  F   UNL     1     -14.208   8.334  19.701  0.00  0.00    -0.205 F 
ATOM     25  C   UNL     1     -14.659   5.767  22.240  0.00  0.00    +0.039 A 
ATOM     26  C   UNL     1     -14.947   6.799  21.347  0.00  0.00    +0.051 A 
ATOM     27  C   UNL     1     -13.357   5.278  22.345  0.00  0.00    +0.013 A 
ATOM     28  C   UNL     1     -13.932   7.343  20.559  0.00  0.00    +0.124 A 
ATOM     29  C   UNL     1     -12.342   5.821  21.556  0.00  0.00    +0.004 A 
ATOM     30  C   UNL     1     -12.630   6.853  20.664  0.00  0.00    +0.038 A 
ENDBRANCH  22  25
ENDBRANCH  14   8
ENDBRANCH  12  14
TORSDOF 7
ENDMDL
MODEL 7
REMARK VINA RESULT:      -5.7      2.948      5.113
REMARK  Name = 40777855
REMARK  7 active torsions:
REMARK  status: ('A' for Active; 'I' for Inactive)
REMARK    1  A    between atoms: O_3  and  C_10
REMARK    2  A    between atoms: O_4  and  C_11
REMARK    3  A    between atoms: N_8  and  C_14
REMARK    4  A    between atoms: C_9  and  C_13
REMARK    5  A    between atoms: C_12  and  C_14
REMARK    6  A    between atoms: C_13  and  C_15
REMARK    7  A    between atoms: C_22  and  C_25
REMARK                            x       y       z     vdW  Elec       q    Type
REMARK                         _______ _______ _______ _____ _____    ______ ____
ROOT
ATOM      2  O   UNL     1      -3.853 -10.295  13.610  0.00  0.00    -0.366 OA
ATOM      9  C   UNL     1      -2.459 -10.671  13.691  0.00  0.00    +0.159 C 
ATOM     10  C   UNL     1      -2.046 -11.094  12.286  0.00  0.00    +0.175 C 
ATOM     11  C   UNL     1      -3.353 -11.603  11.713  0.00  0.00    +0.176 C 
ATOM     12  C   UNL     1      -4.347 -10.613  12.297  0.00  0.00    +0.167 C 
ENDROOT
BRANCH  10   3
ATOM      3  O   UNL     1      -1.617  -9.930  11.582  0.00  0.00    -0.387 OA
ATOM     31  H   UNL     1      -2.335  -9.277  11.635  0.00  0.00    +0.210 HD
ENDBRANCH  10   3
BRANCH  11   4
ATOM      4  O   UNL     1      -3.380 -11.609  10.301  0.00  0.00    -0.387 OA
ATOM     32  H   UNL     1      -2.656 -11.036   9.994  0.00  0.00    +0.210 HD
ENDBRANCH  11   4
BRANCH   9  13
ATOM     13  C   UNL     1      -2.338 -11.795  14.712  0.00  0.00    +0.130 C 
BRANCH  13  15
ATOM      5  O   UNL     1      -2.543 -10.484  16.676  0.00  0.00    -0.275 OA
ATOM      7  N   UNL     1      -4.165 -12.120  16.302  0.00  0.00    -0.271 N 
ATOM     15  C   UNL     1      -3.021 -11.395  15.999  0.00  0.00    +0.222 C 
ATOM     16  C   UNL     1      -4.737 -13.213  15.486  0.00  0.00    +0.118 C 
ATOM     17  C   UNL     1      -5.996 -13.716  16.197  0.00  0.00    +0.056 C 
ATOM     18  C   UNL     1      -4.979 -11.943  17.439  0.00  0.00    +0.039 A 
ATOM     19  C   UNL     1      -6.043 -12.847  17.411  0.00  0.00    -0.024 A 
ATOM     20  C   UNL     1      -4.845 -11.044  18.487  0.00  0.00    +0.024 A 
ATOM     21  C   UNL     1      -6.992 -12.876  18.421  0.00  0.00    +0.005 A 
ATOM     23  C   UNL     1      -5.797 -11.067  19.511  0.00  0.00    +0.002 A 
ATOM     24  C   UNL     1      -6.863 -11.976  19.479  0.00  0.00    +0.000 A 
ENDBRANCH  13  15
ENDBRANCH   9  13
BRANCH  12  14
ATOM     14  C   UNL     1      -5.757 -11.167  12.402  0.00  0.00    +0.138 C 
BRANCH  14   8
ATOM      6  O   UNL     1      -8.521 -11.461  13.119  0.00  0.00    -0.270 OA
ATOM      8  N   UNL     1      -6.356 -10.826  13.658  0.00  0.00    -0.309 N 
ATOM     22  C   UNL     1      -7.712 -11.003  13.920  0.00  0.00    +0.244 C 
ATOM     33  H   UNL     1      -5.732 -10.493  14.385  0.00  0.00    +0.149 HD
BRANCH  22  25
ATOM      1  F   UNL     1     -10.810 -11.364  17.652  0.00  0.00    -0.205 F 
ATOM     25  C   UNL     1      -8.181 -10.575  15.263  0.00  0.00    +0.039 A 
ATOM     26  C   UNL     1      -9.298 -11.182  15.838  0.00  0.00    +0.051 A 
ATOM     27  C   UNL     1      -7.506  -9.565  15.949  0.00  0.00    +0.013 A 
ATOM     28  C   UNL     1      -9.738 -10.781  17.099  0.00  0.00    +0.124 A 
ATOM     29  C   UNL     1      -7.947  -9.163  17.210  0.00  0.00    +0.004 A 
ATOM     30  C   UNL     1      -9.062  -9.771  17.785  0.00  0.00    +0.038 A 
ENDBRANCH  22  25
ENDBRANCH  14   8
ENDBRANCH  12  14
TORSDOF 7
ENDMDL
MODEL 8
REMARK VINA RESULT:      -5.7     27.171     30.094
REMARK  Name = 40777855
REMARK  7 active torsions:
REMARK  status: ('A' for Active; 'I' for Inactive)
REMARK    1  A    between atoms: O_3  and  C_10
REMARK    2  A    between atoms: O_4  and  C_11
REMARK    3  A    between atoms: N_8  and  C_14
REMARK    4  A    between atoms: C_9  and  C_13
REMARK    5  A    between atoms: C_12  and  C_14
REMARK    6  A    between atoms: C_13  and  C_15
REMARK    7  A    between atoms: C_22  and  C_25
REMARK                            x       y       z     vdW  Elec       q    Type
REMARK                         _______ _______ _______ _____ _____    ______ ____
ROOT
ATOM      2  O   UNL     1      13.017   4.563   2.015  0.00  0.00    -0.366 OA
ATOM      9  C   UNL     1      11.835   4.034   1.372  0.00  0.00    +0.159 C 
ATOM     10  C   UNL     1      12.119   4.043  -0.126  0.00  0.00    +0.175 C 
ATOM     11  C   UNL     1      13.090   5.199  -0.255  0.00  0.00    +0.176 C 
ATOM     12  C   UNL     1      13.925   5.037   1.004  0.00  0.00    +0.167 C 
ENDROOT
BRANCH  10   3
ATOM      3  O   UNL     1      12.762   2.816  -0.462  0.00  0.00    -0.387 OA
ATOM     31  H   UNL     1      12.392   2.516  -1.310  0.00  0.00    +0.210 HD
ENDBRANCH  10   3
BRANCH  11   4
ATOM      4  O   UNL     1      13.878   5.139  -1.424  0.00  0.00    -0.387 OA
ATOM     32  H   UNL     1      13.894   4.211  -1.717  0.00  0.00    +0.210 HD
ENDBRANCH  11   4
BRANCH   9  13
ATOM     13  C   UNL     1      10.658   4.919   1.762  0.00  0.00    +0.130 C 
BRANCH  13  15
ATOM      5  O   UNL     1      10.907   3.942   3.907  0.00  0.00    -0.275 OA
ATOM      7  N   UNL     1       9.807   5.996   3.783  0.00  0.00    -0.271 N 
ATOM     15  C   UNL     1      10.472   4.896   3.261  0.00  0.00    +0.222 C 
ATOM     16  C   UNL     1       9.287   7.141   3.005  0.00  0.00    +0.118 C 
ATOM     17  C   UNL     1       8.636   8.117   3.989  0.00  0.00    +0.056 C 
ATOM     18  C   UNL     1       9.509   6.213   5.144  0.00  0.00    +0.039 A 
ATOM     19  C   UNL     1       8.834   7.426   5.298  0.00  0.00    -0.024 A 
ATOM     20  C   UNL     1       9.793   5.419   6.245  0.00  0.00    +0.024 A 
ATOM     21  C   UNL     1       8.428   7.872   6.547  0.00  0.00    +0.005 A 
ATOM     23  C   UNL     1       9.387   5.861   7.508  0.00  0.00    +0.002 A 
ATOM     24  C   UNL     1       8.710   7.079   7.658  0.00  0.00    +0.000 A 
ENDBRANCH  13  15
ENDBRANCH   9  13
BRANCH  12  14
ATOM     14  C   UNL     1      14.575   6.329   1.466  0.00  0.00    +0.138 C 
BRANCH  14   8
ATOM      6  O   UNL     1      12.521   8.237   2.087  0.00  0.00    -0.270 OA
ATOM      8  N   UNL     1      14.118   6.700   2.773  0.00  0.00    -0.309 N 
ATOM     22  C   UNL     1      13.112   7.639   2.982  0.00  0.00    +0.244 C 
ATOM     33  H   UNL     1      14.527   6.203   3.557  0.00  0.00    +0.149 HD
BRANCH  22  25
ATOM      1  F   UNL     1      13.068   6.399   7.685  0.00  0.00    -0.205 F 
ATOM     25  C   UNL     1      12.771   7.932   4.398  0.00  0.00    +0.039 A 
ATOM     26  C   UNL     1      13.085   7.009   5.397  0.00  0.00    +0.051 A 
ATOM     27  C   UNL     1      12.138   9.130   4.730  0.00  0.00    +0.013 A 
ATOM     28  C   UNL     1      12.766   7.285   6.726  0.00  0.00    +0.124 A 
ATOM     29  C   UNL     1      11.818   9.405   6.060  0.00  0.00    +0.004 A 
ATOM     30  C   UNL     1      12.133   8.483   7.057  0.00  0.00    +0.038 A 
ENDBRANCH  22  25
ENDBRANCH  14   8
ENDBRANCH  12  14
TORSDOF 7
ENDMDL
MODEL 9
REMARK VINA RESULT:      -5.7      2.762      6.306
REMARK  Name = 40777855
REMARK  7 active torsions:
REMARK  status: ('A' for Active; 'I' for Inactive)
REMARK    1  A    between atoms: O_3  and  C_10
REMARK    2  A    between atoms: O_4  and  C_11
REMARK    3  A    between atoms: N_8  and  C_14
REMARK    4  A    between atoms: C_9  and  C_13
REMARK    5  A    between atoms: C_12  and  C_14
REMARK    6  A    between atoms: C_13  and  C_15
REMARK    7  A    between atoms: C_22  and  C_25
REMARK                            x       y       z     vdW  Elec       q    Type
REMARK                         _______ _______ _______ _____ _____    ______ ____
ROOT
ATOM      2  O   UNL     1      -6.681 -12.772  17.821  0.00  0.00    -0.366 OA
ATOM      9  C   UNL     1      -5.632 -11.984  17.213  0.00  0.00    +0.159 C 
ATOM     10  C   UNL     1      -5.276 -10.893  18.217  0.00  0.00    +0.175 C 
ATOM     11  C   UNL     1      -6.585 -10.708  18.958  0.00  0.00    +0.176 C 
ATOM     12  C   UNL     1      -7.089 -12.139  19.046  0.00  0.00    +0.167 C 
ENDROOT
BRANCH  10   3
ATOM      3  O   UNL     1      -4.278 -11.410  19.096  0.00  0.00    -0.387 OA
ATOM     31  H   UNL     1      -3.610 -11.856  18.547  0.00  0.00    +0.210 HD
ENDBRANCH  10   3
BRANCH  11   4
ATOM      4  O   UNL     1      -6.427 -10.123  20.233  0.00  0.00    -0.387 OA
ATOM     32  H   UNL     1      -6.280  -9.170  20.100  0.00  0.00    +0.210 HD
ENDBRANCH  11   4
BRANCH   9  13
ATOM     13  C   UNL     1      -6.168 -11.431  15.898  0.00  0.00    +0.130 C 
BRANCH  13  15
ATOM      5  O   UNL     1      -3.962 -11.842  15.134  0.00  0.00    -0.275 OA
ATOM      7  N   UNL     1      -5.345 -10.542  13.776  0.00  0.00    -0.271 N 
ATOM     15  C   UNL     1      -5.040 -11.296  14.901  0.00  0.00    +0.222 C 
ATOM     16  C   UNL     1      -6.641  -9.888  13.499  0.00  0.00    +0.118 C 
ATOM     17  C   UNL     1      -6.526  -9.176  12.148  0.00  0.00    +0.056 C 
ATOM     18  C   UNL     1      -4.471 -10.267  12.704  0.00  0.00    +0.039 A 
ATOM     19  C   UNL     1      -5.119  -9.481  11.749  0.00  0.00    -0.024 A 
ATOM     20  C   UNL     1      -3.154 -10.662  12.517  0.00  0.00    +0.024 A 
ATOM     21  C   UNL     1      -4.473  -9.072  10.592  0.00  0.00    +0.005 A 
ATOM     23  C   UNL     1      -2.495 -10.253  11.354  0.00  0.00    +0.002 A 
ATOM     24  C   UNL     1      -3.149  -9.465  10.398  0.00  0.00    +0.000 A 
ENDBRANCH  13  15
ENDBRANCH   9  13
BRANCH  12  14
ATOM     14  C   UNL     1      -8.597 -12.237  19.195  0.00  0.00    +0.138 C 
BRANCH  14   8
ATOM      6  O   UNL     1     -10.398 -10.225  20.172  0.00  0.00    -0.270 OA
ATOM      8  N   UNL     1      -9.260 -11.232  18.418  0.00  0.00    -0.309 N 
ATOM     22  C   UNL     1     -10.121 -10.291  18.977  0.00  0.00    +0.244 C 
ATOM     33  H   UNL     1      -9.033 -11.195  17.429  0.00  0.00    +0.149 HD
BRANCH  22  25
ATOM      1  F   UNL     1      -9.795  -6.615  15.809  0.00  0.00    -0.205 F 
ATOM     25  C   UNL     1     -10.750  -9.333  18.032  0.00  0.00    +0.039 A 
ATOM     26  C   UNL     1      -9.961  -8.405  17.351  0.00  0.00    +0.051 A 
ATOM     27  C   UNL     1     -12.129  -9.361  17.825  0.00  0.00    +0.013 A 
ATOM     28  C   UNL     1     -10.552  -7.506  16.463  0.00  0.00    +0.124 A 
ATOM     29  C   UNL     1     -12.720  -8.461  16.937  0.00  0.00    +0.004 A 
ATOM     30  C   UNL     1     -11.932  -7.535  16.256  0.00  0.00    +0.038 A 
ENDBRANCH  22  25
ENDBRANCH  14   8
ENDBRANCH  12  14
TORSDOF 7
ENDMDL
MODEL 10
REMARK VINA RESULT:      -5.6     17.929     20.484
REMARK  Name = 40777855
REMARK  7 active torsions:
REMARK  status: ('A' for Active; 'I' for Inactive)
REMARK    1  A    between atoms: O_3  and  C_10
REMARK    2  A    between atoms: O_4  and  C_11
REMARK    3  A    between atoms: N_8  and  C_14
REMARK    4  A    between atoms: C_9  and  C_13
REMARK    5  A    between atoms: C_12  and  C_14
REMARK    6  A    between atoms: C_13  and  C_15
REMARK    7  A    between atoms: C_22  and  C_25
REMARK                            x       y       z     vdW  Elec       q    Type
REMARK                         _______ _______ _______ _____ _____    ______ ____
ROOT
ATOM      2  O   UNL     1     -15.160   2.464  29.264  0.00  0.00    -0.366 OA
ATOM      9  C   UNL     1     -14.702   2.570  30.631  0.00  0.00    +0.159 C 
ATOM     10  C   UNL     1     -14.503   1.143  31.130  0.00  0.00    +0.175 C 
ATOM     11  C   UNL     1     -15.514   0.376  30.302  0.00  0.00    +0.176 C 
ATOM     12  C   UNL     1     -15.403   1.079  28.959  0.00  0.00    +0.167 C 
ENDROOT
BRANCH  10   3
ATOM      3  O   UNL     1     -13.177   0.738  30.794  0.00  0.00    -0.387 OA
ATOM     31  H   UNL     1     -13.228   0.239  29.961  0.00  0.00    +0.210 HD
ENDBRANCH  10   3
BRANCH  11   4
ATOM      4  O   UNL     1     -15.224  -1.002  30.203  0.00  0.00    -0.387 OA
ATOM     32  H   UNL     1     -15.980  -1.486  30.579  0.00  0.00    +0.210 HD
ENDBRANCH  11   4
BRANCH   9  13
ATOM     13  C   UNL     1     -15.759   3.335  31.418  0.00  0.00    +0.130 C 
BRANCH  13  15
ATOM      5  O   UNL     1     -15.411   5.572  30.714  0.00  0.00    -0.275 OA
ATOM      7  N   UNL     1     -14.798   5.025  32.898  0.00  0.00    -0.271 N 
ATOM     15  C   UNL     1     -15.306   4.760  31.634  0.00  0.00    +0.222 C 
ATOM     16  C   UNL     1     -14.674   4.048  34.002  0.00  0.00    +0.118 C 
ATOM     17  C   UNL     1     -14.071   4.778  35.206  0.00  0.00    +0.056 C 
ATOM     18  C   UNL     1     -14.311   6.269  33.350  0.00  0.00    +0.039 A 
ATOM     19  C   UNL     1     -13.884   6.162  34.675  0.00  0.00    -0.024 A 
ATOM     20  C   UNL     1     -14.223   7.477  32.676  0.00  0.00    +0.024 A 
ATOM     21  C   UNL     1     -13.360   7.252  35.355  0.00  0.00    +0.005 A 
ATOM     23  C   UNL     1     -13.695   8.581  33.352  0.00  0.00    +0.002 A 
ATOM     24  C   UNL     1     -13.268   8.470  34.682  0.00  0.00    +0.000 A 
ENDBRANCH  13  15
ENDBRANCH   9  13
BRANCH  12  14
ATOM     14  C   UNL     1     -16.655   0.954  28.109  0.00  0.00    +0.138 C 
BRANCH  14   8
ATOM      6  O   UNL     1     -16.753   0.270  25.323  0.00  0.00    -0.270 OA
ATOM      8  N   UNL     1     -16.623   1.864  27.004  0.00  0.00    -0.309 N 
ATOM     22  C   UNL     1     -16.676   1.443  25.678  0.00  0.00    +0.244 C 
ATOM     33  H   UNL     1     -16.615   2.854  27.227  0.00  0.00    +0.149 HD
BRANCH  22  25
ATOM      1  F   UNL     1     -14.582   5.414  23.807  0.00  0.00    -0.205 F 
ATOM     25  C   UNL     1     -16.607   2.510  24.646  0.00  0.00    +0.039 A 
ATOM     26  C   UNL     1     -15.607   3.481  24.713  0.00  0.00    +0.051 A 
ATOM     27  C   UNL     1     -17.542   2.541  23.612  0.00  0.00    +0.013 A 
ATOM     28  C   UNL     1     -15.542   4.482  23.744  0.00  0.00    +0.124 A 
ATOM     29  C   UNL     1     -17.477   3.544  22.643  0.00  0.00    +0.004 A 
ATOM     30  C   UNL     1     -16.478   4.513  22.709  0.00  0.00    +0.038 A 
ENDBRANCH  22  25
ENDBRANCH  14   8
ENDBRANCH  12  14
TORSDOF 7
ENDMDL
