MODEL 1
REMARK VINA RESULT:      -7.0      0.000      0.000
REMARK  Name = 11865702
REMARK  12 active torsions:
REMARK  status: ('A' for Active; 'I' for Inactive)
REMARK    1  A    between atoms: O_1  and  C_11
REMARK    2  A    between atoms: O_2  and  C_12
REMARK    3  A    between atoms: N_6  and  C_10
REMARK    4  A    between atoms: N_7  and  C_16
REMARK    5  A    between atoms: N_7  and  C_22
REMARK    6  A    between atoms: N_8  and  C_23
REMARK    7  A    between atoms: C_15  and  C_19
REMARK    8  A    between atoms: C_16  and  C_17
REMARK    9  A    between atoms: C_16  and  C_18
REMARK   10  A    between atoms: C_17  and  C_20
REMARK   11  A    between atoms: C_17  and  C_21
REMARK   12  A    between atoms: C_23  and  C_24
REMARK                            x       y       z     vdW  Elec       q    Type
REMARK                         _______ _______ _______ _____ _____    ______ ____
ROOT
ATOM     10  C   UNL     1      13.388   6.788  20.671  0.00  0.00    +0.127 C 
ATOM     11  C   UNL     1      12.639   7.469  21.832  0.00  0.00    +0.167 C 
ATOM     12  C   UNL     1      11.142   7.612  21.529  0.00  0.00    +0.149 C 
ATOM     13  C   UNL     1      10.887   8.367  20.213  0.00  0.00    +0.074 C 
ATOM     14  C   UNL     1      12.987   7.306  19.317  0.00  0.00    +0.006 C 
ATOM     15  C   UNL     1      11.866   8.021  19.128  0.00  0.00    +0.015 C 
ENDROOT
BRANCH  10   6
ATOM      3  O   UNL     1      15.082   8.736  19.404  0.00  0.00    -0.274 OA
ATOM      6  N   UNL     1      14.818   6.913  20.814  0.00  0.00    -0.305 N 
ATOM     18  C   UNL     1      15.556   7.888  20.160  0.00  0.00    +0.231 C 
ATOM     25  H   UNL     1      15.303   6.227  21.386  0.00  0.00    +0.149 HD
BRANCH  18  16
ATOM     16  C   UNL     1      17.050   7.798  20.470  0.00  0.00    +0.143 C 
BRANCH  16   7
ATOM      7  N   UNL     1      17.239   8.326  21.823  0.00  0.00    -0.309 NA
ATOM     22  C   UNL     1      17.451   9.765  21.788  0.00  0.00    +0.101 C 
ATOM     28  H   UNL     1      18.059   7.894  22.246  0.00  0.00    +0.122 HD
ENDBRANCH  16   7
BRANCH  16  17
ATOM     17  C   UNL     1      17.615   6.364  20.343  0.00  0.00    +0.009 C 
ATOM     20  C   UNL     1      19.089   6.237  20.741  0.00  0.00    +0.009 C 
ATOM     21  C   UNL     1      17.408   5.794  18.937  0.00  0.00    +0.009 C 
ENDBRANCH  16  17
ENDBRANCH  18  16
ENDBRANCH  10   6
BRANCH  15  19
ATOM      4  O   UNL     1      10.435   8.405  17.305  0.00  0.00    -0.271 OA
ATOM      8  N   UNL     1      12.692   8.955  17.105  0.00  0.00    -0.303 N 
ATOM     19  C   UNL     1      11.575   8.473  17.764  0.00  0.00    +0.240 C 
ATOM     29  H   UNL     1      13.590   8.969  17.579  0.00  0.00    +0.150 HD
BRANCH   8  23
ATOM     23  C   UNL     1      12.654   9.455  15.749  0.00  0.00    +0.200 C 
BRANCH  23  24
ATOM      5  O   UNL     1      14.537  10.498  14.641  0.00  0.00    -0.274 OA
ATOM      9  N   UNL     1      13.722  11.441  16.573  0.00  0.00    -0.328 N 
ATOM     24  C   UNL     1      13.725  10.504  15.562  0.00  0.00    +0.228 C 
ATOM     30  H   UNL     1      14.398  12.198  16.583  0.00  0.00    +0.145 HD
ATOM     31  H   UNL     1      13.056  11.417  17.339  0.00  0.00    +0.145 HD
ENDBRANCH  23  24
ENDBRANCH   8  23
ENDBRANCH  15  19
BRANCH  11   1
ATOM      1  O   UNL     1      13.187   8.770  22.058  0.00  0.00    -0.387 OA
ATOM     26  H   UNL     1      13.640   9.043  21.242  0.00  0.00    +0.210 HD
ENDBRANCH  11   1
BRANCH  12   2
ATOM      2  O   UNL     1      10.527   6.327  21.483  0.00  0.00    -0.389 OA
ATOM     27  H   UNL     1       9.924   6.317  20.719  0.00  0.00    +0.210 HD
ENDBRANCH  12   2
TORSDOF 9
ENDMDL
MODEL 2
REMARK VINA RESULT:      -6.7      3.091      6.191
REMARK  Name = 11865702
REMARK  12 active torsions:
REMARK  status: ('A' for Active; 'I' for Inactive)
REMARK    1  A    between atoms: O_1  and  C_11
REMARK    2  A    between atoms: O_2  and  C_12
REMARK    3  A    between atoms: N_6  and  C_10
REMARK    4  A    between atoms: N_7  and  C_16
REMARK    5  A    between atoms: N_7  and  C_22
REMARK    6  A    between atoms: N_8  and  C_23
REMARK    7  A    between atoms: C_15  and  C_19
REMARK    8  A    between atoms: C_16  and  C_17
REMARK    9  A    between atoms: C_16  and  C_18
REMARK   10  A    between atoms: C_17  and  C_20
REMARK   11  A    between atoms: C_17  and  C_21
REMARK   12  A    between atoms: C_23  and  C_24
REMARK                            x       y       z     vdW  Elec       q    Type
REMARK                         _______ _______ _______ _____ _____    ______ ____
ROOT
ATOM     10  C   UNL     1      12.357   8.677  19.794  0.00  0.00    +0.127 C 
ATOM     11  C   UNL     1      12.226   9.111  18.322  0.00  0.00    +0.167 C 
ATOM     12  C   UNL     1      12.739   8.025  17.367  0.00  0.00    +0.149 C 
ATOM     13  C   UNL     1      14.190   7.621  17.677  0.00  0.00    +0.074 C 
ATOM     14  C   UNL     1      13.675   8.024  20.108  0.00  0.00    +0.006 C 
ATOM     15  C   UNL     1      14.492   7.562  19.148  0.00  0.00    +0.015 C 
ENDROOT
BRANCH  10   6
ATOM      3  O   UNL     1      10.555   8.776  22.033  0.00  0.00    -0.274 OA
ATOM      6  N   UNL     1      12.158   9.785  20.696  0.00  0.00    -0.305 N 
ATOM     18  C   UNL     1      11.263   9.742  21.754  0.00  0.00    +0.231 C 
ATOM     25  H   UNL     1      12.671  10.644  20.518  0.00  0.00    +0.149 HD
BRANCH  18  16
ATOM     16  C   UNL     1      11.233  11.047  22.550  0.00  0.00    +0.143 C 
BRANCH  16   7
ATOM      7  N   UNL     1      11.963  10.804  23.796  0.00  0.00    -0.309 NA
ATOM     22  C   UNL     1      11.198  11.275  24.940  0.00  0.00    +0.101 C 
ATOM     28  H   UNL     1      12.849  11.308  23.776  0.00  0.00    +0.122 HD
ENDBRANCH  16   7
BRANCH  16  17
ATOM     17  C   UNL     1      11.827  12.247  21.777  0.00  0.00    +0.009 C 
ATOM     20  C   UNL     1      13.178  12.729  22.315  0.00  0.00    +0.009 C 
ATOM     21  C   UNL     1      10.848  13.424  21.713  0.00  0.00    +0.009 C 
ENDBRANCH  16  17
ENDBRANCH  18  16
ENDBRANCH  10   6
BRANCH  15  19
ATOM      4  O   UNL     1      16.200   5.958  18.987  0.00  0.00    -0.271 OA
ATOM      8  N   UNL     1      16.330   7.581  20.655  0.00  0.00    -0.303 N 
ATOM     19  C   UNL     1      15.751   6.943  19.572  0.00  0.00    +0.240 C 
ATOM     29  H   UNL     1      15.875   8.393  21.063  0.00  0.00    +0.150 HD
BRANCH   8  23
ATOM     23  C   UNL     1      17.573   7.151  21.253  0.00  0.00    +0.200 C 
BRANCH  23  24
ATOM      5  O   UNL     1      18.390   9.421  21.047  0.00  0.00    -0.274 OA
ATOM      9  N   UNL     1      19.168   8.112  22.770  0.00  0.00    -0.328 N 
ATOM     24  C   UNL     1      18.387   8.358  21.660  0.00  0.00    +0.228 C 
ATOM     30  H   UNL     1      19.777   8.830  23.146  0.00  0.00    +0.145 HD
ATOM     31  H   UNL     1      19.168   7.218  23.251  0.00  0.00    +0.145 HD
ENDBRANCH  23  24
ENDBRANCH   8  23
ENDBRANCH  15  19
BRANCH  11   1
ATOM      1  O   UNL     1      12.981  10.306  18.106  0.00  0.00    -0.387 OA
ATOM     26  H   UNL     1      13.790  10.058  17.627  0.00  0.00    +0.210 HD
ENDBRANCH  11   1
BRANCH  12   2
ATOM      2  O   UNL     1      11.889   6.882  17.424  0.00  0.00    -0.389 OA
ATOM     27  H   UNL     1      11.808   6.623  18.358  0.00  0.00    +0.210 HD
ENDBRANCH  12   2
TORSDOF 9
ENDMDL
MODEL 3
REMARK VINA RESULT:      -6.5      3.491      5.337
REMARK  Name = 11865702
REMARK  12 active torsions:
REMARK  status: ('A' for Active; 'I' for Inactive)
REMARK    1  A    between atoms: O_1  and  C_11
REMARK    2  A    between atoms: O_2  and  C_12
REMARK    3  A    between atoms: N_6  and  C_10
REMARK    4  A    between atoms: N_7  and  C_16
REMARK    5  A    between atoms: N_7  and  C_22
REMARK    6  A    between atoms: N_8  and  C_23
REMARK    7  A    between atoms: C_15  and  C_19
REMARK    8  A    between atoms: C_16  and  C_17
REMARK    9  A    between atoms: C_16  and  C_18
REMARK   10  A    between atoms: C_17  and  C_20
REMARK   11  A    between atoms: C_17  and  C_21
REMARK   12  A    between atoms: C_23  and  C_24
REMARK                            x       y       z     vdW  Elec       q    Type
REMARK                         _______ _______ _______ _____ _____    ______ ____
ROOT
ATOM     10  C   UNL     1      12.299   9.462  21.490  0.00  0.00    +0.127 C 
ATOM     11  C   UNL     1      11.658   8.223  22.144  0.00  0.00    +0.167 C 
ATOM     12  C   UNL     1      12.126   6.926  21.473  0.00  0.00    +0.149 C 
ATOM     13  C   UNL     1      11.857   6.928  19.959  0.00  0.00    +0.074 C 
ATOM     14  C   UNL     1      12.304   9.405  19.987  0.00  0.00    +0.006 C 
ATOM     15  C   UNL     1      12.096   8.263  19.312  0.00  0.00    +0.015 C 
ENDROOT
BRANCH  10   6
ATOM      3  O   UNL     1      13.529  11.704  22.805  0.00  0.00    -0.274 OA
ATOM      6  N   UNL     1      11.651  10.681  21.908  0.00  0.00    -0.305 N 
ATOM     18  C   UNL     1      12.328  11.714  22.539  0.00  0.00    +0.231 C 
ATOM     25  H   UNL     1      10.647  10.761  21.768  0.00  0.00    +0.149 HD
BRANCH  18  16
ATOM     16  C   UNL     1      11.412  12.887  22.889  0.00  0.00    +0.143 C 
BRANCH  16   7
ATOM      7  N   UNL     1      10.558  13.125  21.723  0.00  0.00    -0.309 NA
ATOM     22  C   UNL     1      11.134  14.150  20.867  0.00  0.00    +0.101 C 
ATOM     28  H   UNL     1       9.641  13.446  22.032  0.00  0.00    +0.122 HD
ENDBRANCH  16   7
BRANCH  16  17
ATOM     17  C   UNL     1      10.568  12.644  24.162  0.00  0.00    +0.009 C 
ATOM     20  C   UNL     1      10.166  13.928  24.898  0.00  0.00    +0.009 C 
ATOM     21  C   UNL     1      11.268  11.690  25.135  0.00  0.00    +0.009 C 
ENDBRANCH  16  17
ENDBRANCH  18  16
ENDBRANCH  10   6
BRANCH  15  19
ATOM      4  O   UNL     1      11.184   7.907  17.177  0.00  0.00    -0.271 OA
ATOM      8  N   UNL     1      13.289   8.892  17.356  0.00  0.00    -0.303 N 
ATOM     19  C   UNL     1      12.126   8.328  17.848  0.00  0.00    +0.240 C 
ATOM     29  H   UNL     1      14.006   9.212  18.001  0.00  0.00    +0.150 HD
BRANCH   8  23
ATOM     23  C   UNL     1      13.549   9.060  15.944  0.00  0.00    +0.200 C 
BRANCH  23  24
ATOM      5  O   UNL     1      13.410  10.956  14.445  0.00  0.00    -0.274 OA
ATOM      9  N   UNL     1      13.674  11.337  16.697  0.00  0.00    -0.328 N 
ATOM     24  C   UNL     1      13.517  10.529  15.591  0.00  0.00    +0.228 C 
ATOM     30  H   UNL     1      13.686  12.347  16.605  0.00  0.00    +0.145 HD
ATOM     31  H   UNL     1      13.782  10.965  17.635  0.00  0.00    +0.145 HD
ENDBRANCH  23  24
ENDBRANCH   8  23
ENDBRANCH  15  19
BRANCH  11   1
ATOM      1  O   UNL     1      10.235   8.307  22.038  0.00  0.00    -0.387 OA
ATOM     26  H   UNL     1       9.900   7.408  21.876  0.00  0.00    +0.210 HD
ENDBRANCH  11   1
BRANCH  12   2
ATOM      2  O   UNL     1      13.515   6.719  21.723  0.00  0.00    -0.389 OA
ATOM     27  H   UNL     1      13.591   6.217  22.553  0.00  0.00    +0.210 HD
ENDBRANCH  12   2
TORSDOF 9
ENDMDL
MODEL 4
REMARK VINA RESULT:      -6.3      3.492      5.120
REMARK  Name = 11865702
REMARK  12 active torsions:
REMARK  status: ('A' for Active; 'I' for Inactive)
REMARK    1  A    between atoms: O_1  and  C_11
REMARK    2  A    between atoms: O_2  and  C_12
REMARK    3  A    between atoms: N_6  and  C_10
REMARK    4  A    between atoms: N_7  and  C_16
REMARK    5  A    between atoms: N_7  and  C_22
REMARK    6  A    between atoms: N_8  and  C_23
REMARK    7  A    between atoms: C_15  and  C_19
REMARK    8  A    between atoms: C_16  and  C_17
REMARK    9  A    between atoms: C_16  and  C_18
REMARK   10  A    between atoms: C_17  and  C_20
REMARK   11  A    between atoms: C_17  and  C_21
REMARK   12  A    between atoms: C_23  and  C_24
REMARK                            x       y       z     vdW  Elec       q    Type
REMARK                         _______ _______ _______ _____ _____    ______ ____
ROOT
ATOM     10  C   UNL     1      13.312   9.040  20.675  0.00  0.00    +0.127 C 
ATOM     11  C   UNL     1      12.518   7.725  20.786  0.00  0.00    +0.167 C 
ATOM     12  C   UNL     1      11.005   7.980  20.794  0.00  0.00    +0.149 C 
ATOM     13  C   UNL     1      10.588   8.951  21.912  0.00  0.00    +0.074 C 
ATOM     14  C   UNL     1      12.784  10.132  21.564  0.00  0.00    +0.006 C 
ATOM     15  C   UNL     1      11.564  10.076  22.119  0.00  0.00    +0.015 C 
ENDROOT
BRANCH  10   6
ATOM      3  O   UNL     1      15.341   8.166  18.833  0.00  0.00    -0.274 OA
ATOM      6  N   UNL     1      14.713   8.843  20.960  0.00  0.00    -0.305 N 
ATOM     18  C   UNL     1      15.622   8.417  20.004  0.00  0.00    +0.231 C 
ATOM     25  H   UNL     1      15.031   8.984  21.915  0.00  0.00    +0.149 HD
BRANCH  18  16
ATOM     16  C   UNL     1      17.038   8.276  20.563  0.00  0.00    +0.143 C 
BRANCH  16   7
ATOM      7  N   UNL     1      17.101   9.093  21.777  0.00  0.00    -0.309 NA
ATOM     22  C   UNL     1      18.177  10.067  21.684  0.00  0.00    +0.101 C 
ATOM     28  H   UNL     1      17.282   8.494  22.582  0.00  0.00    +0.122 HD
ENDBRANCH  16   7
BRANCH  16  17
ATOM     17  C   UNL     1      17.437   6.810  20.852  0.00  0.00    +0.009 C 
ATOM     20  C   UNL     1      17.994   6.064  19.634  0.00  0.00    +0.009 C 
ATOM     21  C   UNL     1      16.278   6.013  21.459  0.00  0.00    +0.009 C 
ENDBRANCH  16  17
ENDBRANCH  18  16
ENDBRANCH  10   6
BRANCH  15  19
ATOM      4  O   UNL     1      10.707  12.234  22.474  0.00  0.00    -0.271 OA
ATOM      8  N   UNL     1      11.328  10.949  24.317  0.00  0.00    -0.303 N 
ATOM     19  C   UNL     1      11.154  11.199  22.967  0.00  0.00    +0.240 C 
ATOM     29  H   UNL     1      11.704  10.054  24.619  0.00  0.00    +0.150 HD
BRANCH   8  23
ATOM     23  C   UNL     1      10.998  11.908  25.347  0.00  0.00    +0.200 C 
BRANCH  23  24
ATOM      5  O   UNL     1      13.119  12.583  26.299  0.00  0.00    -0.274 OA
ATOM      9  N   UNL     1      12.015  14.036  24.901  0.00  0.00    -0.328 N 
ATOM     24  C   UNL     1      12.166  12.840  25.569  0.00  0.00    +0.228 C 
ATOM     30  H   UNL     1      12.719  14.764  24.971  0.00  0.00    +0.145 HD
ATOM     31  H   UNL     1      11.209  14.240  24.319  0.00  0.00    +0.145 HD
ENDBRANCH  23  24
ENDBRANCH   8  23
ENDBRANCH  15  19
BRANCH  11   1
ATOM      1  O   UNL     1      12.876   7.050  21.994  0.00  0.00    -0.387 OA
ATOM     26  H   UNL     1      13.453   7.645  22.502  0.00  0.00    +0.210 HD
ENDBRANCH  11   1
BRANCH  12   2
ATOM      2  O   UNL     1      10.587   8.482  19.527  0.00  0.00    -0.389 OA
ATOM     27  H   UNL     1      11.378   8.564  18.968  0.00  0.00    +0.210 HD
ENDBRANCH  12   2
TORSDOF 9
ENDMDL
MODEL 5
REMARK VINA RESULT:      -6.3     12.341     15.437
REMARK  Name = 11865702
REMARK  12 active torsions:
REMARK  status: ('A' for Active; 'I' for Inactive)
REMARK    1  A    between atoms: O_1  and  C_11
REMARK    2  A    between atoms: O_2  and  C_12
REMARK    3  A    between atoms: N_6  and  C_10
REMARK    4  A    between atoms: N_7  and  C_16
REMARK    5  A    between atoms: N_7  and  C_22
REMARK    6  A    between atoms: N_8  and  C_23
REMARK    7  A    between atoms: C_15  and  C_19
REMARK    8  A    between atoms: C_16  and  C_17
REMARK    9  A    between atoms: C_16  and  C_18
REMARK   10  A    between atoms: C_17  and  C_20
REMARK   11  A    between atoms: C_17  and  C_21
REMARK   12  A    between atoms: C_23  and  C_24
REMARK                            x       y       z     vdW  Elec       q    Type
REMARK                         _______ _______ _______ _____ _____    ______ ____
ROOT
ATOM     10  C   UNL     1      12.560   7.663   5.924  0.00  0.00    +0.127 C 
ATOM     11  C   UNL     1      13.714   7.587   6.942  0.00  0.00    +0.167 C 
ATOM     12  C   UNL     1      15.013   8.164   6.364  0.00  0.00    +0.149 C 
ATOM     13  C   UNL     1      15.416   7.477   5.048  0.00  0.00    +0.074 C 
ATOM     14  C   UNL     1      12.962   7.247   4.536  0.00  0.00    +0.006 C 
ATOM     15  C   UNL     1      14.247   7.160   4.159  0.00  0.00    +0.015 C 
ENDROOT
BRANCH  10   6
ATOM      3  O   UNL     1      10.421   8.484   7.663  0.00  0.00    -0.274 OA
ATOM      6  N   UNL     1      11.430   6.869   6.340  0.00  0.00    -0.305 N 
ATOM     18  C   UNL     1      10.442   7.351   7.186  0.00  0.00    +0.231 C 
ATOM     25  H   UNL     1      11.385   5.902   6.029  0.00  0.00    +0.149 HD
BRANCH  18  16
ATOM     16  C   UNL     1       9.363   6.308   7.481  0.00  0.00    +0.143 C 
BRANCH  16   7
ATOM      7  N   UNL     1       8.991   5.704   6.200  0.00  0.00    -0.309 NA
ATOM     22  C   UNL     1       8.063   6.562   5.478  0.00  0.00    +0.101 C 
ATOM     28  H   UNL     1       8.533   4.808   6.365  0.00  0.00    +0.122 HD
ENDBRANCH  16   7
BRANCH  16  17
ATOM     17  C   UNL     1       9.814   5.234   8.498  0.00  0.00    +0.009 C 
ATOM     20  C   UNL     1       9.891   3.818   7.916  0.00  0.00    +0.009 C 
ATOM     21  C   UNL     1       8.932   5.230   9.750  0.00  0.00    +0.009 C 
ENDBRANCH  16  17
ENDBRANCH  18  16
ENDBRANCH  10   6
BRANCH  15  19
ATOM      4  O   UNL     1      15.256   7.414   2.052  0.00  0.00    -0.271 OA
ATOM      8  N   UNL     1      13.875   5.574   2.429  0.00  0.00    -0.303 N 
ATOM     19  C   UNL     1      14.520   6.747   2.779  0.00  0.00    +0.240 C 
ATOM     29  H   UNL     1      13.290   5.098   3.109  0.00  0.00    +0.150 HD
BRANCH   8  23
ATOM     23  C   UNL     1      13.990   4.970   1.120  0.00  0.00    +0.200 C 
BRANCH  23  24
ATOM      5  O   UNL     1      15.995   4.079   0.098  0.00  0.00    -0.274 OA
ATOM      9  N   UNL     1      15.390   3.339   2.189  0.00  0.00    -0.328 N 
ATOM     24  C   UNL     1      15.234   4.115   1.060  0.00  0.00    +0.228 C 
ATOM     30  H   UNL     1      16.176   2.704   2.279  0.00  0.00    +0.145 HD
ATOM     31  H   UNL     1      14.738   3.366   2.966  0.00  0.00    +0.145 HD
ENDBRANCH  23  24
ENDBRANCH   8  23
ENDBRANCH  15  19
BRANCH  11   1
ATOM      1  O   UNL     1      13.941   6.224   7.309  0.00  0.00    -0.387 OA
ATOM     26  H   UNL     1      13.420   6.047   8.110  0.00  0.00    +0.210 HD
ENDBRANCH  11   1
BRANCH  12   2
ATOM      2  O   UNL     1      14.877   9.569   6.162  0.00  0.00    -0.389 OA
ATOM     27  H   UNL     1      14.161   9.881   6.741  0.00  0.00    +0.210 HD
ENDBRANCH  12   2
TORSDOF 9
ENDMDL
MODEL 6
REMARK VINA RESULT:      -6.3     30.256     31.527
REMARK  Name = 11865702
REMARK  12 active torsions:
REMARK  status: ('A' for Active; 'I' for Inactive)
REMARK    1  A    between atoms: O_1  and  C_11
REMARK    2  A    between atoms: O_2  and  C_12
REMARK    3  A    between atoms: N_6  and  C_10
REMARK    4  A    between atoms: N_7  and  C_16
REMARK    5  A    between atoms: N_7  and  C_22
REMARK    6  A    between atoms: N_8  and  C_23
REMARK    7  A    between atoms: C_15  and  C_19
REMARK    8  A    between atoms: C_16  and  C_17
REMARK    9  A    between atoms: C_16  and  C_18
REMARK   10  A    between atoms: C_17  and  C_20
REMARK   11  A    between atoms: C_17  and  C_21
REMARK   12  A    between atoms: C_23  and  C_24
REMARK                            x       y       z     vdW  Elec       q    Type
REMARK                         _______ _______ _______ _____ _____    ______ ____
ROOT
ATOM     10  C   UNL     1     -13.747   2.876  30.883  0.00  0.00    +0.127 C 
ATOM     11  C   UNL     1     -14.003   1.552  31.626  0.00  0.00    +0.167 C 
ATOM     12  C   UNL     1     -14.215   0.389  30.648  0.00  0.00    +0.149 C 
ATOM     13  C   UNL     1     -15.353   0.670  29.653  0.00  0.00    +0.074 C 
ATOM     14  C   UNL     1     -14.672   3.093  29.717  0.00  0.00    +0.006 C 
ATOM     15  C   UNL     1     -15.393   2.096  29.180  0.00  0.00    +0.015 C 
ENDROOT
BRANCH  10   6
ATOM      3  O   UNL     1     -16.142   4.266  31.659  0.00  0.00    -0.274 OA
ATOM      6  N   UNL     1     -13.840   4.011  31.769  0.00  0.00    -0.305 N 
ATOM     18  C   UNL     1     -15.044   4.620  32.088  0.00  0.00    +0.231 C 
ATOM     25  H   UNL     1     -12.977   4.400  32.139  0.00  0.00    +0.149 HD
BRANCH  18  16
ATOM     16  C   UNL     1     -14.869   5.805  33.036  0.00  0.00    +0.143 C 
BRANCH  16   7
ATOM      7  N   UNL     1     -13.923   5.388  34.072  0.00  0.00    -0.309 NA
ATOM     22  C   UNL     1     -14.629   4.922  35.255  0.00  0.00    +0.101 C 
ATOM     28  H   UNL     1     -13.339   6.179  34.341  0.00  0.00    +0.122 HD
ENDBRANCH  16   7
BRANCH  16  17
ATOM     17  C   UNL     1     -14.389   7.091  32.323  0.00  0.00    +0.009 C 
ATOM     20  C   UNL     1     -12.979   7.538  32.726  0.00  0.00    +0.009 C 
ATOM     21  C   UNL     1     -15.373   8.250  32.516  0.00  0.00    +0.009 C 
ENDBRANCH  16  17
ENDBRANCH  18  16
ENDBRANCH  10   6
BRANCH  15  19
ATOM      4  O   UNL     1     -17.330   1.840  27.875  0.00  0.00    -0.271 OA
ATOM      8  N   UNL     1     -15.739   3.421  27.238  0.00  0.00    -0.303 N 
ATOM     19  C   UNL     1     -16.260   2.424  28.044  0.00  0.00    +0.240 C 
ATOM     29  H   UNL     1     -14.844   3.841  27.470  0.00  0.00    +0.150 HD
BRANCH   8  23
ATOM     23  C   UNL     1     -16.412   3.912  26.056  0.00  0.00    +0.200 C 
BRANCH  23  24
ATOM      5  O   UNL     1     -16.209   2.212  24.345  0.00  0.00    -0.274 OA
ATOM      9  N   UNL     1     -14.740   3.981  24.334  0.00  0.00    -0.328 N 
ATOM     24  C   UNL     1     -15.815   3.270  24.826  0.00  0.00    +0.228 C 
ATOM     30  H   UNL     1     -14.233   3.658  23.517  0.00  0.00    +0.145 HD
ATOM     31  H   UNL     1     -14.415   4.844  24.758  0.00  0.00    +0.145 HD
ENDBRANCH  23  24
ENDBRANCH   8  23
ENDBRANCH  15  19
BRANCH  11   1
ATOM      1  O   UNL     1     -15.167   1.679  32.446  0.00  0.00    -0.387 OA
ATOM     26  H   UNL     1     -15.503   0.783  32.618  0.00  0.00    +0.210 HD
ENDBRANCH  11   1
BRANCH  12   2
ATOM      2  O   UNL     1     -13.005   0.115  29.944  0.00  0.00    -0.389 OA
ATOM     27  H   UNL     1     -12.961  -0.847  29.801  0.00  0.00    +0.210 HD
ENDBRANCH  12   2
TORSDOF 9
ENDMDL
MODEL 7
REMARK VINA RESULT:      -6.3      1.848      2.276
REMARK  Name = 11865702
REMARK  12 active torsions:
REMARK  status: ('A' for Active; 'I' for Inactive)
REMARK    1  A    between atoms: O_1  and  C_11
REMARK    2  A    between atoms: O_2  and  C_12
REMARK    3  A    between atoms: N_6  and  C_10
REMARK    4  A    between atoms: N_7  and  C_16
REMARK    5  A    between atoms: N_7  and  C_22
REMARK    6  A    between atoms: N_8  and  C_23
REMARK    7  A    between atoms: C_15  and  C_19
REMARK    8  A    between atoms: C_16  and  C_17
REMARK    9  A    between atoms: C_16  and  C_18
REMARK   10  A    between atoms: C_17  and  C_20
REMARK   11  A    between atoms: C_17  and  C_21
REMARK   12  A    between atoms: C_23  and  C_24
REMARK                            x       y       z     vdW  Elec       q    Type
REMARK                         _______ _______ _______ _____ _____    ______ ____
ROOT
ATOM     10  C   UNL     1      15.247   7.125  20.756  0.00  0.00    +0.127 C 
ATOM     11  C   UNL     1      14.242   7.644  21.802  0.00  0.00    +0.167 C 
ATOM     12  C   UNL     1      12.794   7.371  21.375  0.00  0.00    +0.149 C 
ATOM     13  C   UNL     1      12.477   7.963  19.992  0.00  0.00    +0.074 C 
ATOM     14  C   UNL     1      14.854   7.449  19.341  0.00  0.00    +0.006 C 
ATOM     15  C   UNL     1      13.610   7.832  19.013  0.00  0.00    +0.015 C 
ENDROOT
BRANCH  10   6
ATOM      3  O   UNL     1      17.729   5.779  20.208  0.00  0.00    -0.274 OA
ATOM      6  N   UNL     1      16.576   7.630  20.998  0.00  0.00    -0.305 N 
ATOM     18  C   UNL     1      17.722   6.906  20.700  0.00  0.00    +0.231 C 
ATOM     25  H   UNL     1      16.669   8.539  21.444  0.00  0.00    +0.149 HD
BRANCH  18  16
ATOM     16  C   UNL     1      19.001   7.660  21.062  0.00  0.00    +0.143 C 
BRANCH  16   7
ATOM      7  N   UNL     1      18.760   8.319  22.347  0.00  0.00    -0.309 NA
ATOM     22  C   UNL     1      19.174   9.713  22.295  0.00  0.00    +0.101 C 
ATOM     28  H   UNL     1      19.300   7.854  23.076  0.00  0.00    +0.122 HD
ENDBRANCH  16   7
BRANCH  16  17
ATOM     17  C   UNL     1      20.249   6.749  21.124  0.00  0.00    +0.009 C 
ATOM     20  C   UNL     1      20.581   6.241  22.532  0.00  0.00    +0.009 C 
ATOM     21  C   UNL     1      21.481   7.428  20.517  0.00  0.00    +0.009 C 
ENDBRANCH  16  17
ENDBRANCH  18  16
ENDBRANCH  10   6
BRANCH  15  19
ATOM      4  O   UNL     1      12.441   7.537  16.996  0.00  0.00    -0.271 OA
ATOM      8  N   UNL     1      14.187   9.080  17.074  0.00  0.00    -0.303 N 
ATOM     19  C   UNL     1      13.341   8.120  17.601  0.00  0.00    +0.240 C 
ATOM     29  H   UNL     1      14.899   9.502  17.665  0.00  0.00    +0.150 HD
BRANCH   8  23
ATOM     23  C   UNL     1      14.117   9.528  15.702  0.00  0.00    +0.200 C 
BRANCH  23  24
ATOM      5  O   UNL     1      15.329  11.550  16.250  0.00  0.00    -0.274 OA
ATOM      9  N   UNL     1      15.775  10.492  14.258  0.00  0.00    -0.328 N 
ATOM     24  C   UNL     1      15.132  10.623  15.470  0.00  0.00    +0.228 C 
ATOM     30  H   UNL     1      16.474  11.167  13.965  0.00  0.00    +0.145 HD
ATOM     31  H   UNL     1      15.583   9.730  13.616  0.00  0.00    +0.145 HD
ENDBRANCH  23  24
ENDBRANCH   8  23
ENDBRANCH  15  19
BRANCH  11   1
ATOM      1  O   UNL     1      14.412   9.053  21.973  0.00  0.00    -0.387 OA
ATOM     26  H   UNL     1      14.973   9.370  21.245  0.00  0.00    +0.210 HD
ENDBRANCH  11   1
BRANCH  12   2
ATOM      2  O   UNL     1      12.539   5.968  21.377  0.00  0.00    -0.389 OA
ATOM     27  H   UNL     1      11.634   5.835  21.708  0.00  0.00    +0.210 HD
ENDBRANCH  12   2
TORSDOF 9
ENDMDL
MODEL 8
REMARK VINA RESULT:      -6.2      3.809      7.017
REMARK  Name = 11865702
REMARK  12 active torsions:
REMARK  status: ('A' for Active; 'I' for Inactive)
REMARK    1  A    between atoms: O_1  and  C_11
REMARK    2  A    between atoms: O_2  and  C_12
REMARK    3  A    between atoms: N_6  and  C_10
REMARK    4  A    between atoms: N_7  and  C_16
REMARK    5  A    between atoms: N_7  and  C_22
REMARK    6  A    between atoms: N_8  and  C_23
REMARK    7  A    between atoms: C_15  and  C_19
REMARK    8  A    between atoms: C_16  and  C_17
REMARK    9  A    between atoms: C_16  and  C_18
REMARK   10  A    between atoms: C_17  and  C_20
REMARK   11  A    between atoms: C_17  and  C_21
REMARK   12  A    between atoms: C_23  and  C_24
REMARK                            x       y       z     vdW  Elec       q    Type
REMARK                         _______ _______ _______ _____ _____    ______ ____
ROOT
ATOM     10  C   UNL     1      13.622   8.905  22.060  0.00  0.00    +0.127 C 
ATOM     11  C   UNL     1      13.075   8.593  20.654  0.00  0.00    +0.167 C 
ATOM     12  C   UNL     1      13.773   7.374  20.036  0.00  0.00    +0.149 C 
ATOM     13  C   UNL     1      15.300   7.545  19.988  0.00  0.00    +0.074 C 
ATOM     14  C   UNL     1      15.122   8.830  22.145  0.00  0.00    +0.006 C 
ATOM     15  C   UNL     1      15.863   8.224  21.205  0.00  0.00    +0.015 C 
ENDROOT
BRANCH  10   6
ATOM      3  O   UNL     1      11.080   9.562  23.233  0.00  0.00    -0.274 OA
ATOM      6  N   UNL     1      13.193  10.202  22.523  0.00  0.00    -0.305 N 
ATOM     18  C   UNL     1      11.942  10.426  23.078  0.00  0.00    +0.231 C 
ATOM     25  H   UNL     1      13.825  10.988  22.396  0.00  0.00    +0.149 HD
BRANCH  18  16
ATOM     16  C   UNL     1      11.731  11.887  23.477  0.00  0.00    +0.143 C 
BRANCH  16   7
ATOM      7  N   UNL     1      10.507  12.339  22.812  0.00  0.00    -0.309 NA
ATOM     22  C   UNL     1      10.819  13.277  21.745  0.00  0.00    +0.101 C 
ATOM     28  H   UNL     1       9.908  12.813  23.487  0.00  0.00    +0.122 HD
ENDBRANCH  16   7
BRANCH  16  17
ATOM     17  C   UNL     1      11.649  12.096  25.007  0.00  0.00    +0.009 C 
ATOM     20  C   UNL     1      10.627  13.154  25.438  0.00  0.00    +0.009 C 
ATOM     21  C   UNL     1      13.019  12.426  25.610  0.00  0.00    +0.009 C 
ENDBRANCH  16  17
ENDBRANCH  18  16
ENDBRANCH  10   6
BRANCH  15  19
ATOM      4  O   UNL     1      17.983   9.236  21.257  0.00  0.00    -0.271 OA
ATOM      8  N   UNL     1      17.806   6.960  21.727  0.00  0.00    -0.303 N 
ATOM     19  C   UNL     1      17.317   8.210  21.394  0.00  0.00    +0.240 C 
ATOM     29  H   UNL     1      17.166   6.176  21.818  0.00  0.00    +0.150 HD
BRANCH   8  23
ATOM     23  C   UNL     1      19.209   6.698  21.961  0.00  0.00    +0.200 C 
BRANCH  23  24
ATOM      5  O   UNL     1      21.025   6.598  20.364  0.00  0.00    -0.274 OA
ATOM      9  N   UNL     1      19.026   5.591  19.838  0.00  0.00    -0.328 N 
ATOM     24  C   UNL     1      19.875   6.294  20.666  0.00  0.00    +0.228 C 
ATOM     30  H   UNL     1      19.337   5.269  18.927  0.00  0.00    +0.145 HD
ATOM     31  H   UNL     1      18.070   5.369  20.096  0.00  0.00    +0.145 HD
ENDBRANCH  23  24
ENDBRANCH   8  23
ENDBRANCH  15  19
BRANCH  11   1
ATOM      1  O   UNL     1      13.279   9.721  19.799  0.00  0.00    -0.387 OA
ATOM     26  H   UNL     1      14.183   9.660  19.446  0.00  0.00    +0.210 HD
ENDBRANCH  11   1
BRANCH  12   2
ATOM      2  O   UNL     1      13.434   6.195  20.763  0.00  0.00    -0.389 OA
ATOM     27  H   UNL     1      14.224   5.628  20.787  0.00  0.00    +0.210 HD
ENDBRANCH  12   2
TORSDOF 9
ENDMDL
MODEL 9
REMARK VINA RESULT:      -6.1     12.029     14.681
REMARK  Name = 11865702
REMARK  12 active torsions:
REMARK  status: ('A' for Active; 'I' for Inactive)
REMARK    1  A    between atoms: O_1  and  C_11
REMARK    2  A    between atoms: O_2  and  C_12
REMARK    3  A    between atoms: N_6  and  C_10
REMARK    4  A    between atoms: N_7  and  C_16
REMARK    5  A    between atoms: N_7  and  C_22
REMARK    6  A    between atoms: N_8  and  C_23
REMARK    7  A    between atoms: C_15  and  C_19
REMARK    8  A    between atoms: C_16  and  C_17
REMARK    9  A    between atoms: C_16  and  C_18
REMARK   10  A    between atoms: C_17  and  C_20
REMARK   11  A    between atoms: C_17  and  C_21
REMARK   12  A    between atoms: C_23  and  C_24
REMARK                            x       y       z     vdW  Elec       q    Type
REMARK                         _______ _______ _______ _____ _____    ______ ____
ROOT
ATOM     10  C   UNL     1      11.324   6.857   6.847  0.00  0.00    +0.127 C 
ATOM     11  C   UNL     1       9.949   6.449   7.408  0.00  0.00    +0.167 C 
ATOM     12  C   UNL     1       9.612   4.991   7.067  0.00  0.00    +0.149 C 
ATOM     13  C   UNL     1       9.670   4.724   5.553  0.00  0.00    +0.074 C 
ATOM     14  C   UNL     1      11.552   6.390   5.435  0.00  0.00    +0.006 C 
ATOM     15  C   UNL     1      10.798   5.438   4.864  0.00  0.00    +0.015 C 
ENDROOT
BRANCH  10   6
ATOM      3  O   UNL     1      13.834   8.247   7.032  0.00  0.00    -0.274 OA
ATOM      6  N   UNL     1      11.519   8.285   6.903  0.00  0.00    -0.305 N 
ATOM     18  C   UNL     1      12.774   8.869   6.992  0.00  0.00    +0.231 C 
ATOM     25  H   UNL     1      10.695   8.881   6.919  0.00  0.00    +0.149 HD
BRANCH  18  16
ATOM     16  C   UNL     1      12.707  10.396   7.048  0.00  0.00    +0.143 C 
BRANCH  16   7
ATOM      7  N   UNL     1      12.740  10.773   8.463  0.00  0.00    -0.309 NA
ATOM     22  C   UNL     1      11.434  11.240   8.900  0.00  0.00    +0.101 C 
ATOM     28  H   UNL     1      13.410  11.529   8.599  0.00  0.00    +0.122 HD
ENDBRANCH  16   7
BRANCH  16  17
ATOM     17  C   UNL     1      13.842  11.086   6.257  0.00  0.00    +0.009 C 
ATOM     20  C   UNL     1      14.994  11.592   7.131  0.00  0.00    +0.009 C 
ATOM     21  C   UNL     1      13.314  12.231   5.386  0.00  0.00    +0.009 C 
ENDBRANCH  16  17
ENDBRANCH  18  16
ENDBRANCH  10   6
BRANCH  15  19
ATOM      4  O   UNL     1      10.284   4.489   2.778  0.00  0.00    -0.271 OA
ATOM      8  N   UNL     1      12.397   5.418   3.106  0.00  0.00    -0.303 N 
ATOM     19  C   UNL     1      11.114   5.062   3.483  0.00  0.00    +0.240 C 
ATOM     29  H   UNL     1      13.003   5.893   3.769  0.00  0.00    +0.150 HD
BRANCH   8  23
ATOM     23  C   UNL     1      12.937   5.149   1.793  0.00  0.00    +0.200 C 
BRANCH  23  24
ATOM      5  O   UNL     1      13.150   2.749   1.557  0.00  0.00    -0.274 OA
ATOM      9  N   UNL     1      14.994   3.972   2.181  0.00  0.00    -0.328 N 
ATOM     24  C   UNL     1      13.675   3.830   1.806  0.00  0.00    +0.228 C 
ATOM     30  H   UNL     1      15.606   3.165   2.247  0.00  0.00    +0.145 HD
ATOM     31  H   UNL     1      15.405   4.873   2.405  0.00  0.00    +0.145 HD
ENDBRANCH  23  24
ENDBRANCH   8  23
ENDBRANCH  15  19
BRANCH  11   1
ATOM      1  O   UNL     1       8.936   7.295   6.859  0.00  0.00    -0.387 OA
ATOM     26  H   UNL     1       9.118   8.202   7.159  0.00  0.00    +0.210 HD
ENDBRANCH  11   1
BRANCH  12   2
ATOM      2  O   UNL     1      10.496   4.110   7.755  0.00  0.00    -0.389 OA
ATOM     27  H   UNL     1      10.806   3.447   7.114  0.00  0.00    +0.210 HD
ENDBRANCH  12   2
TORSDOF 9
ENDMDL
MODEL 10
REMARK VINA RESULT:      -6.0      3.579      5.064
REMARK  Name = 11865702
REMARK  12 active torsions:
REMARK  status: ('A' for Active; 'I' for Inactive)
REMARK    1  A    between atoms: O_1  and  C_11
REMARK    2  A    between atoms: O_2  and  C_12
REMARK    3  A    between atoms: N_6  and  C_10
REMARK    4  A    between atoms: N_7  and  C_16
REMARK    5  A    between atoms: N_7  and  C_22
REMARK    6  A    between atoms: N_8  and  C_23
REMARK    7  A    between atoms: C_15  and  C_19
REMARK    8  A    between atoms: C_16  and  C_17
REMARK    9  A    between atoms: C_16  and  C_18
REMARK   10  A    between atoms: C_17  and  C_20
REMARK   11  A    between atoms: C_17  and  C_21
REMARK   12  A    between atoms: C_23  and  C_24
REMARK                            x       y       z     vdW  Elec       q    Type
REMARK                         _______ _______ _______ _____ _____    ______ ____
ROOT
ATOM     10  C   UNL     1      16.608   7.809  20.689  0.00  0.00    +0.127 C 
ATOM     11  C   UNL     1      15.730   6.570  20.946  0.00  0.00    +0.167 C 
ATOM     12  C   UNL     1      14.258   6.844  20.612  0.00  0.00    +0.149 C 
ATOM     13  C   UNL     1      13.706   8.056  21.380  0.00  0.00    +0.074 C 
ATOM     14  C   UNL     1      15.995   9.088  21.191  0.00  0.00    +0.006 C 
ATOM     15  C   UNL     1      14.693   9.183  21.505  0.00  0.00    +0.015 C 
ENDROOT
BRANCH  10   6
ATOM      3  O   UNL     1      18.658   5.964  19.873  0.00  0.00    -0.274 OA
ATOM      6  N   UNL     1      17.920   7.662  21.269  0.00  0.00    -0.305 N 
ATOM     18  C   UNL     1      18.848   6.740  20.808  0.00  0.00    +0.231 C 
ATOM     25  H   UNL     1      18.153   8.234  22.077  0.00  0.00    +0.149 HD
BRANCH  18  16
ATOM     16  C   UNL     1      20.155   6.778  21.600  0.00  0.00    +0.143 C 
BRANCH  16   7
ATOM      7  N   UNL     1      19.824   6.447  22.987  0.00  0.00    -0.309 NA
ATOM     22  C   UNL     1      20.404   7.420  23.899  0.00  0.00    +0.101 C 
ATOM     28  H   UNL     1      20.202   5.529  23.218  0.00  0.00    +0.122 HD
ENDBRANCH  16   7
BRANCH  16  17
ATOM     17  C   UNL     1      21.236   5.825  21.038  0.00  0.00    +0.009 C 
ATOM     20  C   UNL     1      21.591   4.664  21.974  0.00  0.00    +0.009 C 
ATOM     21  C   UNL     1      22.511   6.579  20.645  0.00  0.00    +0.009 C 
ENDBRANCH  16  17
ENDBRANCH  18  16
ENDBRANCH  10   6
BRANCH  15  19
ATOM      4  O   UNL     1      14.649  11.531  21.523  0.00  0.00    -0.271 OA
ATOM      8  N   UNL     1      13.236  10.365  22.963  0.00  0.00    -0.303 N 
ATOM     19  C   UNL     1      14.205  10.480  21.983  0.00  0.00    +0.240 C 
ATOM     29  H   UNL     1      12.937   9.443  23.271  0.00  0.00    +0.150 HD
BRANCH   8  23
ATOM     23  C   UNL     1      12.606  11.506  23.589  0.00  0.00    +0.200 C 
BRANCH  23  24
ATOM      5  O   UNL     1      11.088  12.110  21.803  0.00  0.00    -0.274 OA
ATOM      9  N   UNL     1      10.222  11.565  23.862  0.00  0.00    -0.328 N 
ATOM     24  C   UNL     1      11.252  11.747  22.964  0.00  0.00    +0.228 C 
ATOM     30  H   UNL     1       9.257  11.707  23.582  0.00  0.00    +0.145 HD
ATOM     31  H   UNL     1      10.378  11.285  24.825  0.00  0.00    +0.145 HD
ENDBRANCH  23  24
ENDBRANCH   8  23
ENDBRANCH  15  19
BRANCH  11   1
ATOM      1  O   UNL     1      15.826   6.192  22.321  0.00  0.00    -0.387 OA
ATOM     26  H   UNL     1      16.464   5.461  22.380  0.00  0.00    +0.210 HD
ENDBRANCH  11   1
BRANCH  12   2
ATOM      2  O   UNL     1      14.103   7.041  19.208  0.00  0.00    -0.389 OA
ATOM     27  H   UNL     1      13.150   7.028  19.013  0.00  0.00    +0.210 HD
ENDBRANCH  12   2
TORSDOF 9
ENDMDL
