REMARK  Name = 51137953
REMARK  7 active torsions:
REMARK  status: ('A' for Active; 'I' for Inactive)
REMARK    1  A    between atoms: N_4  and  C_21
REMARK    2  A    between atoms: C_5  and  C_7
REMARK    3  A    between atoms: C_6  and  C_16
REMARK    4  A    between atoms: C_7  and  C_12
REMARK    5  A    between atoms: C_12  and  C_17
REMARK    6  A    between atoms: C_12  and  C_18
REMARK    7  A    between atoms: C_21  and  C_22
REMARK                            x       y       z     vdW  Elec       q    Type
REMARK                         _______ _______ _______ _____ _____    ______ ____
ROOT
ATOM      2  N   UNL     1       0.344  -0.086  -0.420  0.00  0.00    -0.299 NA
ATOM      3  N   UNL     1       5.058   1.722  -0.297  0.00  0.00    -0.360 N 
ATOM      5  C   UNL     1       1.153  -1.126   0.230  0.00  0.00    +0.085 C 
ATOM      6  C   UNL     1       0.407   1.221   0.219  0.00  0.00    +0.145 C 
ATOM      8  C   UNL     1       2.667  -0.897   0.226  0.00  0.00    -0.021 A 
ATOM      9  C   UNL     1       3.308   0.349  -0.036  0.00  0.00    +0.008 A 
ATOM     10  C   UNL     1       1.421   2.133  -0.467  0.00  0.00    +0.065 C 
ATOM     11  C   UNL     1       2.834   1.673  -0.337  0.00  0.00    -0.020 A 
ATOM     13  C   UNL     1       4.705   0.428   0.005  0.00  0.00    +0.047 A 
ATOM     14  C   UNL     1       3.518  -1.975   0.581  0.00  0.00    +0.006 A 
ATOM     15  C   UNL     1       3.942   2.480  -0.498  0.00  0.00    +0.087 A 
ATOM     19  C   UNL     1       5.527  -0.657   0.312  0.00  0.00    +0.026 A 
ATOM     20  C   UNL     1       4.907  -1.862   0.613  0.00  0.00    +0.002 A 
ATOM     28  H   UNL     1       0.564  -0.021  -1.413  0.00  0.00    +0.123 HD
ATOM     29  H   UNL     1       6.008   2.064  -0.344  0.00  0.00    +0.165 HD
ENDROOT
BRANCH   6  16
ATOM      1  O   UNL     1      -1.266   2.493  -0.911  0.00  0.00    -0.274 OA
ATOM      4  N   UNL     1      -1.796   1.485   1.120  0.00  0.00    -0.310 N 
ATOM     16  C   UNL     1      -0.965   1.802   0.059  0.00  0.00    +0.231 C 
ATOM     30  H   UNL     1      -1.450   0.884   1.862  0.00  0.00    +0.149 HD
BRANCH   4  21
ATOM     21  C   UNL     1      -3.163   1.943   1.217  0.00  0.00    +0.139 C 
BRANCH  21  22
ATOM     22  C   UNL     1      -4.124   0.983   0.578  0.00  0.00    -0.030 A 
ATOM     23  C   UNL     1      -4.451   1.117  -0.771  0.00  0.00    +0.005 A 
ATOM     24  C   UNL     1      -4.690  -0.044   1.334  0.00  0.00    +0.005 A 
ATOM     25  C   UNL     1      -5.344   0.225  -1.365  0.00  0.00    +0.000 A 
ATOM     26  C   UNL     1      -5.583  -0.936   0.741  0.00  0.00    +0.000 A 
ATOM     27  C   UNL     1      -5.910  -0.801  -0.609  0.00  0.00    +0.000 A 
ENDBRANCH  21  22
ENDBRANCH   4  21
ENDBRANCH   6  16
BRANCH   5   7
ATOM      7  C   UNL     1       0.751  -2.432  -0.481  0.00  0.00    +0.026 C 
BRANCH   7  12
ATOM     12  C   UNL     1      -0.608  -2.968  -0.024  0.00  0.00    -0.015 C 
ATOM     17  C   UNL     1      -0.896  -4.290  -0.739  0.00  0.00    +0.007 C 
ATOM     18  C   UNL     1      -1.748  -1.982  -0.283  0.00  0.00    +0.007 C 
ENDBRANCH   7  12
ENDBRANCH   5   7
TORSDOF 5
