REMARK  Name = 45360396
REMARK  12 active torsions:
REMARK  status: ('A' for Active; 'I' for Inactive)
REMARK    1  A    between atoms: O_1  and  C_13
REMARK    2  A    between atoms: O_4  and  C_28
REMARK    3  A    between atoms: O_4  and  C_33
REMARK    4  A    between atoms: O_5  and  C_32
REMARK    5  A    between atoms: O_5  and  C_39
REMARK    6  A    between atoms: N_9  and  C_12
REMARK    7  A    between atoms: N_10  and  C_21
REMARK    8  A    between atoms: C_19  and  C_20
REMARK    9  A    between atoms: C_24  and  C_32
REMARK   10  A    between atoms: C_33  and  C_34
REMARK   11  A    between atoms: C_35  and  C_37
REMARK   12  A    between atoms: C_36  and  C_38
REMARK                            x       y       z     vdW  Elec       q    Type
REMARK                         _______ _______ _______ _____ _____    ______ ____
ROOT
ATOM      2  O   UNL     1      -4.425  -2.645  -1.075  0.00  0.00    -0.252 OA
ATOM      8  N   UNL     1      -4.978  -0.682   0.014  0.00  0.00    -0.284 N 
ATOM     10  N   UNL     1      -2.865  -1.685   0.353  0.00  0.00    -0.269 N 
ATOM     12  C   UNL     1      -3.983   1.629   0.112  0.00  0.00    +0.119 C 
ATOM     13  C   UNL     1      -4.460   1.894  -1.328  0.00  0.00    +0.136 C 
ATOM     14  C   UNL     1      -5.959   1.703  -1.579  0.00  0.00    +0.035 C 
ATOM     15  C   UNL     1      -4.669   0.479   0.859  0.00  0.00    +0.134 C 
ATOM     16  C   UNL     1      -6.347   0.246  -1.844  0.00  0.00    +0.022 C 
ATOM     17  C   UNL     1      -6.300  -0.654  -0.615  0.00  0.00    +0.109 C 
ATOM     18  C   UNL     1      -4.099  -1.749  -0.293  0.00  0.00    +0.307 C 
ATOM     42  H   UNL     1      -2.830  -1.187   1.235  0.00  0.00    +0.156 HD
ENDROOT
BRANCH  10  21
ATOM     21  C   UNL     1      -1.615  -2.172  -0.106  0.00  0.00    +0.049 A 
ATOM     24  C   UNL     1      -0.461  -2.029   0.665  0.00  0.00    +0.080 A 
ATOM     25  C   UNL     1      -1.549  -2.801  -1.348  0.00  0.00    +0.024 A 
ATOM     29  C   UNL     1       0.758  -2.516   0.194  0.00  0.00    +0.017 A 
ATOM     30  C   UNL     1      -0.330  -3.288  -1.820  0.00  0.00    +0.002 A 
ATOM     31  C   UNL     1       0.823  -3.146  -1.049  0.00  0.00    +0.001 A 
BRANCH  24  32
ATOM      6  O   UNL     1      -1.287  -0.477   2.276  0.00  0.00    -0.245 OA
ATOM     32  C   UNL     1      -0.495  -1.374   1.967  0.00  0.00    +0.341 C 
BRANCH  32   5
ATOM      5  O   UNL     1       0.461  -1.878   2.805  0.00  0.00    -0.464 OA
ATOM     39  C   UNL     1       0.528  -1.313   4.119  0.00  0.00    +0.280 C 
ENDBRANCH  32   5
ENDBRANCH  24  32
ENDBRANCH  10  21
BRANCH  12   9
ATOM      3  O   UNL     1      -2.037   3.312   1.385  0.00  0.00    -0.270 OA
ATOM      9  N   UNL     1      -2.544   1.447   0.105  0.00  0.00    -0.305 N 
ATOM     19  C   UNL     1      -1.688   2.318   0.752  0.00  0.00    +0.244 C 
ATOM     40  H   UNL     1      -2.191   0.619  -0.362  0.00  0.00    +0.149 HD
BRANCH  19  20
ATOM     20  C   UNL     1      -0.241   2.007   0.628  0.00  0.00    +0.037 A 
ATOM     22  C   UNL     1       0.647   2.415   1.623  0.00  0.00    +0.016 A 
ATOM     23  C   UNL     1       0.230   1.310  -0.484  0.00  0.00    +0.016 A 
ATOM     26  C   UNL     1       2.007   2.125   1.506  0.00  0.00    +0.046 A 
ATOM     27  C   UNL     1       1.589   1.020  -0.602  0.00  0.00    +0.046 A 
ATOM     28  C   UNL     1       2.478   1.428   0.393  0.00  0.00    +0.121 A 
BRANCH  28   4
ATOM      4  O   UNL     1       3.804   1.144   0.279  0.00  0.00    -0.487 OA
BRANCH   4  33
ATOM     33  C   UNL     1       4.216   0.428  -0.885  0.00  0.00    +0.269 C 
BRANCH  33  34
ATOM      7  O   UNL     1       7.686  -0.786  -0.557  0.00  0.00    -0.359 OA
ATOM     11  N   UNL     1       7.944   0.541  -0.878  0.00  0.00    -0.083 NA
ATOM     34  C   UNL     1       5.696   0.186  -0.812  0.00  0.00    +0.054 A 
ATOM     35  C   UNL     1       6.343  -0.985  -0.521  0.00  0.00    +0.141 A 
ATOM     36  C   UNL     1       6.740   1.102  -1.026  0.00  0.00    +0.087 A 
ATOM     37  C   UNL     1       5.894  -2.344  -0.193  0.00  0.00    +0.089 C 
ATOM     38  C   UNL     1       6.640   2.529  -1.374  0.00  0.00    +0.069 C 
ENDBRANCH  33  34
ENDBRANCH   4  33
ENDBRANCH  28   4
ENDBRANCH  19  20
ENDBRANCH  12   9
BRANCH  13   1
ATOM      1  O   UNL     1      -4.153   3.259  -1.646  0.00  0.00    -0.390 OA
ATOM     41  H   UNL     1      -4.332   3.388  -2.593  0.00  0.00    +0.210 HD
ENDBRANCH  13   1
TORSDOF 9
