REMARK  Name = 40777680
REMARK  10 active torsions:
REMARK  status: ('A' for Active; 'I' for Inactive)
REMARK    1  A    between atoms: N_5  and  C_11
REMARK    2  A    between atoms: N_6  and  C_20
REMARK    3  A    between atoms: N_8  and  C_29
REMARK    4  A    between atoms: N_8  and  C_33
REMARK    5  A    between atoms: N_8  and  C_34
REMARK    6  A    between atoms: C_9  and  C_12
REMARK    7  A    between atoms: C_15  and  C_17
REMARK    8  A    between atoms: C_16  and  C_18
REMARK    9  A    between atoms: C_19  and  C_21
REMARK   10  A    between atoms: C_28  and  C_32
REMARK                            x       y       z     vdW  Elec       q    Type
REMARK                         _______ _______ _______ _____ _____    ______ ____
ROOT
ATOM      9  C   UNL     1       0.317  -0.810   0.586  0.00  0.00    +0.047 C 
ATOM     10  C   UNL     1       0.889   0.483  -0.032  0.00  0.00    +0.039 C 
ATOM     11  C   UNL     1       1.837   1.068   1.022  0.00  0.00    +0.097 C 
ATOM     13  C   UNL     1       0.522  -0.582   2.056  0.00  0.00    -0.021 C 
ATOM     14  C   UNL     1       1.354   0.439   2.288  0.00  0.00    -0.009 C 
ENDROOT
BRANCH   9  12
ATOM      6  N   UNL     1      -3.267  -0.950  -0.157  0.00  0.00    -0.236 N 
ATOM      7  N   UNL     1      -2.942  -2.141  -0.687  0.00  0.00    -0.171 NA
ATOM     12  C   UNL     1      -1.114  -1.082   0.183  0.00  0.00    +0.003 A 
ATOM     15  C   UNL     1      -2.208  -0.276   0.376  0.00  0.00    +0.046 A 
ATOM     16  C   UNL     1      -1.625  -2.217  -0.476  0.00  0.00    +0.064 A 
ATOM     17  C   UNL     1      -2.329   1.053   1.010  0.00  0.00    +0.066 C 
ATOM     18  C   UNL     1      -0.886  -3.409  -0.929  0.00  0.00    +0.068 C 
BRANCH   6  20
ATOM     20  C   UNL     1      -4.593  -0.516  -0.192  0.00  0.00    +0.066 A 
ATOM     22  C   UNL     1      -5.590  -1.267   0.432  0.00  0.00    +0.028 A 
ATOM     23  C   UNL     1      -4.922   0.666  -0.854  0.00  0.00    +0.028 A 
ATOM     24  C   UNL     1      -6.915  -0.835   0.394  0.00  0.00    +0.014 A 
ATOM     25  C   UNL     1      -6.248   1.098  -0.893  0.00  0.00    +0.014 A 
ATOM     28  C   UNL     1      -7.245   0.348  -0.269  0.00  0.00    +0.055 A 
BRANCH  28  32
ATOM      1  F   UNL     1      -8.856   2.035   0.260  0.00  0.00    -0.166 F 
ATOM      2  F   UNL     1      -9.509  -0.037   0.346  0.00  0.00    -0.166 F 
ATOM      3  F   UNL     1      -9.164   0.921  -1.575  0.00  0.00    -0.166 F 
ATOM     32  C   UNL     1      -8.662   0.809  -0.310  0.00  0.00    +0.417 C 
ENDBRANCH  28  32
ENDBRANCH   6  20
ENDBRANCH   9  12
BRANCH  11   5
ATOM      4  O   UNL     1       3.812   2.570  -0.424  0.00  0.00    -0.270 OA
ATOM      5  N   UNL     1       3.209   0.696   0.804  0.00  0.00    -0.305 N 
ATOM     19  C   UNL     1       4.098   1.490   0.088  0.00  0.00    +0.245 C 
ATOM     35  H   UNL     1       3.495  -0.228   1.114  0.00  0.00    +0.150 HD
BRANCH  19  21
ATOM     21  C   UNL     1       5.473   0.952  -0.071  0.00  0.00    +0.037 A 
ATOM     26  C   UNL     1       6.245   1.326  -1.172  0.00  0.00    +0.015 A 
ATOM     27  C   UNL     1       5.993   0.074   0.879  0.00  0.00    +0.015 A 
ATOM     29  C   UNL     1       8.056  -0.059  -0.371  0.00  0.00    +0.029 A 
ATOM     30  C   UNL     1       7.536   0.820  -1.322  0.00  0.00    +0.024 A 
ATOM     31  C   UNL     1       7.285  -0.432   0.729  0.00  0.00    +0.024 A 
BRANCH  29   8
ATOM      8  N   UNL     1       9.362  -0.570  -0.522  0.00  0.00    -0.336 N 
ATOM     33  C   UNL     1       9.913  -1.477   0.464  0.00  0.00    +0.129 C 
ATOM     34  C   UNL     1      10.172  -0.188  -1.661  0.00  0.00    +0.129 C 
ENDBRANCH  29   8
ENDBRANCH  19  21
ENDBRANCH  11   5
TORSDOF 6
