REMARK  Name = 56774055
REMARK  10 active torsions:
REMARK  status: ('A' for Active; 'I' for Inactive)
REMARK    1  A    between atoms: N_3  and  C_7
REMARK    2  A    between atoms: N_3  and  C_12
REMARK    3  A    between atoms: C_5  and  C_10
REMARK    4  A    between atoms: C_5  and  C_11
REMARK    5  A    between atoms: C_6  and  C_9
REMARK    6  A    between atoms: C_9  and  C_13
REMARK    7  A    between atoms: C_19  and  C_20
REMARK    8  A    between atoms: C_20  and  C_21
REMARK    9  A    between atoms: C_20  and  C_22
REMARK   10  A    between atoms: C_20  and  C_23
REMARK                            x       y       z     vdW  Elec       q    Type
REMARK                         _______ _______ _______ _____ _____    ______ ____
ROOT
ATOM      5  C   UNL     1      -1.323   1.669   0.062  0.00  0.00    -0.016 C 
ATOM      6  C   UNL     1       0.118   1.271   0.442  0.00  0.00    +0.004 C 
ATOM      7  C   UNL     1      -1.739   0.233   0.443  0.00  0.00    +0.060 C 
ATOM      8  C   UNL     1      -0.286  -0.187   0.137  0.00  0.00    +0.023 C 
ATOM     10  C   UNL     1      -1.482   2.086  -1.385  0.00  0.00    +0.013 C 
ATOM     11  C   UNL     1      -1.975   2.710   0.956  0.00  0.00    +0.013 C 
ENDROOT
BRANCH   7   3
ATOM      3  N   UNL     1      -2.626  -0.349  -0.569  0.00  0.00    -0.310 NA
ATOM     24  H   UNL     1      -2.376  -1.296  -0.854  0.00  0.00    +0.122 HD
BRANCH   3  12
ATOM      1  O   UNL     1      -6.567  -1.627   0.106  0.00  0.00    -0.380 OA
ATOM     12  C   UNL     1      -3.998  -0.340  -0.069  0.00  0.00    +0.058 C 
ATOM     14  C   UNL     1      -4.257  -1.534   0.855  0.00  0.00    +0.047 C 
ATOM     15  C   UNL     1      -4.990  -0.355  -1.236  0.00  0.00    +0.047 C 
ATOM     16  C   UNL     1      -5.726  -1.583   1.259  0.00  0.00    +0.161 C 
ATOM     17  C   UNL     1      -6.419  -0.469  -0.716  0.00  0.00    +0.161 C 
ENDBRANCH   3  12
ENDBRANCH   7   3
BRANCH   6   9
ATOM      9  C   UNL     1       1.233   1.809  -0.426  0.00  0.00    +0.063 C 
BRANCH   9  13
ATOM      2  O   UNL     1       4.421   0.723   0.871  0.00  0.00    -0.359 OA
ATOM      4  N   UNL     1       3.341   1.596   0.834  0.00  0.00    -0.083 NA
ATOM     13  C   UNL     1       2.531   1.106  -0.109  0.00  0.00    +0.084 A 
ATOM     18  C   UNL     1       3.043  -0.065  -0.696  0.00  0.00    +0.071 A 
ATOM     19  C   UNL     1       4.232  -0.262  -0.045  0.00  0.00    +0.143 A 
BRANCH  19  20
ATOM     20  C   UNL     1       5.286  -1.279  -0.140  0.00  0.00    +0.023 C 
ATOM     21  C   UNL     1       6.511  -1.104   0.834  0.00  0.00    +0.019 C 
ATOM     22  C   UNL     1       4.745  -2.720   0.164  0.00  0.00    +0.019 C 
ATOM     23  C   UNL     1       5.926  -1.331  -1.572  0.00  0.00    +0.019 C 
ENDBRANCH  19  20
ENDBRANCH   9  13
ENDBRANCH   6   9
TORSDOF 5
