MODEL 1
REMARK VINA RESULT:      -6.6      0.000      0.000
REMARK  Name = 7164881
REMARK  11 active torsions:
REMARK  status: ('A' for Active; 'I' for Inactive)
REMARK    1  A    between atoms: O_5  and  C_22
REMARK    2  A    between atoms: O_5  and  C_35
REMARK    3  A    between atoms: O_7  and  C_34
REMARK    4  A    between atoms: O_7  and  C_39
REMARK    5  A    between atoms: N_10  and  C_19
REMARK    6  A    between atoms: N_11  and  C_25
REMARK    7  A    between atoms: C_12  and  C_16
REMARK    8  A    between atoms: C_17  and  C_21
REMARK    9  A    between atoms: C_19  and  C_20
REMARK   10  A    between atoms: C_19  and  C_22
REMARK   11  A    between atoms: C_20  and  C_23
REMARK                            x       y       z     vdW  Elec       q    Type
REMARK                         _______ _______ _______ _____ _____    ______ ____
ROOT
ATOM      3  O   UNL     1      10.628  10.273  22.981  0.00  0.00    -0.269 OA
ATOM      4  O   UNL     1      17.226   9.480  20.990  0.00  0.00    -0.252 OA
ATOM      8  N   UNL     1      12.809  11.047  22.875  0.00  0.00    -0.283 N 
ATOM      9  N   UNL     1      15.535  10.797  21.861  0.00  0.00    -0.282 N 
ATOM     11  N   UNL     1      17.415  11.796  20.850  0.00  0.00    -0.269 N 
ATOM     12  C   UNL     1      13.262   9.835  22.189  0.00  0.00    +0.179 C 
ATOM     13  C   UNL     1      14.771   9.622  22.293  0.00  0.00    +0.141 C 
ATOM     14  C   UNL     1      13.835  12.048  23.198  0.00  0.00    +0.128 C 
ATOM     15  C   UNL     1      14.947  12.109  22.156  0.00  0.00    +0.128 C 
ATOM     17  C   UNL     1      11.457  11.136  23.273  0.00  0.00    +0.254 C 
ATOM     18  C   UNL     1      16.779  10.608  21.213  0.00  0.00    +0.307 C 
ATOM     41  H   UNL     1      16.946  12.675  21.036  0.00  0.00    +0.156 HD
ENDROOT
BRANCH  11  25
ATOM     25  C   UNL     1      18.662  11.946  20.194  0.00  0.00    +0.035 A 
ATOM     30  C   UNL     1      19.830  11.480  20.799  0.00  0.00    +0.023 A 
ATOM     31  C   UNL     1      18.722  12.560  18.943  0.00  0.00    +0.023 A 
ATOM     36  C   UNL     1      21.057  11.627  20.152  0.00  0.00    +0.002 A 
ATOM     37  C   UNL     1      19.950  12.707  18.297  0.00  0.00    +0.002 A 
ATOM     38  C   UNL     1      21.117  12.241  18.901  0.00  0.00    +0.000 A 
ENDBRANCH  11  25
BRANCH  17  21
ATOM      1  S   UNL     1      10.577  13.727  23.218  0.00  0.00    -0.092 S 
ATOM     21  C   UNL     1      11.059  12.308  24.046  0.00  0.00    +0.074 A 
ATOM     24  C   UNL     1      11.006  12.465  25.414  0.00  0.00    +0.021 A 
ATOM     28  C   UNL     1      10.563  13.767  25.786  0.00  0.00    +0.008 A 
ATOM     29  C   UNL     1      10.296  14.556  24.690  0.00  0.00    +0.046 A 
ENDBRANCH  17  21
BRANCH  12  16
ATOM      2  O   UNL     1      12.196  10.899  20.334  0.00  0.00    -0.274 OA
ATOM     10  N   UNL     1      13.260   8.856  20.001  0.00  0.00    -0.301 N 
ATOM     16  C   UNL     1      12.846   9.944  20.750  0.00  0.00    +0.236 C 
ATOM     40  H   UNL     1      13.720   8.081  20.470  0.00  0.00    +0.150 HD
BRANCH  10  19
ATOM     19  C   UNL     1      12.968   8.708  18.593  0.00  0.00    +0.186 C 
BRANCH  19  22
ATOM      6  O   UNL     1      12.078   6.518  19.097  0.00  0.00    -0.249 OA
ATOM     22  C   UNL     1      12.172   7.443  18.297  0.00  0.00    +0.328 C 
BRANCH  22   5
ATOM      5  O   UNL     1      11.611   7.468  17.055  0.00  0.00    -0.467 OA
ATOM     35  C   UNL     1      10.721   8.559  16.799  0.00  0.00    +0.280 C 
ENDBRANCH  22   5
ENDBRANCH  19  22
BRANCH  19  20
ATOM     20  C   UNL     1      14.245   8.796  17.745  0.00  0.00    +0.069 C 
BRANCH  20  23
ATOM     23  C   UNL     1      14.470  10.135  17.079  0.00  0.00    -0.045 A 
ATOM     26  C   UNL     1      15.094  11.167  17.780  0.00  0.00    +0.007 A 
ATOM     27  C   UNL     1      14.053  10.338  15.763  0.00  0.00    +0.007 A 
ATOM     32  C   UNL     1      15.301  12.402  17.166  0.00  0.00    +0.046 A 
ATOM     33  C   UNL     1      14.260  11.572  15.149  0.00  0.00    +0.046 A 
ATOM     34  C   UNL     1      14.885  12.604  15.850  0.00  0.00    +0.120 A 
BRANCH  34   7
ATOM      7  O   UNL     1      15.086  13.810  15.252  0.00  0.00    -0.495 OA
ATOM     39  C   UNL     1      14.258  14.125  14.132  0.00  0.00    +0.277 C 
ENDBRANCH  34   7
ENDBRANCH  20  23
ENDBRANCH  19  20
ENDBRANCH  10  19
ENDBRANCH  12  16
TORSDOF 9
ENDMDL
MODEL 2
REMARK VINA RESULT:      -6.3      2.462      3.856
REMARK  Name = 7164881
REMARK  11 active torsions:
REMARK  status: ('A' for Active; 'I' for Inactive)
REMARK    1  A    between atoms: O_5  and  C_22
REMARK    2  A    between atoms: O_5  and  C_35
REMARK    3  A    between atoms: O_7  and  C_34
REMARK    4  A    between atoms: O_7  and  C_39
REMARK    5  A    between atoms: N_10  and  C_19
REMARK    6  A    between atoms: N_11  and  C_25
REMARK    7  A    between atoms: C_12  and  C_16
REMARK    8  A    between atoms: C_17  and  C_21
REMARK    9  A    between atoms: C_19  and  C_20
REMARK   10  A    between atoms: C_19  and  C_22
REMARK   11  A    between atoms: C_20  and  C_23
REMARK                            x       y       z     vdW  Elec       q    Type
REMARK                         _______ _______ _______ _____ _____    ______ ____
ROOT
ATOM      3  O   UNL     1      10.714  10.722  22.524  0.00  0.00    -0.269 OA
ATOM      4  O   UNL     1      17.616  10.190  22.060  0.00  0.00    -0.252 OA
ATOM      8  N   UNL     1      12.820  11.686  22.586  0.00  0.00    -0.283 N 
ATOM      9  N   UNL     1      15.705  11.488  22.192  0.00  0.00    -0.282 N 
ATOM     11  N   UNL     1      17.688  12.384  21.285  0.00  0.00    -0.269 N 
ATOM     12  C   UNL     1      13.476  10.395  22.377  0.00  0.00    +0.179 C 
ATOM     13  C   UNL     1      14.942  10.397  22.806  0.00  0.00    +0.141 C 
ATOM     14  C   UNL     1      13.696  12.851  22.780  0.00  0.00    +0.128 C 
ATOM     15  C   UNL     1      14.991  12.753  21.981  0.00  0.00    +0.128 C 
ATOM     17  C   UNL     1      11.412  11.723  22.694  0.00  0.00    +0.254 C 
ATOM     18  C   UNL     1      17.064  11.275  21.860  0.00  0.00    +0.307 C 
ATOM     41  H   UNL     1      17.137  13.219  21.119  0.00  0.00    +0.156 HD
ENDROOT
BRANCH  11  25
ATOM     25  C   UNL     1      19.031  12.493  20.846  0.00  0.00    +0.035 A 
ATOM     30  C   UNL     1      20.010  12.984  21.711  0.00  0.00    +0.023 A 
ATOM     31  C   UNL     1      19.374  12.109  19.550  0.00  0.00    +0.023 A 
ATOM     36  C   UNL     1      21.332  13.090  21.278  0.00  0.00    +0.002 A 
ATOM     37  C   UNL     1      20.696  12.215  19.119  0.00  0.00    +0.002 A 
ATOM     38  C   UNL     1      21.675  12.706  19.982  0.00  0.00    +0.000 A 
ENDBRANCH  11  25
BRANCH  17  21
ATOM      1  S   UNL     1      10.428  14.088  21.730  0.00  0.00    -0.092 S 
ATOM     21  C   UNL     1      10.794  13.007  23.007  0.00  0.00    +0.074 A 
ATOM     24  C   UNL     1      10.437  13.520  24.235  0.00  0.00    +0.021 A 
ATOM     28  C   UNL     1       9.855  14.815  24.126  0.00  0.00    +0.008 A 
ATOM     29  C   UNL     1       9.790  15.245  22.819  0.00  0.00    +0.046 A 
ENDBRANCH  17  21
BRANCH  12  16
ATOM      2  O   UNL     1      13.290  10.924  20.054  0.00  0.00    -0.274 OA
ATOM     10  N   UNL     1      13.312   8.688  20.702  0.00  0.00    -0.301 N 
ATOM     16  C   UNL     1      13.357  10.054  20.919  0.00  0.00    +0.236 C 
ATOM     40  H   UNL     1      13.288   8.063  21.502  0.00  0.00    +0.150 HD
BRANCH  10  19
ATOM     19  C   UNL     1      13.176   8.100  19.389  0.00  0.00    +0.186 C 
BRANCH  19  22
ATOM      6  O   UNL     1      10.800   8.494  19.581  0.00  0.00    -0.249 OA
ATOM     22  C   UNL     1      11.743   8.153  18.875  0.00  0.00    +0.328 C 
BRANCH  22   5
ATOM      5  O   UNL     1      11.649   7.766  17.572  0.00  0.00    -0.467 OA
ATOM     35  C   UNL     1      10.905   8.640  16.717  0.00  0.00    +0.280 C 
ENDBRANCH  22   5
ENDBRANCH  19  22
BRANCH  19  20
ATOM     20  C   UNL     1      13.748   6.675  19.353  0.00  0.00    +0.069 C 
BRANCH  20  23
ATOM     23  C   UNL     1      15.193   6.562  19.784  0.00  0.00    -0.045 A 
ATOM     26  C   UNL     1      16.180   6.263  18.844  0.00  0.00    +0.007 A 
ATOM     27  C   UNL     1      15.539   6.757  21.122  0.00  0.00    +0.007 A 
ATOM     32  C   UNL     1      17.513   6.159  19.241  0.00  0.00    +0.046 A 
ATOM     33  C   UNL     1      16.871   6.653  21.519  0.00  0.00    +0.046 A 
ATOM     34  C   UNL     1      17.858   6.355  20.579  0.00  0.00    +0.120 A 
BRANCH  34   7
ATOM      7  O   UNL     1      19.159   6.252  20.966  0.00  0.00    -0.495 OA
ATOM     39  C   UNL     1      19.591   7.110  22.022  0.00  0.00    +0.277 C 
ENDBRANCH  34   7
ENDBRANCH  20  23
ENDBRANCH  19  20
ENDBRANCH  10  19
ENDBRANCH  12  16
TORSDOF 9
ENDMDL
MODEL 3
REMARK VINA RESULT:      -6.2     12.352     16.574
REMARK  Name = 7164881
REMARK  11 active torsions:
REMARK  status: ('A' for Active; 'I' for Inactive)
REMARK    1  A    between atoms: O_5  and  C_22
REMARK    2  A    between atoms: O_5  and  C_35
REMARK    3  A    between atoms: O_7  and  C_34
REMARK    4  A    between atoms: O_7  and  C_39
REMARK    5  A    between atoms: N_10  and  C_19
REMARK    6  A    between atoms: N_11  and  C_25
REMARK    7  A    between atoms: C_12  and  C_16
REMARK    8  A    between atoms: C_17  and  C_21
REMARK    9  A    between atoms: C_19  and  C_20
REMARK   10  A    between atoms: C_19  and  C_22
REMARK   11  A    between atoms: C_20  and  C_23
REMARK                            x       y       z     vdW  Elec       q    Type
REMARK                         _______ _______ _______ _____ _____    ______ ____
ROOT
ATOM      3  O   UNL     1      18.069   8.140   2.924  0.00  0.00    -0.269 OA
ATOM      4  O   UNL     1      12.149  10.813   5.359  0.00  0.00    -0.252 OA
ATOM      8  N   UNL     1      16.889   9.252   4.579  0.00  0.00    -0.283 N 
ATOM      9  N   UNL     1      14.355  10.195   5.679  0.00  0.00    -0.282 N 
ATOM     11  N   UNL     1      12.898  10.387   7.521  0.00  0.00    -0.269 N 
ATOM     12  C   UNL     1      15.658   9.232   3.788  0.00  0.00    +0.179 C 
ATOM     13  C   UNL     1      14.642  10.278   4.244  0.00  0.00    +0.141 C 
ATOM     14  C   UNL     1      16.833   9.942   5.875  0.00  0.00    +0.128 C 
ATOM     15  C   UNL     1      15.472   9.813   6.552  0.00  0.00    +0.128 C 
ATOM     17  C   UNL     1      18.066   8.711   4.016  0.00  0.00    +0.254 C 
ATOM     18  C   UNL     1      13.052  10.498   6.138  0.00  0.00    +0.307 C 
ATOM     41  H   UNL     1      13.689  10.075   8.075  0.00  0.00    +0.156 HD
ENDROOT
BRANCH  11  25
ATOM     25  C   UNL     1      11.728  10.620   8.286  0.00  0.00    +0.035 A 
ATOM     30  C   UNL     1      11.736  11.580   9.299  0.00  0.00    +0.023 A 
ATOM     31  C   UNL     1      10.568   9.892   8.024  0.00  0.00    +0.023 A 
ATOM     36  C   UNL     1      10.583  11.810  10.050  0.00  0.00    +0.002 A 
ATOM     37  C   UNL     1       9.416  10.123   8.776  0.00  0.00    +0.002 A 
ATOM     38  C   UNL     1       9.423  11.081   9.789  0.00  0.00    +0.000 A 
ENDBRANCH  11  25
BRANCH  17  21
ATOM      1  S   UNL     1      20.391  10.103   4.406  0.00  0.00    -0.092 S 
ATOM     21  C   UNL     1      19.300   8.838   4.784  0.00  0.00    +0.074 A 
ATOM     24  C   UNL     1      19.755   8.059   5.826  0.00  0.00    +0.021 A 
ATOM     28  C   UNL     1      21.013   8.507   6.320  0.00  0.00    +0.008 A 
ATOM     29  C   UNL     1      21.475   9.610   5.636  0.00  0.00    +0.046 A 
ENDBRANCH  17  21
BRANCH  12  16
ATOM      2  O   UNL     1      15.632   6.957   4.517  0.00  0.00    -0.274 OA
ATOM     10  N   UNL     1      13.880   7.736   3.198  0.00  0.00    -0.301 N 
ATOM     16  C   UNL     1      15.072   7.853   3.892  0.00  0.00    +0.236 C 
ATOM     40  H   UNL     1      13.553   8.522   2.644  0.00  0.00    +0.150 HD
BRANCH  10  19
ATOM     19  C   UNL     1      13.127   6.505   3.121  0.00  0.00    +0.186 C 
BRANCH  19  22
ATOM      6  O   UNL     1      12.760   6.307   0.741  0.00  0.00    -0.249 OA
ATOM     22  C   UNL     1      13.251   5.832   1.760  0.00  0.00    +0.328 C 
BRANCH  22   5
ATOM      5  O   UNL     1      13.944   4.661   1.827  0.00  0.00    -0.467 OA
ATOM     35  C   UNL     1      13.187   3.476   1.563  0.00  0.00    +0.280 C 
ENDBRANCH  22   5
ENDBRANCH  19  22
BRANCH  19  20
ATOM     20  C   UNL     1      11.660   6.721   3.524  0.00  0.00    +0.069 C 
BRANCH  20  23
ATOM     23  C   UNL     1      11.343   6.377   4.962  0.00  0.00    -0.045 A 
ATOM     26  C   UNL     1      10.228   5.594   5.262  0.00  0.00    +0.007 A 
ATOM     27  C   UNL     1      12.164   6.844   5.989  0.00  0.00    +0.007 A 
ATOM     32  C   UNL     1       9.934   5.276   6.588  0.00  0.00    +0.046 A 
ATOM     33  C   UNL     1      11.871   6.527   7.315  0.00  0.00    +0.046 A 
ATOM     34  C   UNL     1      10.757   5.743   7.614  0.00  0.00    +0.120 A 
BRANCH  34   7
ATOM      7  O   UNL     1      10.469   5.434   8.908  0.00  0.00    -0.495 OA
ATOM     39  C   UNL     1       9.566   4.351   9.132  0.00  0.00    +0.277 C 
ENDBRANCH  34   7
ENDBRANCH  20  23
ENDBRANCH  19  20
ENDBRANCH  10  19
ENDBRANCH  12  16
TORSDOF 9
ENDMDL
MODEL 4
REMARK VINA RESULT:      -6.2     13.281     16.825
REMARK  Name = 7164881
REMARK  11 active torsions:
REMARK  status: ('A' for Active; 'I' for Inactive)
REMARK    1  A    between atoms: O_5  and  C_22
REMARK    2  A    between atoms: O_5  and  C_35
REMARK    3  A    between atoms: O_7  and  C_34
REMARK    4  A    between atoms: O_7  and  C_39
REMARK    5  A    between atoms: N_10  and  C_19
REMARK    6  A    between atoms: N_11  and  C_25
REMARK    7  A    between atoms: C_12  and  C_16
REMARK    8  A    between atoms: C_17  and  C_21
REMARK    9  A    between atoms: C_19  and  C_20
REMARK   10  A    between atoms: C_19  and  C_22
REMARK   11  A    between atoms: C_20  and  C_23
REMARK                            x       y       z     vdW  Elec       q    Type
REMARK                         _______ _______ _______ _____ _____    ______ ____
ROOT
ATOM      3  O   UNL     1      15.306   7.337   6.557  0.00  0.00    -0.269 OA
ATOM      4  O   UNL     1       9.352   6.879   3.026  0.00  0.00    -0.252 OA
ATOM      8  N   UNL     1      13.841   8.154   4.960  0.00  0.00    -0.283 N 
ATOM      9  N   UNL     1      11.247   8.064   3.624  0.00  0.00    -0.282 N 
ATOM     11  N   UNL     1       9.337   9.199   2.838  0.00  0.00    -0.269 N 
ATOM     12  C   UNL     1      12.920   7.033   5.153  0.00  0.00    +0.179 C 
ATOM     13  C   UNL     1      11.968   6.836   3.975  0.00  0.00    +0.141 C 
ATOM     14  C   UNL     1      13.486   9.131   3.921  0.00  0.00    +0.128 C 
ATOM     15  C   UNL     1      11.980   9.326   3.785  0.00  0.00    +0.128 C 
ATOM     17  C   UNL     1      15.047   8.176   5.694  0.00  0.00    +0.254 C 
ATOM     18  C   UNL     1       9.920   7.968   3.141  0.00  0.00    +0.307 C 
ATOM     41  H   UNL     1       9.870  10.045   3.010  0.00  0.00    +0.156 HD
ENDROOT
BRANCH  11  25
ATOM     25  C   UNL     1       8.033   9.442   2.339  0.00  0.00    +0.035 A 
ATOM     30  C   UNL     1       6.984   9.698   3.224  0.00  0.00    +0.023 A 
ATOM     31  C   UNL     1       7.798   9.424   0.965  0.00  0.00    +0.023 A 
ATOM     36  C   UNL     1       5.701   9.937   2.732  0.00  0.00    +0.002 A 
ATOM     37  C   UNL     1       6.514   9.663   0.474  0.00  0.00    +0.002 A 
ATOM     38  C   UNL     1       5.465   9.919   1.357  0.00  0.00    +0.000 A 
ENDBRANCH  11  25
BRANCH  17  21
ATOM      1  S   UNL     1      15.836  10.743   6.229  0.00  0.00    -0.092 S 
ATOM     21  C   UNL     1      15.992   9.250   5.404  0.00  0.00    +0.074 A 
ATOM     24  C   UNL     1      17.051   9.256   4.522  0.00  0.00    +0.021 A 
ATOM     28  C   UNL     1      17.743  10.501   4.525  0.00  0.00    +0.008 A 
ATOM     29  C   UNL     1      17.187  11.400   5.407  0.00  0.00    +0.046 A 
ENDBRANCH  17  21
BRANCH  12  16
ATOM      2  O   UNL     1      12.392   8.252   7.139  0.00  0.00    -0.274 OA
ATOM     10  N   UNL     1      11.180   6.327   6.644  0.00  0.00    -0.301 N 
ATOM     16  C   UNL     1      12.146   7.291   6.414  0.00  0.00    +0.236 C 
ATOM     40  H   UNL     1      11.123   5.529   6.018  0.00  0.00    +0.150 HD
BRANCH  10  19
ATOM     19  C   UNL     1      10.315   6.334   7.801  0.00  0.00    +0.186 C 
BRANCH  19  22
ATOM      6  O   UNL     1       9.856   3.968   7.629  0.00  0.00    -0.249 OA
ATOM     22  C   UNL     1      10.073   4.935   8.352  0.00  0.00    +0.328 C 
BRANCH  22   5
ATOM      5  O   UNL     1      10.112   4.905   9.714  0.00  0.00    -0.467 OA
ATOM     35  C   UNL     1       8.868   4.627  10.364  0.00  0.00    +0.280 C 
ENDBRANCH  22   5
ENDBRANCH  19  22
BRANCH  19  20
ATOM     20  C   UNL     1       9.000   7.074   7.512  0.00  0.00    +0.069 C 
BRANCH  20  23
ATOM     23  C   UNL     1       9.115   8.582   7.488  0.00  0.00    -0.045 A 
ATOM     26  C   UNL     1       9.406   9.277   8.662  0.00  0.00    +0.007 A 
ATOM     27  C   UNL     1       8.929   9.276   6.293  0.00  0.00    +0.007 A 
ATOM     32  C   UNL     1       9.512  10.668   8.640  0.00  0.00    +0.046 A 
ATOM     33  C   UNL     1       9.035  10.667   6.271  0.00  0.00    +0.046 A 
ATOM     34  C   UNL     1       9.327  11.362   7.444  0.00  0.00    +0.120 A 
BRANCH  34   7
ATOM      7  O   UNL     1       9.429  12.719   7.424  0.00  0.00    -0.495 OA
ATOM     39  C   UNL     1      10.695  13.269   7.061  0.00  0.00    +0.277 C 
ENDBRANCH  34   7
ENDBRANCH  20  23
ENDBRANCH  19  20
ENDBRANCH  10  19
ENDBRANCH  12  16
TORSDOF 9
ENDMDL
MODEL 5
REMARK VINA RESULT:      -6.1     28.676     31.200
REMARK  Name = 7164881
REMARK  11 active torsions:
REMARK  status: ('A' for Active; 'I' for Inactive)
REMARK    1  A    between atoms: O_5  and  C_22
REMARK    2  A    between atoms: O_5  and  C_35
REMARK    3  A    between atoms: O_7  and  C_34
REMARK    4  A    between atoms: O_7  and  C_39
REMARK    5  A    between atoms: N_10  and  C_19
REMARK    6  A    between atoms: N_11  and  C_25
REMARK    7  A    between atoms: C_12  and  C_16
REMARK    8  A    between atoms: C_17  and  C_21
REMARK    9  A    between atoms: C_19  and  C_20
REMARK   10  A    between atoms: C_19  and  C_22
REMARK   11  A    between atoms: C_20  and  C_23
REMARK                            x       y       z     vdW  Elec       q    Type
REMARK                         _______ _______ _______ _____ _____    ______ ____
ROOT
ATOM      3  O   UNL     1      -5.022 -11.881  17.901  0.00  0.00    -0.269 OA
ATOM      4  O   UNL     1      -6.342  -8.748  11.854  0.00  0.00    -0.252 OA
ATOM      8  N   UNL     1      -6.485 -11.336  16.190  0.00  0.00    -0.283 N 
ATOM      9  N   UNL     1      -6.976 -10.185  13.552  0.00  0.00    -0.282 N 
ATOM     11  N   UNL     1      -7.949 -10.373  11.414  0.00  0.00    -0.269 N 
ATOM     12  C   UNL     1      -5.467 -10.542  15.500  0.00  0.00    +0.179 C 
ATOM     13  C   UNL     1      -6.062  -9.547  14.505  0.00  0.00    +0.141 C 
ATOM     14  C   UNL     1      -7.824 -11.366  15.584  0.00  0.00    +0.128 C 
ATOM     15  C   UNL     1      -7.783 -11.301  14.061  0.00  0.00    +0.128 C 
ATOM     17  C   UNL     1      -6.158 -11.930  17.429  0.00  0.00    +0.254 C 
ATOM     18  C   UNL     1      -7.044  -9.690  12.229  0.00  0.00    +0.307 C 
ATOM     41  H   UNL     1      -8.449 -11.166  11.801  0.00  0.00    +0.156 HD
ENDROOT
BRANCH  11  25
ATOM     25  C   UNL     1      -8.248 -10.124  10.051  0.00  0.00    +0.035 A 
ATOM     30  C   UNL     1      -8.424  -8.814   9.604  0.00  0.00    +0.023 A 
ATOM     31  C   UNL     1      -8.366 -11.188   9.158  0.00  0.00    +0.023 A 
ATOM     36  C   UNL     1      -8.718  -8.570   8.262  0.00  0.00    +0.002 A 
ATOM     37  C   UNL     1      -8.659 -10.943   7.817  0.00  0.00    +0.002 A 
ATOM     38  C   UNL     1      -8.836  -9.634   7.368  0.00  0.00    +0.000 A 
ENDBRANCH  11  25
BRANCH  17  21
ATOM      1  S   UNL     1      -7.791 -11.988  19.626  0.00  0.00    -0.092 S 
ATOM     21  C   UNL     1      -7.223 -12.627  18.143  0.00  0.00    +0.074 A 
ATOM     24  C   UNL     1      -7.884 -13.785  17.793  0.00  0.00    +0.021 A 
ATOM     28  C   UNL     1      -8.869 -14.150  18.756  0.00  0.00    +0.008 A 
ATOM     29  C   UNL     1      -8.923 -13.260  19.805  0.00  0.00    +0.046 A 
ENDBRANCH  17  21
BRANCH  12  16
ATOM      2  O   UNL     1      -4.654 -12.713  14.921  0.00  0.00    -0.274 OA
ATOM     10  N   UNL     1      -3.581 -10.840  14.049  0.00  0.00    -0.301 N 
ATOM     16  C   UNL     1      -4.543 -11.496  14.799  0.00  0.00    +0.236 C 
ATOM     40  H   UNL     1      -3.533  -9.826  14.091  0.00  0.00    +0.150 HD
BRANCH  10  19
ATOM     19  C   UNL     1      -2.558 -11.529  13.297  0.00  0.00    +0.186 C 
BRANCH  19  22
ATOM      6  O   UNL     1      -1.077 -11.544  15.205  0.00  0.00    -0.249 OA
ATOM     22  C   UNL     1      -1.472 -12.111  14.193  0.00  0.00    +0.328 C 
BRANCH  22   5
ATOM      5  O   UNL     1      -1.002 -13.301  13.723  0.00  0.00    -0.467 OA
ATOM     35  C   UNL     1      -1.978 -14.163  13.131  0.00  0.00    +0.280 C 
ENDBRANCH  22   5
ENDBRANCH  19  22
BRANCH  19  20
ATOM     20  C   UNL     1      -1.976 -10.632  12.195  0.00  0.00    +0.069 C 
BRANCH  20  23
ATOM     23  C   UNL     1      -2.887 -10.416  11.008  0.00  0.00    -0.045 A 
ATOM     26  C   UNL     1      -2.924  -9.174  10.373  0.00  0.00    +0.007 A 
ATOM     27  C   UNL     1      -3.692 -11.459  10.548  0.00  0.00    +0.007 A 
ATOM     32  C   UNL     1      -3.765  -8.975   9.278  0.00  0.00    +0.046 A 
ATOM     33  C   UNL     1      -4.533 -11.260   9.453  0.00  0.00    +0.046 A 
ATOM     34  C   UNL     1      -4.569 -10.018   8.818  0.00  0.00    +0.120 A 
BRANCH  34   7
ATOM      7  O   UNL     1      -5.390  -9.823   7.751  0.00  0.00    -0.495 OA
ATOM     39  C   UNL     1      -5.221 -10.695   6.634  0.00  0.00    +0.277 C 
ENDBRANCH  34   7
ENDBRANCH  20  23
ENDBRANCH  19  20
ENDBRANCH  10  19
ENDBRANCH  12  16
TORSDOF 9
ENDMDL
MODEL 6
REMARK VINA RESULT:      -6.1     28.121     32.042
REMARK  Name = 7164881
REMARK  11 active torsions:
REMARK  status: ('A' for Active; 'I' for Inactive)
REMARK    1  A    between atoms: O_5  and  C_22
REMARK    2  A    between atoms: O_5  and  C_35
REMARK    3  A    between atoms: O_7  and  C_34
REMARK    4  A    between atoms: O_7  and  C_39
REMARK    5  A    between atoms: N_10  and  C_19
REMARK    6  A    between atoms: N_11  and  C_25
REMARK    7  A    between atoms: C_12  and  C_16
REMARK    8  A    between atoms: C_17  and  C_21
REMARK    9  A    between atoms: C_19  and  C_20
REMARK   10  A    between atoms: C_19  and  C_22
REMARK   11  A    between atoms: C_20  and  C_23
REMARK                            x       y       z     vdW  Elec       q    Type
REMARK                         _______ _______ _______ _____ _____    ______ ____
ROOT
ATOM      3  O   UNL     1      -4.719 -11.167  10.439  0.00  0.00    -0.269 OA
ATOM      4  O   UNL     1      -8.219 -12.629  16.248  0.00  0.00    -0.252 OA
ATOM      8  N   UNL     1      -6.693 -11.193  11.651  0.00  0.00    -0.283 N 
ATOM      9  N   UNL     1      -8.112 -11.626  14.166  0.00  0.00    -0.282 N 
ATOM     11  N   UNL     1      -9.659 -10.864  15.771  0.00  0.00    -0.269 N 
ATOM     12  C   UNL     1      -6.046 -11.843  12.792  0.00  0.00    +0.179 C 
ATOM     13  C   UNL     1      -7.041 -12.528  13.728  0.00  0.00    +0.141 C 
ATOM     14  C   UNL     1      -8.137 -10.943  11.763  0.00  0.00    +0.128 C 
ATOM     15  C   UNL     1      -8.573 -10.631  13.190  0.00  0.00    +0.128 C 
ATOM     17  C   UNL     1      -5.929 -10.943  10.490  0.00  0.00    +0.254 C 
ATOM     18  C   UNL     1      -8.645 -11.774  15.468  0.00  0.00    +0.307 C 
ATOM     41  H   UNL     1      -9.909 -10.166  15.079  0.00  0.00    +0.156 HD
ENDROOT
BRANCH  11  25
ATOM     25  C   UNL     1     -10.390 -10.751  16.980  0.00  0.00    +0.035 A 
ATOM     30  C   UNL     1     -10.196  -9.647  17.812  0.00  0.00    +0.023 A 
ATOM     31  C   UNL     1     -11.302 -11.743  17.338  0.00  0.00    +0.023 A 
ATOM     36  C   UNL     1     -10.916  -9.537  19.002  0.00  0.00    +0.002 A 
ATOM     37  C   UNL     1     -12.021 -11.631  18.528  0.00  0.00    +0.002 A 
ATOM     38  C   UNL     1     -11.829 -10.529  19.360  0.00  0.00    +0.000 A 
ENDBRANCH  11  25
BRANCH  17  21
ATOM      1  S   UNL     1      -7.292 -11.456   8.171  0.00  0.00    -0.092 S 
ATOM     21  C   UNL     1      -6.626 -10.389   9.333  0.00  0.00    +0.074 A 
ATOM     24  C   UNL     1      -6.845  -9.068   9.007  0.00  0.00    +0.021 A 
ATOM     28  C   UNL     1      -7.571  -8.932   7.788  0.00  0.00    +0.008 A 
ATOM     29  C   UNL     1      -7.877 -10.152   7.229  0.00  0.00    +0.046 A 
ENDBRANCH  17  21
BRANCH  12  16
ATOM      2  O   UNL     1      -5.569  -9.606  13.482  0.00  0.00    -0.274 OA
ATOM     10  N   UNL     1      -4.195 -11.331  14.226  0.00  0.00    -0.301 N 
ATOM     16  C   UNL     1      -5.266 -10.795  13.532  0.00  0.00    +0.236 C 
ATOM     40  H   UNL     1      -3.989 -12.321  14.126  0.00  0.00    +0.150 HD
BRANCH  10  19
ATOM     19  C   UNL     1      -3.274 -10.531  15.001  0.00  0.00    +0.186 C 
BRANCH  19  22
ATOM      6  O   UNL     1      -1.082  -9.556  14.710  0.00  0.00    -0.249 OA
ATOM     22  C   UNL     1      -1.956 -10.297  14.273  0.00  0.00    +0.328 C 
BRANCH  22   5
ATOM      5  O   UNL     1      -1.887 -10.987  13.100  0.00  0.00    -0.467 OA
ATOM     35  C   UNL     1      -1.762 -10.190  11.918  0.00  0.00    +0.280 C 
ENDBRANCH  22   5
ENDBRANCH  19  22
BRANCH  19  20
ATOM     20  C   UNL     1      -3.060 -11.124  16.402  0.00  0.00    +0.069 C 
BRANCH  20  23
ATOM     23  C   UNL     1      -4.288 -11.116  17.285  0.00  0.00    -0.045 A 
ATOM     26  C   UNL     1      -5.258 -10.127  17.122  0.00  0.00    +0.007 A 
ATOM     27  C   UNL     1      -4.448 -12.097  18.264  0.00  0.00    +0.007 A 
ATOM     32  C   UNL     1      -6.390 -10.119  17.937  0.00  0.00    +0.046 A 
ATOM     33  C   UNL     1      -5.580 -12.089  19.079  0.00  0.00    +0.046 A 
ATOM     34  C   UNL     1      -6.551 -11.101  18.915  0.00  0.00    +0.120 A 
BRANCH  34   7
ATOM      7  O   UNL     1      -7.655 -11.092  19.711  0.00  0.00    -0.495 OA
ATOM     39  C   UNL     1      -8.452 -12.276  19.728  0.00  0.00    +0.277 C 
ENDBRANCH  34   7
ENDBRANCH  20  23
ENDBRANCH  19  20
ENDBRANCH  10  19
ENDBRANCH  12  16
TORSDOF 9
ENDMDL
MODEL 7
REMARK VINA RESULT:      -6.0     13.778     16.779
REMARK  Name = 7164881
REMARK  11 active torsions:
REMARK  status: ('A' for Active; 'I' for Inactive)
REMARK    1  A    between atoms: O_5  and  C_22
REMARK    2  A    between atoms: O_5  and  C_35
REMARK    3  A    between atoms: O_7  and  C_34
REMARK    4  A    between atoms: O_7  and  C_39
REMARK    5  A    between atoms: N_10  and  C_19
REMARK    6  A    between atoms: N_11  and  C_25
REMARK    7  A    between atoms: C_12  and  C_16
REMARK    8  A    between atoms: C_17  and  C_21
REMARK    9  A    between atoms: C_19  and  C_20
REMARK   10  A    between atoms: C_19  and  C_22
REMARK   11  A    between atoms: C_20  and  C_23
REMARK                            x       y       z     vdW  Elec       q    Type
REMARK                         _______ _______ _______ _____ _____    ______ ____
ROOT
ATOM      3  O   UNL     1      10.835  10.089   8.230  0.00  0.00    -0.269 OA
ATOM      4  O   UNL     1      15.445   6.578   4.415  0.00  0.00    -0.252 OA
ATOM      8  N   UNL     1      11.885   9.683   6.205  0.00  0.00    -0.283 N 
ATOM      9  N   UNL     1      13.682   8.068   4.566  0.00  0.00    -0.282 N 
ATOM     11  N   UNL     1      14.095   6.920   2.550  0.00  0.00    -0.269 N 
ATOM     12  C   UNL     1      12.752   8.663   6.798  0.00  0.00    +0.179 C 
ATOM     13  C   UNL     1      14.000   8.385   5.962  0.00  0.00    +0.141 C 
ATOM     14  C   UNL     1      12.099   9.989   4.784  0.00  0.00    +0.128 C 
ATOM     15  C   UNL     1      12.534   8.770   3.978  0.00  0.00    +0.128 C 
ATOM     17  C   UNL     1      10.983  10.378   7.042  0.00  0.00    +0.254 C 
ATOM     18  C   UNL     1      14.491   7.140   3.870  0.00  0.00    +0.307 C 
ATOM     41  H   UNL     1      13.268   7.395   2.206  0.00  0.00    +0.156 HD
ENDROOT
BRANCH  11  25
ATOM     25  C   UNL     1      14.692   6.057   1.597  0.00  0.00    +0.035 A 
ATOM     30  C   UNL     1      14.538   4.675   1.715  0.00  0.00    +0.023 A 
ATOM     31  C   UNL     1      15.433   6.590   0.544  0.00  0.00    +0.023 A 
ATOM     36  C   UNL     1      15.125   3.827   0.776  0.00  0.00    +0.002 A 
ATOM     37  C   UNL     1      16.020   5.740  -0.394  0.00  0.00    +0.002 A 
ATOM     38  C   UNL     1      15.867   4.359  -0.278  0.00  0.00    +0.000 A 
ENDBRANCH  11  25
BRANCH  17  21
ATOM      1  S   UNL     1      10.832  13.054   6.485  0.00  0.00    -0.092 S 
ATOM     21  C   UNL     1      10.208  11.459   6.444  0.00  0.00    +0.074 A 
ATOM     24  C   UNL     1       8.983  11.401   5.816  0.00  0.00    +0.021 A 
ATOM     28  C   UNL     1       8.553  12.680   5.361  0.00  0.00    +0.008 A 
ATOM     29  C   UNL     1       9.463  13.669   5.661  0.00  0.00    +0.046 A 
ENDBRANCH  17  21
BRANCH  12  16
ATOM      2  O   UNL     1      12.388   6.414   7.516  0.00  0.00    -0.274 OA
ATOM     10  N   UNL     1      10.679   7.528   6.394  0.00  0.00    -0.301 N 
ATOM     16  C   UNL     1      11.938   7.411   6.958  0.00  0.00    +0.236 C 
ATOM     40  H   UNL     1      10.446   8.373   5.882  0.00  0.00    +0.150 HD
BRANCH  10  19
ATOM     19  C   UNL     1       9.710   6.455   6.393  0.00  0.00    +0.186 C 
BRANCH  19  22
ATOM      6  O   UNL     1       8.667   6.959   8.514  0.00  0.00    -0.249 OA
ATOM     22  C   UNL     1       9.208   6.127   7.794  0.00  0.00    +0.328 C 
BRANCH  22   5
ATOM      5  O   UNL     1       9.448   4.830   8.134  0.00  0.00    -0.467 OA
ATOM     35  C   UNL     1       9.417   4.541   9.536  0.00  0.00    +0.280 C 
ENDBRANCH  22   5
ENDBRANCH  19  22
BRANCH  19  20
ATOM     20  C   UNL     1      10.253   5.213   5.671  0.00  0.00    +0.069 C 
BRANCH  20  23
ATOM     23  C   UNL     1      10.307   5.332   4.164  0.00  0.00    -0.045 A 
ATOM     26  C   UNL     1       9.745   6.441   3.531  0.00  0.00    +0.007 A 
ATOM     27  C   UNL     1      10.919   4.332   3.408  0.00  0.00    +0.007 A 
ATOM     32  C   UNL     1       9.796   6.550   2.141  0.00  0.00    +0.046 A 
ATOM     33  C   UNL     1      10.970   4.441   2.018  0.00  0.00    +0.046 A 
ATOM     34  C   UNL     1      10.408   5.550   1.385  0.00  0.00    +0.120 A 
BRANCH  34   7
ATOM      7  O   UNL     1      10.456   5.657   0.029  0.00  0.00    -0.495 OA
ATOM     39  C   UNL     1      11.720   5.434  -0.595  0.00  0.00    +0.277 C 
ENDBRANCH  34   7
ENDBRANCH  20  23
ENDBRANCH  19  20
ENDBRANCH  10  19
ENDBRANCH  12  16
TORSDOF 9
ENDMDL
MODEL 8
REMARK VINA RESULT:      -5.9     28.410     32.005
REMARK  Name = 7164881
REMARK  11 active torsions:
REMARK  status: ('A' for Active; 'I' for Inactive)
REMARK    1  A    between atoms: O_5  and  C_22
REMARK    2  A    between atoms: O_5  and  C_35
REMARK    3  A    between atoms: O_7  and  C_34
REMARK    4  A    between atoms: O_7  and  C_39
REMARK    5  A    between atoms: N_10  and  C_19
REMARK    6  A    between atoms: N_11  and  C_25
REMARK    7  A    between atoms: C_12  and  C_16
REMARK    8  A    between atoms: C_17  and  C_21
REMARK    9  A    between atoms: C_19  and  C_20
REMARK   10  A    between atoms: C_19  and  C_22
REMARK   11  A    between atoms: C_20  and  C_23
REMARK                            x       y       z     vdW  Elec       q    Type
REMARK                         _______ _______ _______ _____ _____    ______ ____
ROOT
ATOM      3  O   UNL     1      -3.940 -12.271  10.141  0.00  0.00    -0.269 OA
ATOM      4  O   UNL     1      -8.757 -11.521  15.077  0.00  0.00    -0.252 OA
ATOM      8  N   UNL     1      -6.057 -11.610  10.808  0.00  0.00    -0.283 N 
ATOM      9  N   UNL     1      -8.002 -11.115  12.928  0.00  0.00    -0.282 N 
ATOM     11  N   UNL     1      -9.598  -9.689  13.914  0.00  0.00    -0.269 N 
ATOM     12  C   UNL     1      -5.826 -12.064  12.179  0.00  0.00    +0.179 C 
ATOM     13  C   UNL     1      -7.121 -12.286  12.959  0.00  0.00    +0.141 C 
ATOM     14  C   UNL     1      -7.389 -11.066  10.506  0.00  0.00    +0.128 C 
ATOM     15  C   UNL     1      -8.006 -10.327  11.689  0.00  0.00    +0.128 C 
ATOM     17  C   UNL     1      -5.044 -11.812   9.845  0.00  0.00    +0.254 C 
ATOM     18  C   UNL     1      -8.799 -10.824  14.060  0.00  0.00    +0.307 C 
ATOM     41  H   UNL     1      -9.530  -9.153  13.055  0.00  0.00    +0.156 HD
ENDROOT
BRANCH  11  25
ATOM     25  C   UNL     1     -10.501  -9.137  14.857  0.00  0.00    +0.035 A 
ATOM     30  C   UNL     1     -11.730  -9.756  15.092  0.00  0.00    +0.023 A 
ATOM     31  C   UNL     1     -10.162  -7.975  15.549  0.00  0.00    +0.023 A 
ATOM     36  C   UNL     1     -12.617  -9.212  16.021  0.00  0.00    +0.002 A 
ATOM     37  C   UNL     1     -11.050  -7.432  16.478  0.00  0.00    +0.002 A 
ATOM     38  C   UNL     1     -12.278  -8.050  16.714  0.00  0.00    +0.000 A 
ENDBRANCH  11  25
BRANCH  17  21
ATOM      1  S   UNL     1      -5.969 -12.631   7.402  0.00  0.00    -0.092 S 
ATOM     21  C   UNL     1      -5.343 -11.443   8.465  0.00  0.00    +0.074 A 
ATOM     24  C   UNL     1      -5.194 -10.222   7.844  0.00  0.00    +0.021 A 
ATOM     28  C   UNL     1      -5.600 -10.263   6.479  0.00  0.00    +0.008 A 
ATOM     29  C   UNL     1      -6.043 -11.512   6.108  0.00  0.00    +0.046 A 
ENDBRANCH  17  21
BRANCH  12  16
ATOM      2  O   UNL     1      -4.840  -9.900  12.412  0.00  0.00    -0.274 OA
ATOM     10  N   UNL     1      -4.367 -11.529  14.006  0.00  0.00    -0.301 N 
ATOM     16  C   UNL     1      -4.972 -11.035  12.863  0.00  0.00    +0.236 C 
ATOM     40  H   UNL     1      -4.481 -12.512  14.237  0.00  0.00    +0.150 HD
BRANCH  10  19
ATOM     19  C   UNL     1      -3.478 -10.746  14.832  0.00  0.00    +0.186 C 
BRANCH  19  22
ATOM      6  O   UNL     1      -1.313 -11.818  14.840  0.00  0.00    -0.249 OA
ATOM     22  C   UNL     1      -2.018 -10.905  14.426  0.00  0.00    +0.328 C 
BRANCH  22   5
ATOM      5  O   UNL     1      -1.610  -9.917  13.580  0.00  0.00    -0.467 OA
ATOM     35  C   UNL     1      -1.457 -10.298  12.209  0.00  0.00    +0.280 C 
ENDBRANCH  22   5
ENDBRANCH  19  22
BRANCH  19  20
ATOM     20  C   UNL     1      -3.696 -11.042  16.323  0.00  0.00    +0.069 C 
BRANCH  20  23
ATOM     23  C   UNL     1      -5.062 -10.665  16.850  0.00  0.00    -0.045 A 
ATOM     26  C   UNL     1      -5.663 -11.435  17.846  0.00  0.00    +0.007 A 
ATOM     27  C   UNL     1      -5.722  -9.547  16.338  0.00  0.00    +0.007 A 
ATOM     32  C   UNL     1      -6.923 -11.087  18.332  0.00  0.00    +0.046 A 
ATOM     33  C   UNL     1      -6.982  -9.199  16.824  0.00  0.00    +0.046 A 
ATOM     34  C   UNL     1      -7.583  -9.968  17.821  0.00  0.00    +0.120 A 
BRANCH  34   7
ATOM      7  O   UNL     1      -8.813  -9.630  18.294  0.00  0.00    -0.495 OA
ATOM     39  C   UNL     1      -9.803 -10.659  18.320  0.00  0.00    +0.277 C 
ENDBRANCH  34   7
ENDBRANCH  20  23
ENDBRANCH  19  20
ENDBRANCH  10  19
ENDBRANCH  12  16
TORSDOF 9
ENDMDL
MODEL 9
REMARK VINA RESULT:      -5.9     14.084     17.418
REMARK  Name = 7164881
REMARK  11 active torsions:
REMARK  status: ('A' for Active; 'I' for Inactive)
REMARK    1  A    between atoms: O_5  and  C_22
REMARK    2  A    between atoms: O_5  and  C_35
REMARK    3  A    between atoms: O_7  and  C_34
REMARK    4  A    between atoms: O_7  and  C_39
REMARK    5  A    between atoms: N_10  and  C_19
REMARK    6  A    between atoms: N_11  and  C_25
REMARK    7  A    between atoms: C_12  and  C_16
REMARK    8  A    between atoms: C_17  and  C_21
REMARK    9  A    between atoms: C_19  and  C_20
REMARK   10  A    between atoms: C_19  and  C_22
REMARK   11  A    between atoms: C_20  and  C_23
REMARK                            x       y       z     vdW  Elec       q    Type
REMARK                         _______ _______ _______ _____ _____    ______ ____
ROOT
ATOM      3  O   UNL     1      11.013   8.512   1.181  0.00  0.00    -0.269 OA
ATOM      4  O   UNL     1      17.579   9.830   2.993  0.00  0.00    -0.252 OA
ATOM      8  N   UNL     1      13.134   7.775   1.754  0.00  0.00    -0.283 N 
ATOM      9  N   UNL     1      15.835   8.337   2.709  0.00  0.00    -0.282 N 
ATOM     11  N   UNL     1      17.610   7.822   4.170  0.00  0.00    -0.269 N 
ATOM     12  C   UNL     1      13.642   9.144   1.847  0.00  0.00    +0.179 C 
ATOM     13  C   UNL     1      15.165   9.221   1.749  0.00  0.00    +0.141 C 
ATOM     14  C   UNL     1      14.102   6.692   1.978  0.00  0.00    +0.128 C 
ATOM     15  C   UNL     1      15.172   7.060   3.001  0.00  0.00    +0.128 C 
ATOM     17  C   UNL     1      11.793   7.574   1.358  0.00  0.00    +0.254 C 
ATOM     18  C   UNL     1      17.066   8.744   3.274  0.00  0.00    +0.307 C 
ATOM     41  H   UNL     1      17.090   6.975   4.372  0.00  0.00    +0.156 HD
ENDROOT
BRANCH  11  25
ATOM     25  C   UNL     1      18.822   7.931   4.897  0.00  0.00    +0.035 A 
ATOM     30  C   UNL     1      18.839   8.584   6.131  0.00  0.00    +0.023 A 
ATOM     31  C   UNL     1      19.996   7.385   4.381  0.00  0.00    +0.023 A 
ATOM     36  C   UNL     1      20.032   8.690   6.846  0.00  0.00    +0.002 A 
ATOM     37  C   UNL     1      21.188   7.492   5.097  0.00  0.00    +0.002 A 
ATOM     38  C   UNL     1      21.207   8.144   6.329  0.00  0.00    +0.000 A 
ENDBRANCH  11  25
BRANCH  17  21
ATOM      1  S   UNL     1      11.576   5.443  -0.346  0.00  0.00    -0.092 S 
ATOM     21  C   UNL     1      11.344   6.198   1.173  0.00  0.00    +0.074 A 
ATOM     24  C   UNL     1      10.729   5.360   2.078  0.00  0.00    +0.021 A 
ATOM     28  C   UNL     1      10.445   4.082   1.516  0.00  0.00    +0.008 A 
ATOM     29  C   UNL     1      10.853   3.992   0.204  0.00  0.00    +0.046 A 
ENDBRANCH  17  21
BRANCH  12  16
ATOM      2  O   UNL     1      13.599  10.786   3.583  0.00  0.00    -0.274 OA
ATOM     10  N   UNL     1      12.251   8.899   3.785  0.00  0.00    -0.301 N 
ATOM     16  C   UNL     1      13.172   9.717   3.154  0.00  0.00    +0.236 C 
ATOM     40  H   UNL     1      12.035   7.995   3.376  0.00  0.00    +0.150 HD
BRANCH  10  19
ATOM     19  C   UNL     1      11.662   9.212   5.066  0.00  0.00    +0.186 C 
BRANCH  19  22
ATOM      6  O   UNL     1      12.580   9.338   7.298  0.00  0.00    -0.249 OA
ATOM     22  C   UNL     1      12.521   8.736   6.231  0.00  0.00    +0.328 C 
BRANCH  22   5
ATOM      5  O   UNL     1      13.206   7.597   5.932  0.00  0.00    -0.467 OA
ATOM     35  C   UNL     1      13.625   6.813   7.053  0.00  0.00    +0.280 C 
ENDBRANCH  22   5
ENDBRANCH  19  22
BRANCH  19  20
ATOM     20  C   UNL     1      10.221   8.688   5.162  0.00  0.00    +0.069 C 
BRANCH  20  23
ATOM     23  C   UNL     1      10.042   7.498   6.079  0.00  0.00    -0.045 A 
ATOM     26  C   UNL     1      10.165   6.204   5.573  0.00  0.00    +0.007 A 
ATOM     27  C   UNL     1       9.751   7.696   7.429  0.00  0.00    +0.007 A 
ATOM     32  C   UNL     1       9.999   5.106   6.418  0.00  0.00    +0.046 A 
ATOM     33  C   UNL     1       9.585   6.599   8.274  0.00  0.00    +0.046 A 
ATOM     34  C   UNL     1       9.710   5.305   7.769  0.00  0.00    +0.120 A 
BRANCH  34   7
ATOM      7  O   UNL     1       9.546   4.233   8.593  0.00  0.00    -0.495 OA
ATOM     39  C   UNL     1       9.096   4.499   9.921  0.00  0.00    +0.277 C 
ENDBRANCH  34   7
ENDBRANCH  20  23
ENDBRANCH  19  20
ENDBRANCH  10  19
ENDBRANCH  12  16
TORSDOF 9
ENDMDL
MODEL 10
REMARK VINA RESULT:      -5.7     14.890     19.669
REMARK  Name = 7164881
REMARK  11 active torsions:
REMARK  status: ('A' for Active; 'I' for Inactive)
REMARK    1  A    between atoms: O_5  and  C_22
REMARK    2  A    between atoms: O_5  and  C_35
REMARK    3  A    between atoms: O_7  and  C_34
REMARK    4  A    between atoms: O_7  and  C_39
REMARK    5  A    between atoms: N_10  and  C_19
REMARK    6  A    between atoms: N_11  and  C_25
REMARK    7  A    between atoms: C_12  and  C_16
REMARK    8  A    between atoms: C_17  and  C_21
REMARK    9  A    between atoms: C_19  and  C_20
REMARK   10  A    between atoms: C_19  and  C_22
REMARK   11  A    between atoms: C_20  and  C_23
REMARK                            x       y       z     vdW  Elec       q    Type
REMARK                         _______ _______ _______ _____ _____    ______ ____
ROOT
ATOM      3  O   UNL     1      14.168   8.906   4.476  0.00  0.00    -0.269 OA
ATOM      4  O   UNL     1      10.931   3.886   0.946  0.00  0.00    -0.252 OA
ATOM      8  N   UNL     1      13.993   7.543   2.610  0.00  0.00    -0.283 N 
ATOM      9  N   UNL     1      12.512   5.573   1.047  0.00  0.00    -0.282 N 
ATOM     11  N   UNL     1      11.652   4.875  -1.034  0.00  0.00    -0.269 N 
ATOM     12  C   UNL     1      12.832   6.844   3.164  0.00  0.00    +0.179 C 
ATOM     13  C   UNL     1      12.589   5.485   2.508  0.00  0.00    +0.141 C 
ATOM     14  C   UNL     1      14.493   7.072   1.311  0.00  0.00    +0.128 C 
ATOM     15  C   UNL     1      13.379   6.565   0.400  0.00  0.00    +0.128 C 
ATOM     17  C   UNL     1      14.620   8.540   3.390  0.00  0.00    +0.254 C 
ATOM     18  C   UNL     1      11.639   4.703   0.351  0.00  0.00    +0.307 C 
ATOM     41  H   UNL     1      12.236   5.606  -1.427  0.00  0.00    +0.156 HD
ENDROOT
BRANCH  11  25
ATOM     25  C   UNL     1      10.900   4.166  -2.003  0.00  0.00    +0.035 A 
ATOM     30  C   UNL     1       9.818   4.782  -2.635  0.00  0.00    +0.023 A 
ATOM     31  C   UNL     1      11.240   2.853  -2.326  0.00  0.00    +0.023 A 
ATOM     36  C   UNL     1       9.079   4.084  -3.589  0.00  0.00    +0.002 A 
ATOM     37  C   UNL     1      10.500   2.156  -3.280  0.00  0.00    +0.002 A 
ATOM     38  C   UNL     1       9.419   2.770  -3.912  0.00  0.00    +0.000 A 
ENDBRANCH  11  25
BRANCH  17  21
ATOM      1  S   UNL     1      17.356   8.495   3.301  0.00  0.00    -0.092 S 
ATOM     21  C   UNL     1      15.836   9.146   2.856  0.00  0.00    +0.074 A 
ATOM     24  C   UNL     1      15.965  10.220   2.003  0.00  0.00    +0.021 A 
ATOM     28  C   UNL     1      17.328  10.510   1.710  0.00  0.00    +0.008 A 
ATOM     29  C   UNL     1      18.190   9.649   2.351  0.00  0.00    +0.046 A 
ENDBRANCH  17  21
BRANCH  12  16
ATOM      2  O   UNL     1      11.553   8.526   2.049  0.00  0.00    -0.274 OA
ATOM     10  N   UNL     1      10.697   7.560   3.986  0.00  0.00    -0.301 N 
ATOM     16  C   UNL     1      11.636   7.734   2.984  0.00  0.00    +0.236 C 
ATOM     40  H   UNL     1      10.912   6.936   4.758  0.00  0.00    +0.150 HD
BRANCH  10  19
ATOM     19  C   UNL     1       9.466   8.313   4.056  0.00  0.00    +0.186 C 
BRANCH  19  22
ATOM      6  O   UNL     1       9.029  10.672   4.348  0.00  0.00    -0.249 OA
ATOM     22  C   UNL     1       9.659   9.680   4.701  0.00  0.00    +0.328 C 
BRANCH  22   5
ATOM      5  O   UNL     1      10.606   9.657   5.680  0.00  0.00    -0.467 OA
ATOM     35  C   UNL     1      10.921  10.924   6.268  0.00  0.00    +0.280 C 
ENDBRANCH  22   5
ENDBRANCH  19  22
BRANCH  19  20
ATOM     20  C   UNL     1       8.355   7.505   4.742  0.00  0.00    +0.069 C 
BRANCH  20  23
ATOM     23  C   UNL     1       8.810   6.685   5.928  0.00  0.00    -0.045 A 
ATOM     26  C   UNL     1       9.371   5.423   5.730  0.00  0.00    +0.007 A 
ATOM     27  C   UNL     1       8.668   7.191   7.221  0.00  0.00    +0.007 A 
ATOM     32  C   UNL     1       9.791   4.667   6.824  0.00  0.00    +0.046 A 
ATOM     33  C   UNL     1       9.088   6.434   8.315  0.00  0.00    +0.046 A 
ATOM     34  C   UNL     1       9.649   5.173   8.117  0.00  0.00    +0.120 A 
BRANCH  34   7
ATOM      7  O   UNL     1      10.058   4.434   9.184  0.00  0.00    -0.495 OA
ATOM     39  C   UNL     1       9.218   4.442  10.339  0.00  0.00    +0.277 C 
ENDBRANCH  34   7
ENDBRANCH  20  23
ENDBRANCH  19  20
ENDBRANCH  10  19
ENDBRANCH  12  16
TORSDOF 9
ENDMDL
