MODEL 1
REMARK VINA RESULT:      -7.0      0.000      0.000
REMARK  Name = 45784372
REMARK  12 active torsions:
REMARK  status: ('A' for Active; 'I' for Inactive)
REMARK    1  A    between atoms: O_1  and  C_10
REMARK    2  A    between atoms: O_4  and  C_23
REMARK    3  A    between atoms: O_4  and  C_26
REMARK    4  A    between atoms: N_5  and  C_14
REMARK    5  A    between atoms: N_6  and  C_24
REMARK    6  A    between atoms: C_7  and  C_17
REMARK    7  A    between atoms: C_9  and  C_19
REMARK    8  A    between atoms: C_13  and  C_18
REMARK    9  A    between atoms: C_18  and  C_20
REMARK   10  A    between atoms: C_18  and  C_21
REMARK   11  A    between atoms: C_22  and  C_23
REMARK   12  A    between atoms: C_24  and  C_25
REMARK                            x       y       z     vdW  Elec       q    Type
REMARK                         _______ _______ _______ _____ _____    ______ ____
ROOT
ATOM      7  C   UNL     1      13.134   8.980  17.294  0.00  0.00    -0.027 C 
ATOM      8  C   UNL     1      13.613  10.014  18.367  0.00  0.00    +0.028 C 
ATOM      9  C   UNL     1      14.960  10.693  17.927  0.00  0.00    +0.012 C 
ATOM     10  C   UNL     1      13.613   9.390  19.792  0.00  0.00    +0.122 C 
ATOM     11  C   UNL     1      11.752   8.417  17.703  0.00  0.00    +0.007 C 
ATOM     12  C   UNL     1      12.966   9.702  15.937  0.00  0.00    +0.009 C 
ATOM     13  C   UNL     1      12.259   8.735  20.155  0.00  0.00    +0.029 C 
ATOM     14  C   UNL     1      14.800  11.350  16.528  0.00  0.00    +0.076 C 
ATOM     15  C   UNL     1      11.758   7.769  19.082  0.00  0.00    +0.007 C 
ATOM     16  C   UNL     1      14.234  10.401  15.472  0.00  0.00    +0.023 C 
ATOM     17  C   UNL     1      14.123   7.799  17.125  0.00  0.00    +0.011 C 
ATOM     19  C   UNL     1      15.474  11.744  18.925  0.00  0.00    +0.010 C 
ENDROOT
BRANCH  14   5
ATOM      3  O   UNL     1      15.187  13.756  14.971  0.00  0.00    -0.272 OA
ATOM      5  N   UNL     1      16.055  11.883  16.040  0.00  0.00    -0.309 N 
ATOM     22  C   UNL     1      16.136  13.050  15.299  0.00  0.00    +0.251 C 
ATOM     37  H   UNL     1      16.899  11.341  16.200  0.00  0.00    +0.149 HD
BRANCH  22  23
ATOM     23  C   UNL     1      17.566  13.373  14.922  0.00  0.00    +0.324 C 
BRANCH  23   4
ATOM      4  O   UNL     1      18.454  12.954  15.936  0.00  0.00    -0.483 OA
BRANCH   4  26
ATOM     26  C   UNL     1      19.559  12.234  15.545  0.00  0.00    +0.121 A 
ATOM     29  C   UNL     1      20.736  12.306  16.290  0.00  0.00    +0.045 A 
ATOM     30  C   UNL     1      19.500  11.431  14.407  0.00  0.00    +0.045 A 
ATOM     34  C   UNL     1      21.856  11.575  15.894  0.00  0.00    +0.004 A 
ATOM     35  C   UNL     1      20.620  10.700  14.011  0.00  0.00    +0.004 A 
ATOM     36  C   UNL     1      21.799  10.772  14.755  0.00  0.00    +0.000 A 
ENDBRANCH   4  26
ENDBRANCH  23   4
ENDBRANCH  22  23
ENDBRANCH  14   5
BRANCH  10   1
ATOM      1  O   UNL     1      13.843  10.414  20.762  0.00  0.00    -0.391 OA
ATOM     38  H   UNL     1      14.347  10.025  21.497  0.00  0.00    +0.210 HD
ENDBRANCH  10   1
BRANCH  13  18
ATOM     18  C   UNL     1      12.320   8.013  21.506  0.00  0.00    +0.077 C 
ATOM     20  C   UNL     1      12.005   6.532  21.324  0.00  0.00    +0.017 C 
BRANCH  18  21
ATOM      2  O   UNL     1      10.276   8.169  22.796  0.00  0.00    -0.276 OA
ATOM      6  N   UNL     1      11.836   9.875  22.981  0.00  0.00    -0.311 N 
ATOM     21  C   UNL     1      11.355   8.670  22.489  0.00  0.00    +0.216 C 
ATOM     39  H   UNL     1      12.756  10.201  22.702  0.00  0.00    +0.149 HD
BRANCH   6  24
ATOM     24  C   UNL     1      11.100  10.682  23.925  0.00  0.00    +0.139 C 
BRANCH  24  25
ATOM     25  C   UNL     1      10.824  12.059  23.393  0.00  0.00    -0.030 A 
ATOM     27  C   UNL     1      10.287  13.036  24.230  0.00  0.00    +0.005 A 
ATOM     28  C   UNL     1      11.105  12.359  22.060  0.00  0.00    +0.005 A 
ATOM     31  C   UNL     1      10.031  14.315  23.735  0.00  0.00    +0.000 A 
ATOM     32  C   UNL     1      10.848  13.638  21.565  0.00  0.00    +0.000 A 
ATOM     33  C   UNL     1      10.311  14.615  22.402  0.00  0.00    +0.000 A 
ENDBRANCH  24  25
ENDBRANCH   6  24
ENDBRANCH  18  21
ENDBRANCH  13  18
TORSDOF 9
ENDMDL
MODEL 2
REMARK VINA RESULT:      -6.9     28.274     30.473
REMARK  Name = 45784372
REMARK  12 active torsions:
REMARK  status: ('A' for Active; 'I' for Inactive)
REMARK    1  A    between atoms: O_1  and  C_10
REMARK    2  A    between atoms: O_4  and  C_23
REMARK    3  A    between atoms: O_4  and  C_26
REMARK    4  A    between atoms: N_5  and  C_14
REMARK    5  A    between atoms: N_6  and  C_24
REMARK    6  A    between atoms: C_7  and  C_17
REMARK    7  A    between atoms: C_9  and  C_19
REMARK    8  A    between atoms: C_13  and  C_18
REMARK    9  A    between atoms: C_18  and  C_20
REMARK   10  A    between atoms: C_18  and  C_21
REMARK   11  A    between atoms: C_22  and  C_23
REMARK   12  A    between atoms: C_24  and  C_25
REMARK                            x       y       z     vdW  Elec       q    Type
REMARK                         _______ _______ _______ _____ _____    ______ ____
ROOT
ATOM      7  C   UNL     1      -3.724 -10.460  10.487  0.00  0.00    -0.027 C 
ATOM      8  C   UNL     1      -5.064 -10.191  11.249  0.00  0.00    +0.028 C 
ATOM      9  C   UNL     1      -5.913  -9.090  10.517  0.00  0.00    +0.012 C 
ATOM     10  C   UNL     1      -4.812  -9.941  12.764  0.00  0.00    +0.122 C 
ATOM     11  C   UNL     1      -2.968 -11.625  11.169  0.00  0.00    +0.007 C 
ATOM     12  C   UNL     1      -4.046 -10.892   9.038  0.00  0.00    +0.009 C 
ATOM     13  C   UNL     1      -3.965 -11.059  13.418  0.00  0.00    +0.029 C 
ATOM     14  C   UNL     1      -6.165  -9.501   9.039  0.00  0.00    +0.076 C 
ATOM     15  C   UNL     1      -2.684 -11.367  12.644  0.00  0.00    +0.007 C 
ATOM     16  C   UNL     1      -4.890  -9.874   8.285  0.00  0.00    +0.023 C 
ATOM     17  C   UNL     1      -2.799  -9.217  10.456  0.00  0.00    +0.011 C 
ATOM     19  C   UNL     1      -7.259  -8.796  11.199  0.00  0.00    +0.010 C 
ENDROOT
BRANCH  14   5
ATOM      3  O   UNL     1      -8.215  -9.834   7.026  0.00  0.00    -0.272 OA
ATOM      5  N   UNL     1      -6.845  -8.456   8.302  0.00  0.00    -0.309 N 
ATOM     22  C   UNL     1      -7.818  -8.720   7.352  0.00  0.00    +0.251 C 
ATOM     37  H   UNL     1      -6.546  -7.496   8.448  0.00  0.00    +0.149 HD
BRANCH  22  23
ATOM     23  C   UNL     1      -8.358  -7.445   6.739  0.00  0.00    +0.324 C 
BRANCH  23   4
ATOM      4  O   UNL     1      -8.275  -6.377   7.658  0.00  0.00    -0.483 OA
BRANCH   4  26
ATOM     26  C   UNL     1      -9.458  -5.810   8.071  0.00  0.00    +0.121 A 
ATOM     29  C   UNL     1      -9.451  -4.576   8.721  0.00  0.00    +0.045 A 
ATOM     30  C   UNL     1     -10.666  -6.469   7.838  0.00  0.00    +0.045 A 
ATOM     34  C   UNL     1     -10.651  -4.001   9.138  0.00  0.00    +0.004 A 
ATOM     35  C   UNL     1     -11.866  -5.894   8.255  0.00  0.00    +0.004 A 
ATOM     36  C   UNL     1     -11.859  -4.659   8.906  0.00  0.00    +0.000 A 
ENDBRANCH   4  26
ENDBRANCH  23   4
ENDBRANCH  22  23
ENDBRANCH  14   5
BRANCH  10   1
ATOM      1  O   UNL     1      -6.060  -9.916  13.459  0.00  0.00    -0.391 OA
ATOM     38  H   UNL     1      -6.661 -10.544  13.022  0.00  0.00    +0.210 HD
ENDBRANCH  10   1
BRANCH  13  18
ATOM     18  C   UNL     1      -3.617 -10.731  14.875  0.00  0.00    +0.077 C 
ATOM     20  C   UNL     1      -2.137 -10.994  15.132  0.00  0.00    +0.017 C 
BRANCH  18  21
ATOM      2  O   UNL     1      -4.386 -12.764  15.943  0.00  0.00    -0.276 OA
ATOM      6  N   UNL     1      -5.422 -10.763  16.493  0.00  0.00    -0.311 N 
ATOM     21  C   UNL     1      -4.498 -11.547  15.816  0.00  0.00    +0.216 C 
ATOM     39  H   UNL     1      -5.424  -9.757  16.355  0.00  0.00    +0.149 HD
BRANCH   6  24
ATOM     24  C   UNL     1      -6.367 -11.309  17.438  0.00  0.00    +0.139 C 
BRANCH  24  25
ATOM     25  C   UNL     1      -7.627 -10.496  17.507  0.00  0.00    -0.030 A 
ATOM     27  C   UNL     1      -8.672 -10.897  18.339  0.00  0.00    +0.005 A 
ATOM     28  C   UNL     1      -7.752  -9.339  16.738  0.00  0.00    +0.005 A 
ATOM     31  C   UNL     1      -9.842 -10.141  18.403  0.00  0.00    +0.000 A 
ATOM     32  C   UNL     1      -8.923  -8.583  16.802  0.00  0.00    +0.000 A 
ATOM     33  C   UNL     1      -9.967  -8.984  17.634  0.00  0.00    +0.000 A 
ENDBRANCH  24  25
ENDBRANCH   6  24
ENDBRANCH  18  21
ENDBRANCH  13  18
TORSDOF 9
ENDMDL
MODEL 3
REMARK VINA RESULT:      -6.8     27.840     30.764
REMARK  Name = 45784372
REMARK  12 active torsions:
REMARK  status: ('A' for Active; 'I' for Inactive)
REMARK    1  A    between atoms: O_1  and  C_10
REMARK    2  A    between atoms: O_4  and  C_23
REMARK    3  A    between atoms: O_4  and  C_26
REMARK    4  A    between atoms: N_5  and  C_14
REMARK    5  A    between atoms: N_6  and  C_24
REMARK    6  A    between atoms: C_7  and  C_17
REMARK    7  A    between atoms: C_9  and  C_19
REMARK    8  A    between atoms: C_13  and  C_18
REMARK    9  A    between atoms: C_18  and  C_20
REMARK   10  A    between atoms: C_18  and  C_21
REMARK   11  A    between atoms: C_22  and  C_23
REMARK   12  A    between atoms: C_24  and  C_25
REMARK                            x       y       z     vdW  Elec       q    Type
REMARK                         _______ _______ _______ _____ _____    ______ ____
ROOT
ATOM      7  C   UNL     1      -4.407 -10.934   9.981  0.00  0.00    -0.027 C 
ATOM      8  C   UNL     1      -5.351 -10.038  10.851  0.00  0.00    +0.028 C 
ATOM      9  C   UNL     1      -5.223 -10.406  12.374  0.00  0.00    +0.012 C 
ATOM     10  C   UNL     1      -6.800 -10.029  10.285  0.00  0.00    +0.122 C 
ATOM     11  C   UNL     1      -4.472 -10.470   8.507  0.00  0.00    +0.007 C 
ATOM     12  C   UNL     1      -2.950 -10.752  10.468  0.00  0.00    +0.009 C 
ATOM     13  C   UNL     1      -6.849  -9.667   8.782  0.00  0.00    +0.029 C 
ATOM     14  C   UNL     1      -3.743 -10.293  12.832  0.00  0.00    +0.076 C 
ATOM     15  C   UNL     1      -5.885 -10.498   7.936  0.00  0.00    +0.007 C 
ATOM     16  C   UNL     1      -2.771 -11.070  11.945  0.00  0.00    +0.023 C 
ATOM     17  C   UNL     1      -4.784 -12.435  10.049  0.00  0.00    +0.011 C 
ATOM     19  C   UNL     1      -6.105  -9.542  13.291  0.00  0.00    +0.010 C 
ENDROOT
BRANCH  14   5
ATOM      3  O   UNL     1      -1.454  -9.837  14.540  0.00  0.00    -0.272 OA
ATOM      5  N   UNL     1      -3.570 -10.737  14.200  0.00  0.00    -0.309 N 
ATOM     22  C   UNL     1      -2.430 -10.466  14.938  0.00  0.00    +0.251 C 
ATOM     37  H   UNL     1      -4.293 -11.323  14.606  0.00  0.00    +0.149 HD
BRANCH  22  23
ATOM     23  C   UNL     1      -2.518 -11.047  16.333  0.00  0.00    +0.324 C 
BRANCH  23   4
ATOM      4  O   UNL     1      -3.700 -11.805  16.482  0.00  0.00    -0.483 OA
BRANCH   4  26
ATOM     26  C   UNL     1      -4.574 -11.417  17.469  0.00  0.00    +0.121 A 
ATOM     29  C   UNL     1      -5.679 -10.626  17.150  0.00  0.00    +0.045 A 
ATOM     30  C   UNL     1      -4.359 -11.815  18.788  0.00  0.00    +0.045 A 
ATOM     34  C   UNL     1      -6.567 -10.232  18.151  0.00  0.00    +0.004 A 
ATOM     35  C   UNL     1      -5.247 -11.421  19.789  0.00  0.00    +0.004 A 
ATOM     36  C   UNL     1      -6.351 -10.629  19.471  0.00  0.00    +0.000 A 
ENDBRANCH   4  26
ENDBRANCH  23   4
ENDBRANCH  22  23
ENDBRANCH  14   5
BRANCH  10   1
ATOM      1  O   UNL     1      -7.573  -9.041  10.968  0.00  0.00    -0.391 OA
ATOM     38  H   UNL     1      -7.946  -9.450  11.768  0.00  0.00    +0.210 HD
ENDBRANCH  10   1
BRANCH  13  18
ATOM     18  C   UNL     1      -8.267  -9.791   8.212  0.00  0.00    +0.077 C 
ATOM     20  C   UNL     1      -8.335 -10.949   7.222  0.00  0.00    +0.017 C 
BRANCH  18  21
ATOM      2  O   UNL     1      -9.157  -8.417   6.427  0.00  0.00    -0.276 OA
ATOM      6  N   UNL     1      -8.459  -7.381   8.382  0.00  0.00    -0.311 N 
ATOM     21  C   UNL     1      -8.682  -8.477   7.559  0.00  0.00    +0.216 C 
ATOM     39  H   UNL     1      -8.095  -7.521   9.319  0.00  0.00    +0.149 HD
BRANCH   6  24
ATOM     24  C   UNL     1      -8.770  -6.029   7.982  0.00  0.00    +0.139 C 
BRANCH  24  25
ATOM     25  C   UNL     1      -9.943  -5.475   8.739  0.00  0.00    -0.030 A 
ATOM     27  C   UNL     1     -10.857  -6.340   9.341  0.00  0.00    +0.005 A 
ATOM     28  C   UNL     1     -10.120  -4.095   8.839  0.00  0.00    +0.005 A 
ATOM     31  C   UNL     1     -11.946  -5.826  10.043  0.00  0.00    +0.000 A 
ATOM     32  C   UNL     1     -11.209  -3.580   9.541  0.00  0.00    +0.000 A 
ATOM     33  C   UNL     1     -12.122  -4.446  10.143  0.00  0.00    +0.000 A 
ENDBRANCH  24  25
ENDBRANCH   6  24
ENDBRANCH  18  21
ENDBRANCH  13  18
TORSDOF 9
ENDMDL
MODEL 4
REMARK VINA RESULT:      -6.8     15.908     22.026
REMARK  Name = 45784372
REMARK  12 active torsions:
REMARK  status: ('A' for Active; 'I' for Inactive)
REMARK    1  A    between atoms: O_1  and  C_10
REMARK    2  A    between atoms: O_4  and  C_23
REMARK    3  A    between atoms: O_4  and  C_26
REMARK    4  A    between atoms: N_5  and  C_14
REMARK    5  A    between atoms: N_6  and  C_24
REMARK    6  A    between atoms: C_7  and  C_17
REMARK    7  A    between atoms: C_9  and  C_19
REMARK    8  A    between atoms: C_13  and  C_18
REMARK    9  A    between atoms: C_18  and  C_20
REMARK   10  A    between atoms: C_18  and  C_21
REMARK   11  A    between atoms: C_22  and  C_23
REMARK   12  A    between atoms: C_24  and  C_25
REMARK                            x       y       z     vdW  Elec       q    Type
REMARK                         _______ _______ _______ _____ _____    ______ ____
ROOT
ATOM      7  C   UNL     1      15.853  -4.773  31.001  0.00  0.00    -0.027 C 
ATOM      8  C   UNL     1      14.866  -5.668  30.179  0.00  0.00    +0.028 C 
ATOM      9  C   UNL     1      13.816  -6.355  31.123  0.00  0.00    +0.012 C 
ATOM     10  C   UNL     1      15.635  -6.626  29.224  0.00  0.00    +0.122 C 
ATOM     11  C   UNL     1      16.799  -4.024  30.032  0.00  0.00    +0.007 C 
ATOM     12  C   UNL     1      15.042  -3.713  31.781  0.00  0.00    +0.009 C 
ATOM     13  C   UNL     1      16.656  -5.883  28.330  0.00  0.00    +0.029 C 
ATOM     14  C   UNL     1      13.060  -5.284  31.957  0.00  0.00    +0.076 C 
ATOM     15  C   UNL     1      17.583  -4.962  29.123  0.00  0.00    +0.007 C 
ATOM     16  C   UNL     1      13.989  -4.321  32.695  0.00  0.00    +0.023 C 
ATOM     17  C   UNL     1      16.710  -5.595  31.997  0.00  0.00    +0.011 C 
ATOM     19  C   UNL     1      12.795  -7.229  30.375  0.00  0.00    +0.010 C 
ENDROOT
BRANCH  14   5
ATOM      3  O   UNL     1      10.483  -4.289  32.814  0.00  0.00    -0.272 OA
ATOM      5  N   UNL     1      12.166  -5.889  32.922  0.00  0.00    -0.309 N 
ATOM     22  C   UNL     1      10.946  -5.332  33.267  0.00  0.00    +0.251 C 
ATOM     37  H   UNL     1      12.482  -6.724  33.407  0.00  0.00    +0.149 HD
BRANCH  22  23
ATOM     23  C   UNL     1      10.220  -6.173  34.296  0.00  0.00    +0.324 C 
BRANCH  23   4
ATOM      4  O   UNL     1       9.975  -7.470  33.795  0.00  0.00    -0.483 OA
BRANCH   4  26
ATOM     26  C   UNL     1       8.803  -7.665  33.103  0.00  0.00    +0.121 A 
ATOM     29  C   UNL     1       7.646  -6.989  33.489  0.00  0.00    +0.045 A 
ATOM     30  C   UNL     1       8.773  -8.537  32.015  0.00  0.00    +0.045 A 
ATOM     34  C   UNL     1       6.457  -7.187  32.786  0.00  0.00    +0.004 A 
ATOM     35  C   UNL     1       7.584  -8.735  31.313  0.00  0.00    +0.004 A 
ATOM     36  C   UNL     1       6.426  -8.060  31.699  0.00  0.00    +0.000 A 
ENDBRANCH   4  26
ENDBRANCH  23   4
ENDBRANCH  22  23
ENDBRANCH  14   5
BRANCH  10   1
ATOM      1  O   UNL     1      14.711  -7.265  28.342  0.00  0.00    -0.391 OA
ATOM     38  H   UNL     1      14.175  -7.886  28.865  0.00  0.00    +0.210 HD
ENDBRANCH  10   1
BRANCH  13  18
ATOM     18  C   UNL     1      17.494  -6.856  27.492  0.00  0.00    +0.077 C 
ATOM     20  C   UNL     1      18.980  -6.581  27.700  0.00  0.00    +0.017 C 
BRANCH  18  21
ATOM      2  O   UNL     1      16.223  -7.425  25.511  0.00  0.00    -0.276 OA
ATOM      6  N   UNL     1      17.863  -5.793  25.346  0.00  0.00    -0.311 N 
ATOM     21  C   UNL     1      17.108  -6.741  26.021  0.00  0.00    +0.216 C 
ATOM     39  H   UNL     1      18.552  -5.246  25.851  0.00  0.00    +0.149 HD
BRANCH   6  24
ATOM     24  C   UNL     1      17.682  -5.506  23.942  0.00  0.00    +0.139 C 
BRANCH  24  25
ATOM     25  C   UNL     1      17.415  -4.049  23.696  0.00  0.00    -0.030 A 
ATOM     27  C   UNL     1      17.987  -3.411  22.595  0.00  0.00    +0.005 A 
ATOM     28  C   UNL     1      16.596  -3.334  24.570  0.00  0.00    +0.005 A 
ATOM     31  C   UNL     1      17.738  -2.058  22.367  0.00  0.00    +0.000 A 
ATOM     32  C   UNL     1      16.348  -1.980  24.341  0.00  0.00    +0.000 A 
ATOM     33  C   UNL     1      16.919  -1.343  23.240  0.00  0.00    +0.000 A 
ENDBRANCH  24  25
ENDBRANCH   6  24
ENDBRANCH  18  21
ENDBRANCH  13  18
TORSDOF 9
ENDMDL
MODEL 5
REMARK VINA RESULT:      -6.8     28.152     31.751
REMARK  Name = 45784372
REMARK  12 active torsions:
REMARK  status: ('A' for Active; 'I' for Inactive)
REMARK    1  A    between atoms: O_1  and  C_10
REMARK    2  A    between atoms: O_4  and  C_23
REMARK    3  A    between atoms: O_4  and  C_26
REMARK    4  A    between atoms: N_5  and  C_14
REMARK    5  A    between atoms: N_6  and  C_24
REMARK    6  A    between atoms: C_7  and  C_17
REMARK    7  A    between atoms: C_9  and  C_19
REMARK    8  A    between atoms: C_13  and  C_18
REMARK    9  A    between atoms: C_18  and  C_20
REMARK   10  A    between atoms: C_18  and  C_21
REMARK   11  A    between atoms: C_22  and  C_23
REMARK   12  A    between atoms: C_24  and  C_25
REMARK                            x       y       z     vdW  Elec       q    Type
REMARK                         _______ _______ _______ _____ _____    ______ ____
ROOT
ATOM      7  C   UNL     1      -6.213 -10.945  17.886  0.00  0.00    -0.027 C 
ATOM      8  C   UNL     1      -6.116 -12.471  17.552  0.00  0.00    +0.028 C 
ATOM      9  C   UNL     1      -5.471 -12.694  16.137  0.00  0.00    +0.012 C 
ATOM     10  C   UNL     1      -7.476 -13.188  17.788  0.00  0.00    +0.122 C 
ATOM     11  C   UNL     1      -6.744 -10.766  19.328  0.00  0.00    +0.007 C 
ATOM     12  C   UNL     1      -4.798 -10.324  17.825  0.00  0.00    +0.009 C 
ATOM     13  C   UNL     1      -8.054 -12.920  19.197  0.00  0.00    +0.029 C 
ATOM     14  C   UNL     1      -4.083 -12.001  16.063  0.00  0.00    +0.076 C 
ATOM     15  C   UNL     1      -8.096 -11.434  19.551  0.00  0.00    +0.007 C 
ATOM     16  C   UNL     1      -4.113 -10.532  16.482  0.00  0.00    +0.023 C 
ATOM     17  C   UNL     1      -7.148 -10.183  16.912  0.00  0.00    +0.011 C 
ATOM     19  C   UNL     1      -5.319 -14.176  15.756  0.00  0.00    +0.010 C 
ENDROOT
BRANCH  14   5
ATOM      3  O   UNL     1      -1.332 -11.516  15.310  0.00  0.00    -0.272 OA
ATOM      5  N   UNL     1      -3.511 -12.086  14.735  0.00  0.00    -0.309 N 
ATOM     22  C   UNL     1      -2.174 -11.834  14.476  0.00  0.00    +0.251 C 
ATOM     37  H   UNL     1      -4.136 -12.280  13.957  0.00  0.00    +0.149 HD
BRANCH  22  23
ATOM     23  C   UNL     1      -1.851 -11.997  13.006  0.00  0.00    +0.324 C 
BRANCH  23   4
ATOM      4  O   UNL     1      -1.839 -10.744  12.356  0.00  0.00    -0.483 OA
BRANCH   4  26
ATOM     26  C   UNL     1      -2.672 -10.590  11.273  0.00  0.00    +0.121 A 
ATOM     29  C   UNL     1      -2.757  -9.355  10.630  0.00  0.00    +0.045 A 
ATOM     30  C   UNL     1      -3.429 -11.669  10.817  0.00  0.00    +0.045 A 
ATOM     34  C   UNL     1      -3.601  -9.199   9.530  0.00  0.00    +0.004 A 
ATOM     35  C   UNL     1      -4.274 -11.513   9.718  0.00  0.00    +0.004 A 
ATOM     36  C   UNL     1      -4.360 -10.277   9.074  0.00  0.00    +0.000 A 
ENDBRANCH   4  26
ENDBRANCH  23   4
ENDBRANCH  22  23
ENDBRANCH  14   5
BRANCH  10   1
ATOM      1  O   UNL     1      -7.295 -14.602  17.684  0.00  0.00    -0.391 OA
ATOM     38  H   UNL     1      -7.806 -15.024  18.395  0.00  0.00    +0.210 HD
ENDBRANCH  10   1
BRANCH  13  18
ATOM     18  C   UNL     1      -9.453 -13.525  19.364  0.00  0.00    +0.077 C 
ATOM     20  C   UNL     1     -10.518 -12.484  19.032  0.00  0.00    +0.017 C 
BRANCH  18  21
ATOM      2  O   UNL     1      -8.689 -14.525  21.433  0.00  0.00    -0.276 OA
ATOM      6  N   UNL     1     -10.930 -13.962  21.235  0.00  0.00    -0.311 N 
ATOM     21  C   UNL     1      -9.622 -14.060  20.782  0.00  0.00    +0.216 C 
ATOM     39  H   UNL     1     -11.636 -13.532  20.646  0.00  0.00    +0.149 HD
BRANCH   6  24
ATOM     24  C   UNL     1     -11.337 -14.406  22.548  0.00  0.00    +0.139 C 
BRANCH  24  25
ATOM     25  C   UNL     1     -12.542 -13.660  23.045  0.00  0.00    -0.030 A 
ATOM     27  C   UNL     1     -13.030 -13.899  24.329  0.00  0.00    +0.005 A 
ATOM     28  C   UNL     1     -13.173 -12.728  22.221  0.00  0.00    +0.005 A 
ATOM     31  C   UNL     1     -14.148 -13.205  24.791  0.00  0.00    +0.000 A 
ATOM     32  C   UNL     1     -14.292 -12.035  22.682  0.00  0.00    +0.000 A 
ATOM     33  C   UNL     1     -14.779 -12.273  23.966  0.00  0.00    +0.000 A 
ENDBRANCH  24  25
ENDBRANCH   6  24
ENDBRANCH  18  21
ENDBRANCH  13  18
TORSDOF 9
ENDMDL
MODEL 6
REMARK VINA RESULT:      -6.8     28.219     31.902
REMARK  Name = 45784372
REMARK  12 active torsions:
REMARK  status: ('A' for Active; 'I' for Inactive)
REMARK    1  A    between atoms: O_1  and  C_10
REMARK    2  A    between atoms: O_4  and  C_23
REMARK    3  A    between atoms: O_4  and  C_26
REMARK    4  A    between atoms: N_5  and  C_14
REMARK    5  A    between atoms: N_6  and  C_24
REMARK    6  A    between atoms: C_7  and  C_17
REMARK    7  A    between atoms: C_9  and  C_19
REMARK    8  A    between atoms: C_13  and  C_18
REMARK    9  A    between atoms: C_18  and  C_20
REMARK   10  A    between atoms: C_18  and  C_21
REMARK   11  A    between atoms: C_22  and  C_23
REMARK   12  A    between atoms: C_24  and  C_25
REMARK                            x       y       z     vdW  Elec       q    Type
REMARK                         _______ _______ _______ _____ _____    ______ ____
ROOT
ATOM      7  C   UNL     1      -4.692 -11.077  16.883  0.00  0.00    -0.027 C 
ATOM      8  C   UNL     1      -5.480 -10.455  15.682  0.00  0.00    +0.028 C 
ATOM      9  C   UNL     1      -7.031 -10.564  15.913  0.00  0.00    +0.012 C 
ATOM     10  C   UNL     1      -4.967 -11.008  14.322  0.00  0.00    +0.122 C 
ATOM     11  C   UNL     1      -3.176 -10.850  16.677  0.00  0.00    +0.007 C 
ATOM     12  C   UNL     1      -5.104 -10.354  18.186  0.00  0.00    +0.009 C 
ATOM     13  C   UNL     1      -3.434 -10.874  14.166  0.00  0.00    +0.029 C 
ATOM     14  C   UNL     1      -7.421  -9.900  17.263  0.00  0.00    +0.076 C 
ATOM     15  C   UNL     1      -2.661 -11.426  15.363  0.00  0.00    +0.007 C 
ATOM     16  C   UNL     1      -6.602 -10.405  18.449  0.00  0.00    +0.023 C 
ATOM     17  C   UNL     1      -4.952 -12.597  17.039  0.00  0.00    +0.011 C 
ATOM     19  C   UNL     1      -7.867  -9.945  14.782  0.00  0.00    +0.010 C 
ENDROOT
BRANCH  14   5
ATOM      3  O   UNL     1      -9.468  -7.860  17.375  0.00  0.00    -0.272 OA
ATOM      5  N   UNL     1      -8.826 -10.086  17.564  0.00  0.00    -0.309 N 
ATOM     22  C   UNL     1      -9.732  -9.038  17.593  0.00  0.00    +0.251 C 
ATOM     37  H   UNL     1      -9.139 -11.017  17.824  0.00  0.00    +0.149 HD
BRANCH  22  23
ATOM     23  C   UNL     1     -11.127  -9.517  17.933  0.00  0.00    +0.324 C 
BRANCH  23   4
ATOM      4  O   UNL     1     -11.075 -10.584  18.856  0.00  0.00    -0.483 OA
BRANCH   4  26
ATOM     26  C   UNL     1     -12.143 -10.728  19.709  0.00  0.00    +0.121 A 
ATOM     29  C   UNL     1     -12.272 -11.886  20.476  0.00  0.00    +0.045 A 
ATOM     30  C   UNL     1     -13.097  -9.715  19.810  0.00  0.00    +0.045 A 
ATOM     34  C   UNL     1     -13.355 -12.031  21.343  0.00  0.00    +0.004 A 
ATOM     35  C   UNL     1     -14.180  -9.860  20.677  0.00  0.00    +0.004 A 
ATOM     36  C   UNL     1     -14.310 -11.019  21.443  0.00  0.00    +0.000 A 
ENDBRANCH   4  26
ENDBRANCH  23   4
ENDBRANCH  22  23
ENDBRANCH  14   5
BRANCH  10   1
ATOM      1  O   UNL     1      -5.552 -10.264  13.252  0.00  0.00    -0.391 OA
ATOM     38  H   UNL     1      -4.854 -10.067  12.605  0.00  0.00    +0.210 HD
ENDBRANCH  10   1
BRANCH  13  18
ATOM     18  C   UNL     1      -2.931 -11.541  12.880  0.00  0.00    +0.077 C 
ATOM     20  C   UNL     1      -1.746 -12.449  13.189  0.00  0.00    +0.017 C 
BRANCH  18  21
ATOM      2  O   UNL     1      -1.452  -9.952  11.806  0.00  0.00    -0.276 OA
ATOM      6  N   UNL     1      -3.613 -10.179  10.995  0.00  0.00    -0.311 N 
ATOM     21  C   UNL     1      -2.563 -10.477  11.852  0.00  0.00    +0.216 C 
ATOM     39  H   UNL     1      -4.489 -10.685  11.078  0.00  0.00    +0.149 HD
BRANCH   6  24
ATOM     24  C   UNL     1      -3.506  -9.201   9.938  0.00  0.00    +0.139 C 
BRANCH  24  25
ATOM     25  C   UNL     1      -4.776  -9.089   9.144  0.00  0.00    -0.030 A 
ATOM     27  C   UNL     1      -4.925  -9.813   7.962  0.00  0.00    +0.005 A 
ATOM     28  C   UNL     1      -5.805  -8.260   9.590  0.00  0.00    +0.005 A 
ATOM     31  C   UNL     1      -6.104  -9.709   7.225  0.00  0.00    +0.000 A 
ATOM     32  C   UNL     1      -6.985  -8.156   8.853  0.00  0.00    +0.000 A 
ATOM     33  C   UNL     1      -7.134  -8.881   7.671  0.00  0.00    +0.000 A 
ENDBRANCH  24  25
ENDBRANCH   6  24
ENDBRANCH  18  21
ENDBRANCH  13  18
TORSDOF 9
ENDMDL
MODEL 7
REMARK VINA RESULT:      -6.8      6.146      8.226
REMARK  Name = 45784372
REMARK  12 active torsions:
REMARK  status: ('A' for Active; 'I' for Inactive)
REMARK    1  A    between atoms: O_1  and  C_10
REMARK    2  A    between atoms: O_4  and  C_23
REMARK    3  A    between atoms: O_4  and  C_26
REMARK    4  A    between atoms: N_5  and  C_14
REMARK    5  A    between atoms: N_6  and  C_24
REMARK    6  A    between atoms: C_7  and  C_17
REMARK    7  A    between atoms: C_9  and  C_19
REMARK    8  A    between atoms: C_13  and  C_18
REMARK    9  A    between atoms: C_18  and  C_20
REMARK   10  A    between atoms: C_18  and  C_21
REMARK   11  A    between atoms: C_22  and  C_23
REMARK   12  A    between atoms: C_24  and  C_25
REMARK                            x       y       z     vdW  Elec       q    Type
REMARK                         _______ _______ _______ _____ _____    ______ ____
ROOT
ATOM      7  C   UNL     1      15.875   7.086  19.686  0.00  0.00    -0.027 C 
ATOM      8  C   UNL     1      16.645   8.324  20.257  0.00  0.00    +0.028 C 
ATOM      9  C   UNL     1      17.767   7.870  21.260  0.00  0.00    +0.012 C 
ATOM     10  C   UNL     1      15.661   9.400  20.798  0.00  0.00    +0.122 C 
ATOM     11  C   UNL     1      14.859   7.560  18.620  0.00  0.00    +0.007 C 
ATOM     12  C   UNL     1      16.883   6.144  18.989  0.00  0.00    +0.009 C 
ATOM     13  C   UNL     1      14.581   9.793  19.763  0.00  0.00    +0.029 C 
ATOM     14  C   UNL     1      18.729   6.864  20.570  0.00  0.00    +0.076 C 
ATOM     15  C   UNL     1      13.868   8.585  19.157  0.00  0.00    +0.007 C 
ATOM     16  C   UNL     1      18.009   5.691  19.906  0.00  0.00    +0.023 C 
ATOM     17  C   UNL     1      15.116   6.300  20.784  0.00  0.00    +0.011 C 
ATOM     19  C   UNL     1      18.583   9.037  21.839  0.00  0.00    +0.010 C 
ENDROOT
BRANCH  14   5
ATOM      3  O   UNL     1      21.588   6.669  20.174  0.00  0.00    -0.272 OA
ATOM      5  N   UNL     1      19.707   6.335  21.499  0.00  0.00    -0.309 N 
ATOM     22  C   UNL     1      21.062   6.285  21.214  0.00  0.00    +0.251 C 
ATOM     37  H   UNL     1      19.370   5.930  22.367  0.00  0.00    +0.149 HD
BRANCH  22  23
ATOM     23  C   UNL     1      21.850   5.687  22.360  0.00  0.00    +0.324 C 
BRANCH  23   4
ATOM      4  O   UNL     1      21.431   4.364  22.616  0.00  0.00    -0.483 OA
BRANCH   4  26
ATOM     26  C   UNL     1      22.355   3.365  22.424  0.00  0.00    +0.121 A 
ATOM     29  C   UNL     1      22.778   3.043  21.134  0.00  0.00    +0.045 A 
ATOM     30  C   UNL     1      22.873   2.674  23.520  0.00  0.00    +0.045 A 
ATOM     34  C   UNL     1      23.716   2.030  20.940  0.00  0.00    +0.004 A 
ATOM     35  C   UNL     1      23.811   1.661  23.326  0.00  0.00    +0.004 A 
ATOM     36  C   UNL     1      24.233   1.338  22.036  0.00  0.00    +0.000 A 
ENDBRANCH   4  26
ENDBRANCH  23   4
ENDBRANCH  22  23
ENDBRANCH  14   5
BRANCH  10   1
ATOM      1  O   UNL     1      16.382  10.594  21.108  0.00  0.00    -0.391 OA
ATOM     38  H   UNL     1      16.280  10.769  22.059  0.00  0.00    +0.210 HD
ENDBRANCH  10   1
BRANCH  13  18
ATOM     18  C   UNL     1      13.545  10.755  20.357  0.00  0.00    +0.077 C 
ATOM     20  C   UNL     1      12.205  10.046  20.521  0.00  0.00    +0.017 C 
BRANCH  18  21
ATOM      2  O   UNL     1      12.683  12.937  19.754  0.00  0.00    -0.276 OA
ATOM      6  N   UNL     1      14.206  11.915  18.334  0.00  0.00    -0.311 N 
ATOM     21  C   UNL     1      13.416  11.991  19.472  0.00  0.00    +0.216 C 
ATOM     39  H   UNL     1      14.810  11.111  18.194  0.00  0.00    +0.149 HD
BRANCH   6  24
ATOM     24  C   UNL     1      14.251  12.964  17.343  0.00  0.00    +0.139 C 
BRANCH  24  25
ATOM     25  C   UNL     1      14.715  12.457  16.008  0.00  0.00    -0.030 A 
ATOM     27  C   UNL     1      15.100  11.124  15.863  0.00  0.00    +0.005 A 
ATOM     28  C   UNL     1      14.761  13.320  14.913  0.00  0.00    +0.005 A 
ATOM     31  C   UNL     1      15.530  10.654  14.623  0.00  0.00    +0.000 A 
ATOM     32  C   UNL     1      15.191  12.849  13.672  0.00  0.00    +0.000 A 
ATOM     33  C   UNL     1      15.576  11.516  13.528  0.00  0.00    +0.000 A 
ENDBRANCH  24  25
ENDBRANCH   6  24
ENDBRANCH  18  21
ENDBRANCH  13  18
TORSDOF 9
ENDMDL
MODEL 8
REMARK VINA RESULT:      -6.8     16.339     20.359
REMARK  Name = 45784372
REMARK  12 active torsions:
REMARK  status: ('A' for Active; 'I' for Inactive)
REMARK    1  A    between atoms: O_1  and  C_10
REMARK    2  A    between atoms: O_4  and  C_23
REMARK    3  A    between atoms: O_4  and  C_26
REMARK    4  A    between atoms: N_5  and  C_14
REMARK    5  A    between atoms: N_6  and  C_24
REMARK    6  A    between atoms: C_7  and  C_17
REMARK    7  A    between atoms: C_9  and  C_19
REMARK    8  A    between atoms: C_13  and  C_18
REMARK    9  A    between atoms: C_18  and  C_20
REMARK   10  A    between atoms: C_18  and  C_21
REMARK   11  A    between atoms: C_22  and  C_23
REMARK   12  A    between atoms: C_24  and  C_25
REMARK                            x       y       z     vdW  Elec       q    Type
REMARK                         _______ _______ _______ _____ _____    ______ ____
ROOT
ATOM      7  C   UNL     1      14.040   4.916   0.610  0.00  0.00    -0.027 C 
ATOM      8  C   UNL     1      12.524   5.237   0.828  0.00  0.00    +0.028 C 
ATOM      9  C   UNL     1      12.210   5.447   2.353  0.00  0.00    +0.012 C 
ATOM     10  C   UNL     1      11.618   4.206   0.095  0.00  0.00    +0.122 C 
ATOM     11  C   UNL     1      14.336   4.829  -0.906  0.00  0.00    +0.007 C 
ATOM     12  C   UNL     1      14.888   6.072   1.189  0.00  0.00    +0.009 C 
ATOM     13  C   UNL     1      11.987   4.045  -1.398  0.00  0.00    +0.029 C 
ATOM     14  C   UNL     1      13.122   6.559   2.942  0.00  0.00    +0.076 C 
ATOM     15  C   UNL     1      13.478   3.792  -1.620  0.00  0.00    +0.007 C 
ATOM     16  C   UNL     1      14.608   6.339   2.661  0.00  0.00    +0.023 C 
ATOM     17  C   UNL     1      14.467   3.585   1.279  0.00  0.00    +0.011 C 
ATOM     19  C   UNL     1      10.739   5.794   2.637  0.00  0.00    +0.010 C 
ENDROOT
BRANCH  14   5
ATOM      3  O   UNL     1      13.107   9.015   4.469  0.00  0.00    -0.272 OA
ATOM      5  N   UNL     1      12.942   6.698   4.372  0.00  0.00    -0.309 N 
ATOM     22  C   UNL     1      12.950   7.926   5.013  0.00  0.00    +0.251 C 
ATOM     37  H   UNL     1      12.868   5.851   4.929  0.00  0.00    +0.149 HD
BRANCH  22  23
ATOM     23  C   UNL     1      12.739   7.777   6.505  0.00  0.00    +0.324 C 
BRANCH  23   4
ATOM      4  O   UNL     1      11.471   8.270   6.880  0.00  0.00    -0.483 OA
BRANCH   4  26
ATOM     26  C   UNL     1      10.370   7.598   6.405  0.00  0.00    +0.121 A 
ATOM     29  C   UNL     1       9.431   8.266   5.617  0.00  0.00    +0.045 A 
ATOM     30  C   UNL     1      10.192   6.248   6.708  0.00  0.00    +0.045 A 
ATOM     34  C   UNL     1       8.315   7.584   5.135  0.00  0.00    +0.004 A 
ATOM     35  C   UNL     1       9.076   5.566   6.225  0.00  0.00    +0.004 A 
ATOM     36  C   UNL     1       8.136   6.234   5.438  0.00  0.00    +0.000 A 
ENDBRANCH   4  26
ENDBRANCH  23   4
ENDBRANCH  22  23
ENDBRANCH  14   5
BRANCH  10   1
ATOM      1  O   UNL     1      10.261   4.650   0.134  0.00  0.00    -0.391 OA
ATOM     38  H   UNL     1       9.714   3.918   0.467  0.00  0.00    +0.210 HD
ENDBRANCH  10   1
BRANCH  13  18
ATOM     18  C   UNL     1      11.173   2.933  -2.070  0.00  0.00    +0.077 C 
ATOM     20  C   UNL     1      12.087   1.775  -2.457  0.00  0.00    +0.017 C 
BRANCH  18  21
ATOM      2  O   UNL     1      10.790   3.261  -4.439  0.00  0.00    -0.276 OA
ATOM      6  N   UNL     1       9.344   4.270  -2.932  0.00  0.00    -0.311 N 
ATOM     21  C   UNL     1      10.436   3.489  -3.284  0.00  0.00    +0.216 C 
ATOM     39  H   UNL     1       9.099   4.380  -1.953  0.00  0.00    +0.149 HD
BRANCH   6  24
ATOM     24  C   UNL     1       8.492   4.907  -3.908  0.00  0.00    +0.139 C 
BRANCH  24  25
ATOM     25  C   UNL     1       7.790   6.108  -3.343  0.00  0.00    -0.030 A 
ATOM     27  C   UNL     1       8.492   7.020  -2.556  0.00  0.00    +0.005 A 
ATOM     28  C   UNL     1       6.435   6.311  -3.605  0.00  0.00    +0.005 A 
ATOM     31  C   UNL     1       7.841   8.136  -2.032  0.00  0.00    +0.000 A 
ATOM     32  C   UNL     1       5.783   7.427  -3.080  0.00  0.00    +0.000 A 
ATOM     33  C   UNL     1       6.486   8.339  -2.294  0.00  0.00    +0.000 A 
ENDBRANCH  24  25
ENDBRANCH   6  24
ENDBRANCH  18  21
ENDBRANCH  13  18
TORSDOF 9
ENDMDL
MODEL 9
REMARK VINA RESULT:      -6.7     28.899     32.734
REMARK  Name = 45784372
REMARK  12 active torsions:
REMARK  status: ('A' for Active; 'I' for Inactive)
REMARK    1  A    between atoms: O_1  and  C_10
REMARK    2  A    between atoms: O_4  and  C_23
REMARK    3  A    between atoms: O_4  and  C_26
REMARK    4  A    between atoms: N_5  and  C_14
REMARK    5  A    between atoms: N_6  and  C_24
REMARK    6  A    between atoms: C_7  and  C_17
REMARK    7  A    between atoms: C_9  and  C_19
REMARK    8  A    between atoms: C_13  and  C_18
REMARK    9  A    between atoms: C_18  and  C_20
REMARK   10  A    between atoms: C_18  and  C_21
REMARK   11  A    between atoms: C_22  and  C_23
REMARK   12  A    between atoms: C_24  and  C_25
REMARK                            x       y       z     vdW  Elec       q    Type
REMARK                         _______ _______ _______ _____ _____    ______ ____
ROOT
ATOM      7  C   UNL     1      -4.945 -11.311  18.022  0.00  0.00    -0.027 C 
ATOM      8  C   UNL     1      -5.689 -12.379  17.152  0.00  0.00    +0.028 C 
ATOM      9  C   UNL     1      -6.540 -13.343  18.055  0.00  0.00    +0.012 C 
ATOM     10  C   UNL     1      -4.714 -13.077  16.161  0.00  0.00    +0.122 C 
ATOM     11  C   UNL     1      -4.212 -10.312  17.097  0.00  0.00    +0.007 C 
ATOM     12  C   UNL     1      -5.987 -10.516  18.843  0.00  0.00    +0.009 C 
ATOM     13  C   UNL     1      -3.906 -12.069  15.311  0.00  0.00    +0.029 C 
ATOM     14  C   UNL     1      -7.530 -12.525  18.930  0.00  0.00    +0.076 C 
ATOM     15  C   UNL     1      -3.227 -10.989  16.152  0.00  0.00    +0.007 C 
ATOM     16  C   UNL     1      -6.859 -11.402  19.720  0.00  0.00    +0.023 C 
ATOM     17  C   UNL     1      -3.913 -11.947  18.987  0.00  0.00    +0.011 C 
ATOM     19  C   UNL     1      -7.321 -14.401  17.259  0.00  0.00    +0.010 C 
ENDROOT
BRANCH  14   5
ATOM      3  O   UNL     1     -10.265 -12.218  19.818  0.00  0.00    -0.272 OA
ATOM      5  N   UNL     1      -8.248 -13.373  19.860  0.00  0.00    -0.309 N 
ATOM     22  C   UNL     1      -9.564 -13.141  20.223  0.00  0.00    +0.251 C 
ATOM     37  H   UNL     1      -7.739 -14.131  20.306  0.00  0.00    +0.149 HD
BRANCH  22  23
ATOM     23  C   UNL     1     -10.062 -14.179  21.205  0.00  0.00    +0.324 C 
BRANCH  23   4
ATOM      4  O   UNL     1      -8.979 -14.829  21.835  0.00  0.00    -0.483 OA
BRANCH   4  26
ATOM     26  C   UNL     1      -9.162 -15.237  23.135  0.00  0.00    +0.121 A 
ATOM     29  C   UNL     1      -8.070 -15.663  23.892  0.00  0.00    +0.045 A 
ATOM     30  C   UNL     1     -10.438 -15.222  23.698  0.00  0.00    +0.045 A 
ATOM     34  C   UNL     1      -8.255 -16.076  25.211  0.00  0.00    +0.004 A 
ATOM     35  C   UNL     1     -10.623 -15.636  25.017  0.00  0.00    +0.004 A 
ATOM     36  C   UNL     1      -9.532 -16.063  25.774  0.00  0.00    +0.000 A 
ENDBRANCH   4  26
ENDBRANCH  23   4
ENDBRANCH  22  23
ENDBRANCH  14   5
BRANCH  10   1
ATOM      1  O   UNL     1      -5.460 -13.879  15.243  0.00  0.00    -0.391 OA
ATOM     38  H   UNL     1      -6.172 -13.331  14.873  0.00  0.00    +0.210 HD
ENDBRANCH  10   1
BRANCH  13  18
ATOM     18  C   UNL     1      -2.860 -12.771  14.436  0.00  0.00    +0.077 C 
ATOM     20  C   UNL     1      -1.540 -12.008  14.484  0.00  0.00    +0.017 C 
BRANCH  18  21
ATOM      2  O   UNL     1      -4.100 -13.823  12.642  0.00  0.00    -0.276 OA
ATOM      6  N   UNL     1      -2.940 -11.866  12.190  0.00  0.00    -0.311 N 
ATOM     21  C   UNL     1      -3.377 -12.898  13.007  0.00  0.00    +0.216 C 
ATOM     39  H   UNL     1      -2.372 -11.121  12.580  0.00  0.00    +0.149 HD
BRANCH   6  24
ATOM     24  C   UNL     1      -3.297 -11.771  10.794  0.00  0.00    +0.139 C 
BRANCH  24  25
ATOM     25  C   UNL     1      -4.041 -10.502  10.489  0.00  0.00    -0.030 A 
ATOM     27  C   UNL     1      -4.772  -9.864  11.491  0.00  0.00    +0.005 A 
ATOM     28  C   UNL     1      -4.001  -9.962   9.204  0.00  0.00    +0.005 A 
ATOM     31  C   UNL     1      -5.463  -8.686  11.209  0.00  0.00    +0.000 A 
ATOM     32  C   UNL     1      -4.692  -8.784   8.921  0.00  0.00    +0.000 A 
ATOM     33  C   UNL     1      -5.423  -8.147   9.923  0.00  0.00    +0.000 A 
ENDBRANCH  24  25
ENDBRANCH   6  24
ENDBRANCH  18  21
ENDBRANCH  13  18
TORSDOF 9
ENDMDL
MODEL 10
REMARK VINA RESULT:      -6.6     12.262     14.361
REMARK  Name = 45784372
REMARK  12 active torsions:
REMARK  status: ('A' for Active; 'I' for Inactive)
REMARK    1  A    between atoms: O_1  and  C_10
REMARK    2  A    between atoms: O_4  and  C_23
REMARK    3  A    between atoms: O_4  and  C_26
REMARK    4  A    between atoms: N_5  and  C_14
REMARK    5  A    between atoms: N_6  and  C_24
REMARK    6  A    between atoms: C_7  and  C_17
REMARK    7  A    between atoms: C_9  and  C_19
REMARK    8  A    between atoms: C_13  and  C_18
REMARK    9  A    between atoms: C_18  and  C_20
REMARK   10  A    between atoms: C_18  and  C_21
REMARK   11  A    between atoms: C_22  and  C_23
REMARK   12  A    between atoms: C_24  and  C_25
REMARK                            x       y       z     vdW  Elec       q    Type
REMARK                         _______ _______ _______ _____ _____    ______ ____
ROOT
ATOM      7  C   UNL     1      11.306   9.620   6.861  0.00  0.00    -0.027 C 
ATOM      8  C   UNL     1      12.224   8.384   7.143  0.00  0.00    +0.028 C 
ATOM      9  C   UNL     1      13.553   8.472   6.309  0.00  0.00    +0.012 C 
ATOM     10  C   UNL     1      11.435   7.051   7.004  0.00  0.00    +0.122 C 
ATOM     11  C   UNL     1      10.063   9.559   7.780  0.00  0.00    +0.007 C 
ATOM     12  C   UNL     1      12.081  10.913   7.202  0.00  0.00    +0.009 C 
ATOM     13  C   UNL     1      10.137   7.036   7.845  0.00  0.00    +0.029 C 
ATOM     14  C   UNL     1      14.285   9.811   6.604  0.00  0.00    +0.076 C 
ATOM     15  C   UNL     1       9.265   8.271   7.617  0.00  0.00    +0.007 C 
ATOM     16  C   UNL     1      13.392  11.041   6.442  0.00  0.00    +0.023 C 
ATOM     17  C   UNL     1      10.832   9.683   5.387  0.00  0.00    +0.011 C 
ATOM     19  C   UNL     1      14.517   7.301   6.561  0.00  0.00    +0.010 C 
ENDROOT
BRANCH  14   5
ATOM      3  O   UNL     1      16.688  11.292   7.233  0.00  0.00    -0.272 OA
ATOM      5  N   UNL     1      15.453   9.979   5.765  0.00  0.00    -0.309 N 
ATOM     22  C   UNL     1      16.561  10.711   6.160  0.00  0.00    +0.251 C 
ATOM     37  H   UNL     1      15.427   9.592   4.826  0.00  0.00    +0.149 HD
BRANCH  22  23
ATOM     23  C   UNL     1      17.633  10.719   5.091  0.00  0.00    +0.324 C 
BRANCH  23   4
ATOM      4  O   UNL     1      17.778   9.436   4.521  0.00  0.00    -0.483 OA
BRANCH   4  26
ATOM     26  C   UNL     1      18.885   8.708   4.887  0.00  0.00    +0.121 A 
ATOM     29  C   UNL     1      19.354   8.765   6.199  0.00  0.00    +0.045 A 
ATOM     30  C   UNL     1      19.538   7.912   3.946  0.00  0.00    +0.045 A 
ATOM     34  C   UNL     1      20.477   8.026   6.570  0.00  0.00    +0.004 A 
ATOM     35  C   UNL     1      20.661   7.173   4.317  0.00  0.00    +0.004 A 
ATOM     36  C   UNL     1      21.132   7.230   5.630  0.00  0.00    +0.000 A 
ENDBRANCH   4  26
ENDBRANCH  23   4
ENDBRANCH  22  23
ENDBRANCH  14   5
BRANCH  10   1
ATOM      1  O   UNL     1      12.239   5.968   7.476  0.00  0.00    -0.391 OA
ATOM     38  H   UNL     1      12.830   6.311   8.168  0.00  0.00    +0.210 HD
ENDBRANCH  10   1
BRANCH  13  18
ATOM     18  C   UNL     1       9.309   5.771   7.594  0.00  0.00    +0.077 C 
ATOM     20  C   UNL     1       9.943   4.580   8.304  0.00  0.00    +0.017 C 
BRANCH  18  21
ATOM      2  O   UNL     1       8.215   5.896   5.436  0.00  0.00    -0.276 OA
ATOM      6  N   UNL     1      10.272   4.832   5.577  0.00  0.00    -0.311 N 
ATOM     21  C   UNL     1       9.184   5.521   6.094  0.00  0.00    +0.216 C 
ATOM     39  H   UNL     1      11.048   4.589   6.185  0.00  0.00    +0.149 HD
BRANCH   6  24
ATOM     24  C   UNL     1      10.380   4.477   4.182  0.00  0.00    +0.139 C 
BRANCH  24  25
ATOM     25  C   UNL     1      10.830   5.637   3.340  0.00  0.00    -0.030 A 
ATOM     27  C   UNL     1      12.009   6.311   3.655  0.00  0.00    +0.005 A 
ATOM     28  C   UNL     1      10.066   6.039   2.245  0.00  0.00    +0.005 A 
ATOM     31  C   UNL     1      12.427   7.387   2.873  0.00  0.00    +0.000 A 
ATOM     32  C   UNL     1      10.484   7.117   1.463  0.00  0.00    +0.000 A 
ATOM     33  C   UNL     1      11.663   7.790   1.777  0.00  0.00    +0.000 A 
ENDBRANCH  24  25
ENDBRANCH   6  24
ENDBRANCH  18  21
ENDBRANCH  13  18
TORSDOF 9
ENDMDL
