MODEL 1
REMARK VINA RESULT:      -6.1      0.000      0.000
REMARK  Name = 75536837
REMARK  5 active torsions:
REMARK  status: ('A' for Active; 'I' for Inactive)
REMARK    1  A    between atoms: O_3  and  C_10
REMARK    2  A    between atoms: N_6  and  C_9
REMARK    3  A    between atoms: N_6  and  C_12
REMARK    4  A    between atoms: N_7  and  C_14
REMARK    5  A    between atoms: C_11  and  C_14
REMARK                            x       y       z     vdW  Elec       q    Type
REMARK                         _______ _______ _______ _____ _____    ______ ____
ROOT
ATOM      1  O   UNL     1      16.712   5.640  18.657  0.00  0.00    -0.371 OA
ATOM      9  C   UNL     1      17.949   6.285  20.579  0.00  0.00    +0.111 C 
ATOM     10  C   UNL     1      16.802   7.260  20.378  0.00  0.00    +0.164 C 
ATOM     11  C   UNL     1      15.866   6.435  19.504  0.00  0.00    +0.165 C 
ATOM     13  C   UNL     1      18.042   5.642  19.204  0.00  0.00    +0.181 C 
ENDROOT
BRANCH  10   3
ATOM      3  O   UNL     1      16.190   7.641  21.594  0.00  0.00    -0.388 OA
ATOM     23  H   UNL     1      15.551   6.952  21.844  0.00  0.00    +0.210 HD
ENDBRANCH  10   3
BRANCH   9   6
ATOM      6  N   UNL     1      19.189   6.921  20.992  0.00  0.00    -0.302 NA
ATOM     22  H   UNL     1      19.078   7.239  21.955  0.00  0.00    +0.123 HD
BRANCH   6  12
ATOM      2  O   UNL     1      22.232   6.306  21.681  0.00  0.00    -0.377 OA
ATOM     12  C   UNL     1      20.304   5.979  20.827  0.00  0.00    +0.106 C 
ATOM     15  C   UNL     1      20.980   5.768  22.181  0.00  0.00    +0.180 C 
ATOM     16  C   UNL     1      21.570   6.757  20.471  0.00  0.00    +0.180 C 
ENDBRANCH   6  12
ENDBRANCH   9   6
BRANCH  11  14
ATOM     14  C   UNL     1      14.937   7.282  18.654  0.00  0.00    +0.140 C 
BRANCH  14   7
ATOM      4  O   UNL     1      10.706   9.906  22.705  0.00  0.00    -0.377 OA
ATOM      5  O   UNL     1      12.352   6.535  19.479  0.00  0.00    -0.253 OA
ATOM      7  N   UNL     1      14.049   8.078  19.473  0.00  0.00    -0.297 N 
ATOM      8  N   UNL     1      12.037   8.524  20.630  0.00  0.00    -0.281 N 
ATOM     17  C   UNL     1      12.784   7.636  19.838  0.00  0.00    +0.302 C 
ATOM     18  C   UNL     1      12.412   9.904  20.973  0.00  0.00    +0.137 C 
ATOM     19  C   UNL     1      10.688   8.142  21.054  0.00  0.00    +0.137 C 
ATOM     20  C   UNL     1      12.073  10.213  22.427  0.00  0.00    +0.179 C 
ATOM     21  C   UNL     1      10.448   8.514  22.508  0.00  0.00    +0.179 C 
ATOM     24  H   UNL     1      14.398   8.985  19.751  0.00  0.00    +0.150 HD
ENDBRANCH  14   7
ENDBRANCH  11  14
TORSDOF 5
ENDMDL
MODEL 2
REMARK VINA RESULT:      -5.7      1.735      1.957
REMARK  Name = 75536837
REMARK  5 active torsions:
REMARK  status: ('A' for Active; 'I' for Inactive)
REMARK    1  A    between atoms: O_3  and  C_10
REMARK    2  A    between atoms: N_6  and  C_9
REMARK    3  A    between atoms: N_6  and  C_12
REMARK    4  A    between atoms: N_7  and  C_14
REMARK    5  A    between atoms: C_11  and  C_14
REMARK                            x       y       z     vdW  Elec       q    Type
REMARK                         _______ _______ _______ _____ _____    ______ ____
ROOT
ATOM      1  O   UNL     1      16.348   6.037  19.065  0.00  0.00    -0.371 OA
ATOM      9  C   UNL     1      17.230   6.416  21.238  0.00  0.00    +0.111 C 
ATOM     10  C   UNL     1      15.886   7.113  21.121  0.00  0.00    +0.164 C 
ATOM     11  C   UNL     1      15.264   6.357  19.954  0.00  0.00    +0.165 C 
ATOM     13  C   UNL     1      17.587   6.204  19.776  0.00  0.00    +0.181 C 
ENDROOT
BRANCH  10   3
ATOM      3  O   UNL     1      15.109   7.002  22.296  0.00  0.00    -0.388 OA
ATOM     23  H   UNL     1      15.113   7.862  22.749  0.00  0.00    +0.210 HD
ENDBRANCH  10   3
BRANCH   9   6
ATOM      6  N   UNL     1      18.227   7.190  21.958  0.00  0.00    -0.302 NA
ATOM     22  H   UNL     1      19.003   6.570  22.192  0.00  0.00    +0.123 HD
BRANCH   6  12
ATOM      2  O   UNL     1      19.946   9.864  21.870  0.00  0.00    -0.377 OA
ATOM     12  C   UNL     1      18.641   8.339  21.144  0.00  0.00    +0.106 C 
ATOM     15  C   UNL     1      20.147   8.544  21.302  0.00  0.00    +0.180 C 
ATOM     16  C   UNL     1      18.520   9.615  21.976  0.00  0.00    +0.180 C 
ENDBRANCH   6  12
ENDBRANCH   9   6
BRANCH  11  14
ATOM     14  C   UNL     1      14.210   7.159  19.212  0.00  0.00    +0.140 C 
BRANCH  14   7
ATOM      4  O   UNL     1      11.517  11.314  23.297  0.00  0.00    -0.377 OA
ATOM      5  O   UNL     1      11.626   7.372  20.307  0.00  0.00    -0.253 OA
ATOM      7  N   UNL     1      13.722   8.260  20.014  0.00  0.00    -0.297 N 
ATOM      8  N   UNL     1      12.098   9.428  21.273  0.00  0.00    -0.281 N 
ATOM     17  C   UNL     1      12.428   8.289  20.519  0.00  0.00    +0.302 C 
ATOM     18  C   UNL     1      12.934  10.625  21.445  0.00  0.00    +0.137 C 
ATOM     19  C   UNL     1      10.752   9.546  21.838  0.00  0.00    +0.137 C 
ATOM     20  C   UNL     1      12.872  11.128  22.883  0.00  0.00    +0.179 C 
ATOM     21  C   UNL     1      10.803  10.076  23.262  0.00  0.00    +0.179 C 
ATOM     24  H   UNL     1      14.372   9.016  20.171  0.00  0.00    +0.150 HD
ENDBRANCH  14   7
ENDBRANCH  11  14
TORSDOF 5
ENDMDL
MODEL 3
REMARK VINA RESULT:      -5.6      2.779      3.716
REMARK  Name = 75536837
REMARK  5 active torsions:
REMARK  status: ('A' for Active; 'I' for Inactive)
REMARK    1  A    between atoms: O_3  and  C_10
REMARK    2  A    between atoms: N_6  and  C_9
REMARK    3  A    between atoms: N_6  and  C_12
REMARK    4  A    between atoms: N_7  and  C_14
REMARK    5  A    between atoms: C_11  and  C_14
REMARK                            x       y       z     vdW  Elec       q    Type
REMARK                         _______ _______ _______ _____ _____    ______ ____
ROOT
ATOM      1  O   UNL     1      19.292   7.111  21.846  0.00  0.00    -0.371 OA
ATOM      9  C   UNL     1      20.352   5.527  20.429  0.00  0.00    +0.111 C 
ATOM     10  C   UNL     1      18.849   5.440  20.232  0.00  0.00    +0.164 C 
ATOM     11  C   UNL     1      18.405   6.798  20.759  0.00  0.00    +0.165 C 
ATOM     13  C   UNL     1      20.438   6.247  21.765  0.00  0.00    +0.181 C 
ENDROOT
BRANCH  10   3
ATOM      3  O   UNL     1      18.485   5.255  18.878  0.00  0.00    -0.388 OA
ATOM     23  H   UNL     1      19.296   5.107  18.361  0.00  0.00    +0.210 HD
ENDBRANCH  10   3
BRANCH   9   6
ATOM      6  N   UNL     1      21.014   4.233  20.439  0.00  0.00    -0.302 NA
ATOM     22  H   UNL     1      21.207   3.967  19.473  0.00  0.00    +0.123 HD
BRANCH   6  12
ATOM      2  O   UNL     1      24.056   3.352  20.721  0.00  0.00    -0.377 OA
ATOM     12  C   UNL     1      22.227   4.307  21.264  0.00  0.00    +0.106 C 
ATOM     15  C   UNL     1      23.423   4.607  20.362  0.00  0.00    +0.180 C 
ATOM     16  C   UNL     1      22.840   2.913  21.381  0.00  0.00    +0.180 C 
ENDBRANCH   6  12
ENDBRANCH   9   6
BRANCH  11  14
ATOM     14  C   UNL     1      16.968   6.812  21.247  0.00  0.00    +0.140 C 
BRANCH  14   7
ATOM      4  O   UNL     1      12.736   9.887  17.527  0.00  0.00    -0.377 OA
ATOM      5  O   UNL     1      15.654   6.118  18.857  0.00  0.00    -0.253 OA
ATOM      7  N   UNL     1      16.146   7.695  20.449  0.00  0.00    -0.297 N 
ATOM      8  N   UNL     1      14.770   8.248  18.609  0.00  0.00    -0.281 N 
ATOM     17  C   UNL     1      15.530   7.274  19.278  0.00  0.00    +0.302 C 
ATOM     18  C   UNL     1      14.693   9.675  18.955  0.00  0.00    +0.137 C 
ATOM     19  C   UNL     1      14.091   7.893  17.361  0.00  0.00    +0.137 C 
ATOM     20  C   UNL     1      13.264  10.190  18.820  0.00  0.00    +0.179 C 
ATOM     21  C   UNL     1      12.687   8.473  17.319  0.00  0.00    +0.179 C 
ATOM     24  H   UNL     1      16.060   8.644  20.785  0.00  0.00    +0.150 HD
ENDBRANCH  14   7
ENDBRANCH  11  14
TORSDOF 5
ENDMDL
MODEL 4
REMARK VINA RESULT:      -5.5     28.646     31.262
REMARK  Name = 75536837
REMARK  5 active torsions:
REMARK  status: ('A' for Active; 'I' for Inactive)
REMARK    1  A    between atoms: O_3  and  C_10
REMARK    2  A    between atoms: N_6  and  C_9
REMARK    3  A    between atoms: N_6  and  C_12
REMARK    4  A    between atoms: N_7  and  C_14
REMARK    5  A    between atoms: C_11  and  C_14
REMARK                            x       y       z     vdW  Elec       q    Type
REMARK                         _______ _______ _______ _____ _____    ______ ____
ROOT
ATOM      1  O   UNL     1       1.388   1.910  -7.369  0.00  0.00    -0.371 OA
ATOM      9  C   UNL     1      -0.626   1.141  -6.371  0.00  0.00    +0.111 C 
ATOM     10  C   UNL     1       0.359   1.512  -5.276  0.00  0.00    +0.164 C 
ATOM     11  C   UNL     1       1.304   2.435  -6.033  0.00  0.00    +0.165 C 
ATOM     13  C   UNL     1       0.298   0.993  -7.569  0.00  0.00    +0.181 C 
ENDROOT
BRANCH  10   3
ATOM      3  O   UNL     1      -0.258   2.168  -4.186  0.00  0.00    -0.388 OA
ATOM     23  H   UNL     1       0.249   2.974  -3.987  0.00  0.00    +0.210 HD
ENDBRANCH  10   3
BRANCH   9   6
ATOM      6  N   UNL     1      -1.384  -0.066  -6.088  0.00  0.00    -0.302 NA
ATOM     22  H   UNL     1      -2.168   0.185  -5.483  0.00  0.00    +0.123 HD
BRANCH   6  12
ATOM      2  O   UNL     1      -3.674  -1.705  -7.565  0.00  0.00    -0.377 OA
ATOM     12  C   UNL     1      -1.812  -0.685  -7.349  0.00  0.00    +0.106 C 
ATOM     15  C   UNL     1      -3.270  -0.312  -7.616  0.00  0.00    +0.180 C 
ATOM     16  C   UNL     1      -2.366  -2.080  -7.060  0.00  0.00    +0.180 C 
ENDBRANCH   6  12
ENDBRANCH   9   6
BRANCH  11  14
ATOM     14  C   UNL     1       2.692   2.507  -5.421  0.00  0.00    +0.140 C 
BRANCH  14   7
ATOM      4  O   UNL     1       5.523   8.266  -5.517  0.00  0.00    -0.377 OA
ATOM      5  O   UNL     1       2.354   4.837  -3.879  0.00  0.00    -0.253 OA
ATOM      7  N   UNL     1       3.317   3.785  -5.677  0.00  0.00    -0.297 N 
ATOM      8  N   UNL     1       3.771   6.064  -5.245  0.00  0.00    -0.281 N 
ATOM     17  C   UNL     1       3.098   4.891  -4.864  0.00  0.00    +0.302 C 
ATOM     18  C   UNL     1       4.549   6.256  -6.478  0.00  0.00    +0.137 C 
ATOM     19  C   UNL     1       3.592   7.281  -4.449  0.00  0.00    +0.137 C 
ATOM     20  C   UNL     1       5.822   7.047  -6.199  0.00  0.00    +0.179 C 
ATOM     21  C   UNL     1       4.916   8.002  -4.250  0.00  0.00    +0.179 C 
ATOM     24  H   UNL     1       3.911   3.833  -6.492  0.00  0.00    +0.150 HD
ENDBRANCH  14   7
ENDBRANCH  11  14
TORSDOF 5
ENDMDL
MODEL 5
REMARK VINA RESULT:      -5.4      1.478      7.737
REMARK  Name = 75536837
REMARK  5 active torsions:
REMARK  status: ('A' for Active; 'I' for Inactive)
REMARK    1  A    between atoms: O_3  and  C_10
REMARK    2  A    between atoms: N_6  and  C_9
REMARK    3  A    between atoms: N_6  and  C_12
REMARK    4  A    between atoms: N_7  and  C_14
REMARK    5  A    between atoms: C_11  and  C_14
REMARK                            x       y       z     vdW  Elec       q    Type
REMARK                         _______ _______ _______ _____ _____    ______ ____
ROOT
ATOM      1  O   UNL     1      14.829   7.276  21.536  0.00  0.00    -0.371 OA
ATOM      9  C   UNL     1      12.577   7.869  21.069  0.00  0.00    +0.111 C 
ATOM     10  C   UNL     1      13.278   7.526  19.767  0.00  0.00    +0.164 C 
ATOM     11  C   UNL     1      14.451   6.698  20.275  0.00  0.00    +0.165 C 
ATOM     13  C   UNL     1      13.759   8.124  21.990  0.00  0.00    +0.181 C 
ENDROOT
BRANCH  10   3
ATOM      3  O   UNL     1      12.457   6.790  18.882  0.00  0.00    -0.388 OA
ATOM     23  H   UNL     1      13.009   6.468  18.149  0.00  0.00    +0.210 HD
ENDBRANCH  10   3
BRANCH   9   6
ATOM      6  N   UNL     1      11.683   9.011  20.967  0.00  0.00    -0.302 NA
ATOM     22  H   UNL     1      10.732   8.687  21.149  0.00  0.00    +0.123 HD
BRANCH   6  12
ATOM      2  O   UNL     1      10.959  11.810  22.291  0.00  0.00    -0.377 OA
ATOM     12  C   UNL     1      12.117  10.060  21.897  0.00  0.00    +0.106 C 
ATOM     15  C   UNL     1      10.941  10.448  22.793  0.00  0.00    +0.180 C 
ATOM     16  C   UNL     1      11.895  11.427  21.250  0.00  0.00    +0.180 C 
ENDBRANCH   6  12
ENDBRANCH   9   6
BRANCH  11  14
ATOM     14  C   UNL     1      15.640   6.699  19.332  0.00  0.00    +0.140 C 
BRANCH  14   7
ATOM      4  O   UNL     1      21.535   7.962  21.533  0.00  0.00    -0.377 OA
ATOM      5  O   UNL     1      18.066   5.274  19.249  0.00  0.00    -0.253 OA
ATOM      7  N   UNL     1      16.859   7.067  20.018  0.00  0.00    -0.297 N 
ATOM      8  N   UNL     1      19.118   6.790  20.654  0.00  0.00    -0.281 N 
ATOM     17  C   UNL     1      18.018   6.307  19.925  0.00  0.00    +0.302 C 
ATOM     18  C   UNL     1      19.105   7.917  21.598  0.00  0.00    +0.137 C 
ATOM     19  C   UNL     1      20.380   6.047  20.619  0.00  0.00    +0.137 C 
ATOM     20  C   UNL     1      20.360   8.769  21.442  0.00  0.00    +0.179 C 
ATOM     21  C   UNL     1      21.565   6.990  20.485  0.00  0.00    +0.179 C 
ATOM     24  H   UNL     1      16.813   7.902  20.585  0.00  0.00    +0.150 HD
ENDBRANCH  14   7
ENDBRANCH  11  14
TORSDOF 5
ENDMDL
MODEL 6
REMARK VINA RESULT:      -5.4      1.998      8.243
REMARK  Name = 75536837
REMARK  5 active torsions:
REMARK  status: ('A' for Active; 'I' for Inactive)
REMARK    1  A    between atoms: O_3  and  C_10
REMARK    2  A    between atoms: N_6  and  C_9
REMARK    3  A    between atoms: N_6  and  C_12
REMARK    4  A    between atoms: N_7  and  C_14
REMARK    5  A    between atoms: C_11  and  C_14
REMARK                            x       y       z     vdW  Elec       q    Type
REMARK                         _______ _______ _______ _____ _____    ______ ____
ROOT
ATOM      1  O   UNL     1      17.023   7.113  19.965  0.00  0.00    -0.371 OA
ATOM      9  C   UNL     1      14.746   7.231  20.630  0.00  0.00    +0.111 C 
ATOM     10  C   UNL     1      15.605   7.909  21.683  0.00  0.00    +0.164 C 
ATOM     11  C   UNL     1      16.866   8.207  20.885  0.00  0.00    +0.165 C 
ATOM     13  C   UNL     1      15.779   6.395  19.892  0.00  0.00    +0.181 C 
ENDROOT
BRANCH  10   3
ATOM      3  O   UNL     1      15.013   9.086  22.195  0.00  0.00    -0.388 OA
ATOM     23  H   UNL     1      15.247   9.826  21.608  0.00  0.00    +0.210 HD
ENDBRANCH  10   3
BRANCH   9   6
ATOM      6  N   UNL     1      13.664   6.434  21.185  0.00  0.00    -0.302 NA
ATOM     22  H   UNL     1      13.574   6.665  22.175  0.00  0.00    +0.123 HD
BRANCH   6  12
ATOM      2  O   UNL     1      10.858   7.929  21.151  0.00  0.00    -0.377 OA
ATOM     12  C   UNL     1      12.432   6.682  20.427  0.00  0.00    +0.106 C 
ATOM     15  C   UNL     1      12.115   8.177  20.469  0.00  0.00    +0.180 C 
ATOM     16  C   UNL     1      11.231   6.542  21.362  0.00  0.00    +0.180 C 
ENDBRANCH   6  12
ENDBRANCH   9   6
BRANCH  11  14
ATOM     14  C   UNL     1      18.108   8.335  21.749  0.00  0.00    +0.140 C 
BRANCH  14   7
ATOM      4  O   UNL     1      22.290   3.470  21.545  0.00  0.00    -0.377 OA
ATOM      5  O   UNL     1      20.255   7.579  23.404  0.00  0.00    -0.253 OA
ATOM      7  N   UNL     1      19.056   7.278  21.471  0.00  0.00    -0.297 N 
ATOM      8  N   UNL     1      20.934   5.920  21.933  0.00  0.00    -0.281 N 
ATOM     17  C   UNL     1      20.091   6.966  22.343  0.00  0.00    +0.302 C 
ATOM     18  C   UNL     1      20.904   5.244  20.627  0.00  0.00    +0.137 C 
ATOM     19  C   UNL     1      22.057   5.529  22.788  0.00  0.00    +0.137 C 
ATOM     20  C   UNL     1      21.109   3.742  20.789  0.00  0.00    +0.179 C 
ATOM     21  C   UNL     1      22.186   4.016  22.861  0.00  0.00    +0.179 C 
ATOM     24  H   UNL     1      18.931   6.790  20.596  0.00  0.00    +0.150 HD
ENDBRANCH  14   7
ENDBRANCH  11  14
TORSDOF 5
ENDMDL
MODEL 7
REMARK VINA RESULT:      -5.2     27.301     28.991
REMARK  Name = 75536837
REMARK  5 active torsions:
REMARK  status: ('A' for Active; 'I' for Inactive)
REMARK    1  A    between atoms: O_3  and  C_10
REMARK    2  A    between atoms: N_6  and  C_9
REMARK    3  A    between atoms: N_6  and  C_12
REMARK    4  A    between atoms: N_7  and  C_14
REMARK    5  A    between atoms: C_11  and  C_14
REMARK                            x       y       z     vdW  Elec       q    Type
REMARK                         _______ _______ _______ _____ _____    ______ ____
ROOT
ATOM      1  O   UNL     1      -5.053 -12.650  18.487  0.00  0.00    -0.371 OA
ATOM      9  C   UNL     1      -4.477 -11.953  16.291  0.00  0.00    +0.111 C 
ATOM     10  C   UNL     1      -5.130 -10.794  17.022  0.00  0.00    +0.164 C 
ATOM     11  C   UNL     1      -4.938 -11.217  18.472  0.00  0.00    +0.165 C 
ATOM     13  C   UNL     1      -4.922 -13.133  17.139  0.00  0.00    +0.181 C 
ENDROOT
BRANCH  10   3
ATOM      3  O   UNL     1      -4.509  -9.555  16.747  0.00  0.00    -0.388 OA
ATOM     23  H   UNL     1      -4.267  -9.139  17.593  0.00  0.00    +0.210 HD
ENDBRANCH  10   3
BRANCH   9   6
ATOM      6  N   UNL     1      -4.885 -12.069  14.900  0.00  0.00    -0.302 NA
ATOM     22  H   UNL     1      -5.528 -11.305  14.693  0.00  0.00    +0.123 HD
BRANCH   6  12
ATOM      2  O   UNL     1      -2.246 -10.500  14.071  0.00  0.00    -0.377 OA
ATOM     12  C   UNL     1      -3.697 -12.065  14.037  0.00  0.00    +0.106 C 
ATOM     15  C   UNL     1      -2.476 -11.687  14.874  0.00  0.00    +0.180 C 
ATOM     16  C   UNL     1      -3.530 -10.678  13.419  0.00  0.00    +0.180 C 
ENDBRANCH   6  12
ENDBRANCH   9   6
BRANCH  11  14
ATOM     14  C   UNL     1      -5.960 -10.609  19.416  0.00  0.00    +0.140 C 
BRANCH  14   7
ATOM      4  O   UNL     1     -11.440  -8.290  17.011  0.00  0.00    -0.377 OA
ATOM      5  O   UNL     1      -8.597 -11.590  19.358  0.00  0.00    -0.253 OA
ATOM      7  N   UNL     1      -7.064 -10.020  18.691  0.00  0.00    -0.297 N 
ATOM      8  N   UNL     1      -9.306  -9.885  17.955  0.00  0.00    -0.281 N 
ATOM     17  C   UNL     1      -8.340 -10.567  18.714  0.00  0.00    +0.302 C 
ATOM     18  C   UNL     1      -9.055  -8.757  17.045  0.00  0.00    +0.137 C 
ATOM     19  C   UNL     1     -10.678 -10.397  17.917  0.00  0.00    +0.137 C 
ATOM     20  C   UNL     1     -10.149  -7.703  17.174  0.00  0.00    +0.179 C 
ATOM     21  C   UNL     1     -11.686  -9.265  18.028  0.00  0.00    +0.179 C 
ATOM     24  H   UNL     1      -6.848  -9.193  18.151  0.00  0.00    +0.150 HD
ENDBRANCH  14   7
ENDBRANCH  11  14
TORSDOF 5
ENDMDL
MODEL 8
REMARK VINA RESULT:      -5.2     29.289     31.232
REMARK  Name = 75536837
REMARK  5 active torsions:
REMARK  status: ('A' for Active; 'I' for Inactive)
REMARK    1  A    between atoms: O_3  and  C_10
REMARK    2  A    between atoms: N_6  and  C_9
REMARK    3  A    between atoms: N_6  and  C_12
REMARK    4  A    between atoms: N_7  and  C_14
REMARK    5  A    between atoms: C_11  and  C_14
REMARK                            x       y       z     vdW  Elec       q    Type
REMARK                         _______ _______ _______ _____ _____    ______ ____
ROOT
ATOM      1  O   UNL     1     -12.529  -7.851  14.311  0.00  0.00    -0.371 OA
ATOM      9  C   UNL     1     -10.631  -7.886  15.738  0.00  0.00    +0.111 C 
ATOM     10  C   UNL     1     -11.098  -6.451  15.570  0.00  0.00    +0.164 C 
ATOM     11  C   UNL     1     -12.537  -6.662  15.118  0.00  0.00    +0.165 C 
ATOM     13  C   UNL     1     -11.302  -8.561  14.553  0.00  0.00    +0.181 C 
ENDROOT
BRANCH  10   3
ATOM      3  O   UNL     1     -11.026  -5.709  16.771  0.00  0.00    -0.388 OA
ATOM     23  H   UNL     1     -11.512  -4.875  16.646  0.00  0.00    +0.210 HD
ENDBRANCH  10   3
BRANCH   9   6
ATOM      6  N   UNL     1      -9.185  -8.033  15.730  0.00  0.00    -0.302 NA
ATOM     22  H   UNL     1      -8.788  -7.308  16.330  0.00  0.00    +0.123 HD
BRANCH   6  12
ATOM      2  O   UNL     1      -7.876  -9.798  18.028  0.00  0.00    -0.377 OA
ATOM     12  C   UNL     1      -8.826  -9.390  16.161  0.00  0.00    +0.106 C 
ATOM     15  C   UNL     1      -9.250  -9.577  17.617  0.00  0.00    +0.180 C 
ATOM     16  C   UNL     1      -7.404  -9.379  16.722  0.00  0.00    +0.180 C 
ENDBRANCH   6  12
ENDBRANCH   9   6
BRANCH  11  14
ATOM     14  C   UNL     1     -13.090  -5.499  14.315  0.00  0.00    +0.140 C 
BRANCH  14   7
ATOM      4  O   UNL     1     -10.784  -5.238   8.330  0.00  0.00    -0.377 OA
ATOM      5  O   UNL     1     -12.263  -3.372  12.668  0.00  0.00    -0.253 OA
ATOM      7  N   UNL     1     -12.732  -5.604  12.917  0.00  0.00    -0.297 N 
ATOM      8  N   UNL     1     -12.023  -4.761  10.826  0.00  0.00    -0.281 N 
ATOM     17  C   UNL     1     -12.332  -4.501  12.172  0.00  0.00    +0.302 C 
ATOM     18  C   UNL     1     -12.222  -6.036  10.121  0.00  0.00    +0.137 C 
ATOM     19  C   UNL     1     -11.599  -3.655   9.964  0.00  0.00    +0.137 C 
ATOM     20  C   UNL     1     -11.043  -6.338   9.203  0.00  0.00    +0.179 C 
ATOM     21  C   UNL     1     -10.437  -4.069   9.077  0.00  0.00    +0.179 C 
ATOM     24  H   UNL     1     -12.806  -6.525  12.509  0.00  0.00    +0.150 HD
ENDBRANCH  14   7
ENDBRANCH  11  14
TORSDOF 5
ENDMDL
MODEL 9
REMARK VINA RESULT:      -5.2     17.125     18.961
REMARK  Name = 75536837
REMARK  5 active torsions:
REMARK  status: ('A' for Active; 'I' for Inactive)
REMARK    1  A    between atoms: O_3  and  C_10
REMARK    2  A    between atoms: N_6  and  C_9
REMARK    3  A    between atoms: N_6  and  C_12
REMARK    4  A    between atoms: N_7  and  C_14
REMARK    5  A    between atoms: C_11  and  C_14
REMARK                            x       y       z     vdW  Elec       q    Type
REMARK                         _______ _______ _______ _____ _____    ______ ____
ROOT
ATOM      1  O   UNL     1      13.213   3.644  -0.366  0.00  0.00    -0.371 OA
ATOM      9  C   UNL     1      15.505   3.996   0.149  0.00  0.00    +0.111 C 
ATOM     10  C   UNL     1      14.711   3.933   1.442  0.00  0.00    +0.164 C 
ATOM     11  C   UNL     1      13.456   3.203   0.981  0.00  0.00    +0.165 C 
ATOM     13  C   UNL     1      14.406   4.272  -0.865  0.00  0.00    +0.181 C 
ENDROOT
BRANCH  10   3
ATOM      3  O   UNL     1      15.386   3.228   2.464  0.00  0.00    -0.388 OA
ATOM     23  H   UNL     1      16.317   3.512   2.469  0.00  0.00    +0.210 HD
ENDBRANCH  10   3
BRANCH   9   6
ATOM      6  N   UNL     1      16.543   5.013   0.150  0.00  0.00    -0.302 NA
ATOM     22  H   UNL     1      17.261   4.736  -0.520  0.00  0.00    +0.123 HD
BRANCH   6  12
ATOM      2  O   UNL     1      17.037   8.151   0.002  0.00  0.00    -0.377 OA
ATOM     12  C   UNL     1      15.950   6.321  -0.157  0.00  0.00    +0.106 C 
ATOM     15  C   UNL     1      16.929   7.121  -1.015  0.00  0.00    +0.180 C 
ATOM     16  C   UNL     1      16.322   7.312   0.946  0.00  0.00    +0.180 C 
ENDBRANCH   6  12
ENDBRANCH   9   6
BRANCH  11  14
ATOM     14  C   UNL     1      12.242   3.493   1.844  0.00  0.00    +0.140 C 
BRANCH  14   7
ATOM      4  O   UNL     1      12.413   8.402   5.976  0.00  0.00    -0.377 OA
ATOM      5  O   UNL     1      10.288   4.702   3.470  0.00  0.00    -0.253 OA
ATOM      7  N   UNL     1      12.418   4.703   2.616  0.00  0.00    -0.297 N 
ATOM      8  N   UNL     1      11.720   6.421   4.082  0.00  0.00    -0.281 N 
ATOM     17  C   UNL     1      11.400   5.237   3.396  0.00  0.00    +0.302 C 
ATOM     18  C   UNL     1      12.957   7.201   3.933  0.00  0.00    +0.137 C 
ATOM     19  C   UNL     1      10.703   7.057   4.923  0.00  0.00    +0.137 C 
ATOM     20  C   UNL     1      13.449   7.702   5.286  0.00  0.00    +0.179 C 
ATOM     21  C   UNL     1      11.303   7.539   6.234  0.00  0.00    +0.179 C 
ATOM     24  H   UNL     1      13.321   5.149   2.541  0.00  0.00    +0.150 HD
ENDBRANCH  14   7
ENDBRANCH  11  14
TORSDOF 5
ENDMDL
MODEL 10
REMARK VINA RESULT:      -5.2     27.281     28.904
REMARK  Name = 75536837
REMARK  5 active torsions:
REMARK  status: ('A' for Active; 'I' for Inactive)
REMARK    1  A    between atoms: O_3  and  C_10
REMARK    2  A    between atoms: N_6  and  C_9
REMARK    3  A    between atoms: N_6  and  C_12
REMARK    4  A    between atoms: N_7  and  C_14
REMARK    5  A    between atoms: C_11  and  C_14
REMARK                            x       y       z     vdW  Elec       q    Type
REMARK                         _______ _______ _______ _____ _____    ______ ____
ROOT
ATOM      1  O   UNL     1      -3.104 -11.080  16.913  0.00  0.00    -0.371 OA
ATOM      9  C   UNL     1      -4.015 -10.678  14.756  0.00  0.00    +0.111 C 
ATOM     10  C   UNL     1      -5.116 -10.540  15.793  0.00  0.00    +0.164 C 
ATOM     11  C   UNL     1      -4.301 -10.297  17.056  0.00  0.00    +0.165 C 
ATOM     13  C   UNL     1      -2.968 -11.461  15.533  0.00  0.00    +0.181 C 
ENDROOT
BRANCH  10   3
ATOM      3  O   UNL     1      -5.993  -9.467  15.517  0.00  0.00    -0.388 OA
ATOM     23  H   UNL     1      -6.887  -9.828  15.384  0.00  0.00    +0.210 HD
ENDBRANCH  10   3
BRANCH   9   6
ATOM      6  N   UNL     1      -4.440 -11.352  13.541  0.00  0.00    -0.302 NA
ATOM     22  H   UNL     1      -5.398 -11.677  13.675  0.00  0.00    +0.123 HD
BRANCH   6  12
ATOM      2  O   UNL     1      -3.076 -10.880  10.707  0.00  0.00    -0.377 OA
ATOM     12  C   UNL     1      -4.301 -10.440  12.399  0.00  0.00    +0.106 C 
ATOM     15  C   UNL     1      -4.424 -11.242  11.104  0.00  0.00    +0.180 C 
ATOM     16  C   UNL     1      -2.823 -10.326  12.024  0.00  0.00    +0.180 C 
ENDBRANCH   6  12
ENDBRANCH   9   6
BRANCH  11  14
ATOM     14  C   UNL     1      -5.028 -10.698  18.326  0.00  0.00    +0.140 C 
BRANCH  14   7
ATOM      4  O   UNL     1     -11.360  -9.761  18.797  0.00  0.00    -0.377 OA
ATOM      5  O   UNL     1      -6.971 -11.597  20.154  0.00  0.00    -0.253 OA
ATOM      7  N   UNL     1      -6.457 -10.512  18.199  0.00  0.00    -0.297 N 
ATOM      8  N   UNL     1      -8.709 -10.735  18.882  0.00  0.00    -0.281 N 
ATOM     17  C   UNL     1      -7.352 -10.988  19.149  0.00  0.00    +0.302 C 
ATOM     18  C   UNL     1      -9.256 -10.156  17.646  0.00  0.00    +0.137 C 
ATOM     19  C   UNL     1      -9.723 -11.208  19.827  0.00  0.00    +0.137 C 
ATOM     20  C   UNL     1     -10.370  -9.164  17.960  0.00  0.00    +0.179 C 
ATOM     21  C   UNL     1     -10.795 -10.154  20.050  0.00  0.00    +0.179 C 
ATOM     24  H   UNL     1      -6.768 -10.029  17.368  0.00  0.00    +0.150 HD
ENDBRANCH  14   7
ENDBRANCH  11  14
TORSDOF 5
ENDMDL
