MODEL 1
REMARK VINA RESULT:      -6.2      0.000      0.000
REMARK  Name = 51136632
REMARK  13 active torsions:
REMARK  status: ('A' for Active; 'I' for Inactive)
REMARK    1  A    between atoms: O_1  and  C_19
REMARK    2  A    between atoms: O_4  and  C_25
REMARK    3  A    between atoms: O_4  and  C_34
REMARK    4  A    between atoms: O_5  and  C_27
REMARK    5  A    between atoms: O_5  and  C_35
REMARK    6  A    between atoms: N_8  and  C_26
REMARK    7  A    between atoms: C_9  and  C_14
REMARK    8  A    between atoms: C_10  and  C_15
REMARK    9  A    between atoms: C_14  and  C_16
REMARK   10  A    between atoms: C_15  and  C_19
REMARK   11  A    between atoms: C_30  and  C_33
REMARK   12  A    between atoms: C_33  and  C_36
REMARK   13  A    between atoms: C_33  and  C_37
REMARK                            x       y       z     vdW  Elec       q    Type
REMARK                         _______ _______ _______ _____ _____    ______ ____
ROOT
ATOM      2  O   UNL     1      10.503   3.578   1.006  0.00  0.00    -0.252 OA
ATOM      6  N   UNL     1      12.811   3.590   0.880  0.00  0.00    -0.285 N 
ATOM      8  N   UNL     1      11.718   4.319   2.838  0.00  0.00    -0.269 N 
ATOM      9  C   UNL     1      14.948   4.810   0.585  0.00  0.00    +0.016 C 
ATOM     10  C   UNL     1      14.970   4.341  -0.894  0.00  0.00    +0.006 C 
ATOM     11  C   UNL     1      13.554   4.039  -1.419  0.00  0.00    +0.023 C 
ATOM     12  C   UNL     1      14.158   3.799   1.433  0.00  0.00    +0.113 C 
ATOM     13  C   UNL     1      12.805   3.083  -0.492  0.00  0.00    +0.109 C 
ATOM     17  C   UNL     1      11.588   3.806   1.549  0.00  0.00    +0.306 C 
ATOM     38  H   UNL     1      12.553   4.094   3.368  0.00  0.00    +0.156 HD
ENDROOT
BRANCH   8  26
ATOM     26  C   UNL     1      10.807   5.160   3.525  0.00  0.00    +0.035 A 
ATOM     28  C   UNL     1      10.549   6.445   3.049  0.00  0.00    +0.023 A 
ATOM     29  C   UNL     1      10.168   4.701   4.677  0.00  0.00    +0.023 A 
ATOM     30  C   UNL     1       9.013   6.815   4.877  0.00  0.00    -0.045 A 
ATOM     31  C   UNL     1       9.652   7.273   3.726  0.00  0.00    +0.006 A 
ATOM     32  C   UNL     1       9.271   5.529   5.353  0.00  0.00    +0.006 A 
BRANCH  30  33
ATOM     33  C   UNL     1       8.053   7.699   5.600  0.00  0.00    +0.013 C 
ATOM     36  C   UNL     1       8.533   8.054   7.020  0.00  0.00    +0.012 C 
ATOM     37  C   UNL     1       7.738   8.988   4.817  0.00  0.00    +0.012 C 
ENDBRANCH  30  33
ENDBRANCH   8  26
BRANCH   9  14
ATOM     14  C   UNL     1      14.396   6.225   0.784  0.00  0.00    +0.061 C 
BRANCH  14  16
ATOM      7  N   UNL     1      16.504   7.364   0.622  0.00  0.00    -0.287 NA
ATOM     16  C   UNL     1      15.469   7.119   1.356  0.00  0.00    +0.044 C 
ATOM     18  C   UNL     1      15.290   7.666   2.726  0.00  0.00    +0.003 A 
ATOM     20  C   UNL     1      16.436   8.153   3.366  0.00  0.00    -0.033 A 
ATOM     21  C   UNL     1      17.751   8.078   2.646  0.00  0.00    +0.059 C 
ATOM     22  C   UNL     1      17.519   8.281   1.154  0.00  0.00    +0.146 C 
ATOM     23  C   UNL     1      14.053   7.692   3.372  0.00  0.00    +0.059 A 
ATOM     24  C   UNL     1      16.343   8.644   4.671  0.00  0.00    +0.053 A 
ATOM     25  C   UNL     1      13.966   8.198   4.670  0.00  0.00    +0.162 A 
ATOM     27  C   UNL     1      15.107   8.670   5.319  0.00  0.00    +0.162 A 
BRANCH  25   4
ATOM      4  O   UNL     1      12.756   8.223   5.297  0.00  0.00    -0.491 OA
ATOM     34  C   UNL     1      12.486   7.175   6.225  0.00  0.00    +0.277 C 
ENDBRANCH  25   4
BRANCH  27   5
ATOM      5  O   UNL     1      15.030   9.157   6.589  0.00  0.00    -0.491 OA
ATOM     35  C   UNL     1      14.987  10.575   6.738  0.00  0.00    +0.277 C 
ENDBRANCH  27   5
ENDBRANCH  14  16
ENDBRANCH   9  14
BRANCH  10  15
ATOM     15  C   UNL     1      15.693   5.317  -1.822  0.00  0.00    +0.124 C 
BRANCH  15  19
ATOM      3  O   UNL     1      17.609   4.328  -2.959  0.00  0.00    -0.251 OA
ATOM     19  C   UNL     1      17.135   4.937  -2.012  0.00  0.00    +0.305 C 
BRANCH  19   1
ATOM      1  O   UNL     1      17.867   5.376  -0.955  0.00  0.00    -0.481 OA
ATOM     39  H   UNL     1      18.447   6.128  -1.199  0.00  0.00    +0.295 HD
ENDBRANCH  19   1
ENDBRANCH  15  19
ENDBRANCH  10  15
TORSDOF 9
ENDMDL
MODEL 2
REMARK VINA RESULT:      -6.1     26.579     30.091
REMARK  Name = 51136632
REMARK  13 active torsions:
REMARK  status: ('A' for Active; 'I' for Inactive)
REMARK    1  A    between atoms: O_1  and  C_19
REMARK    2  A    between atoms: O_4  and  C_25
REMARK    3  A    between atoms: O_4  and  C_34
REMARK    4  A    between atoms: O_5  and  C_27
REMARK    5  A    between atoms: O_5  and  C_35
REMARK    6  A    between atoms: N_8  and  C_26
REMARK    7  A    between atoms: C_9  and  C_14
REMARK    8  A    between atoms: C_10  and  C_15
REMARK    9  A    between atoms: C_14  and  C_16
REMARK   10  A    between atoms: C_15  and  C_19
REMARK   11  A    between atoms: C_30  and  C_33
REMARK   12  A    between atoms: C_33  and  C_36
REMARK   13  A    between atoms: C_33  and  C_37
REMARK                            x       y       z     vdW  Elec       q    Type
REMARK                         _______ _______ _______ _____ _____    ______ ____
ROOT
ATOM      2  O   UNL     1      -7.947  -9.597  11.447  0.00  0.00    -0.252 OA
ATOM      6  N   UNL     1      -6.448 -11.027  12.472  0.00  0.00    -0.285 N 
ATOM      8  N   UNL     1      -8.636 -10.786  13.315  0.00  0.00    -0.269 N 
ATOM      9  C   UNL     1      -4.869 -11.538  14.314  0.00  0.00    +0.016 C 
ATOM     10  C   UNL     1      -3.699 -11.149  13.371  0.00  0.00    +0.006 C 
ATOM     11  C   UNL     1      -4.152 -10.171  12.271  0.00  0.00    +0.023 C 
ATOM     12  C   UNL     1      -6.062 -12.030  13.477  0.00  0.00    +0.113 C 
ATOM     13  C   UNL     1      -5.381 -10.693  11.528  0.00  0.00    +0.109 C 
ATOM     17  C   UNL     1      -7.711 -10.414  12.341  0.00  0.00    +0.306 C 
ATOM     38  H   UNL     1      -8.560 -11.708  13.729  0.00  0.00    +0.156 HD
ENDROOT
BRANCH   8  26
ATOM     26  C   UNL     1      -9.700 -10.006  13.834  0.00  0.00    +0.035 A 
ATOM     28  C   UNL     1      -9.426  -8.872  14.597  0.00  0.00    +0.023 A 
ATOM     29  C   UNL     1     -11.022 -10.373  13.578  0.00  0.00    +0.023 A 
ATOM     30  C   UNL     1     -11.795  -8.471  14.852  0.00  0.00    -0.045 A 
ATOM     31  C   UNL     1     -10.474  -8.104  15.107  0.00  0.00    +0.006 A 
ATOM     32  C   UNL     1     -12.069  -9.606  14.088  0.00  0.00    +0.006 A 
BRANCH  30  33
ATOM     33  C   UNL     1     -12.915  -7.649  15.396  0.00  0.00    +0.013 C 
ATOM     36  C   UNL     1     -13.703  -8.383  16.498  0.00  0.00    +0.012 C 
ATOM     37  C   UNL     1     -12.440  -6.279  15.916  0.00  0.00    +0.012 C 
ENDBRANCH  30  33
ENDBRANCH   8  26
BRANCH   9  14
ATOM     14  C   UNL     1      -5.305 -10.417  15.263  0.00  0.00    +0.061 C 
BRANCH  14  16
ATOM      7  N   UNL     1      -3.855 -11.044  17.072  0.00  0.00    -0.287 NA
ATOM     16  C   UNL     1      -5.073 -10.837  16.694  0.00  0.00    +0.044 C 
ATOM     18  C   UNL     1      -6.246 -10.998  17.592  0.00  0.00    +0.003 A 
ATOM     20  C   UNL     1      -6.049 -11.743  18.760  0.00  0.00    -0.033 A 
ATOM     21  C   UNL     1      -4.694 -12.333  19.019  0.00  0.00    +0.059 C 
ATOM     22  C   UNL     1      -3.625 -11.394  18.478  0.00  0.00    +0.146 C 
ATOM     23  C   UNL     1      -7.499 -10.454  17.302  0.00  0.00    +0.059 A 
ATOM     24  C   UNL     1      -7.122 -11.964  19.628  0.00  0.00    +0.053 A 
ATOM     25  C   UNL     1      -8.561 -10.668  18.180  0.00  0.00    +0.162 A 
ATOM     27  C   UNL     1      -8.375 -11.423  19.339  0.00  0.00    +0.162 A 
BRANCH  25   4
ATOM      4  O   UNL     1      -9.783 -10.135  17.894  0.00  0.00    -0.491 OA
ATOM     34  C   UNL     1     -10.753 -11.010  17.325  0.00  0.00    +0.277 C 
ENDBRANCH  25   4
BRANCH  27   5
ATOM      5  O   UNL     1      -9.411 -11.642  20.196  0.00  0.00    -0.491 OA
ATOM     35  C   UNL     1      -9.867 -12.986  20.333  0.00  0.00    +0.277 C 
ENDBRANCH  27   5
ENDBRANCH  14  16
ENDBRANCH   9  14
BRANCH  10  15
ATOM     15  C   UNL     1      -2.485 -10.598  14.117  0.00  0.00    +0.124 C 
BRANCH  15  19
ATOM      3  O   UNL     1      -1.379 -12.770  14.117  0.00  0.00    -0.251 OA
ATOM     19  C   UNL     1      -1.618 -11.700  14.657  0.00  0.00    +0.305 C 
BRANCH  19   1
ATOM      1  O   UNL     1      -1.117 -11.338  15.867  0.00  0.00    -0.481 OA
ATOM     39  H   UNL     1      -1.015 -10.366  15.944  0.00  0.00    +0.295 HD
ENDBRANCH  19   1
ENDBRANCH  15  19
ENDBRANCH  10  15
TORSDOF 9
ENDMDL
MODEL 3
REMARK VINA RESULT:      -6.1     25.470     29.055
REMARK  Name = 51136632
REMARK  13 active torsions:
REMARK  status: ('A' for Active; 'I' for Inactive)
REMARK    1  A    between atoms: O_1  and  C_19
REMARK    2  A    between atoms: O_4  and  C_25
REMARK    3  A    between atoms: O_4  and  C_34
REMARK    4  A    between atoms: O_5  and  C_27
REMARK    5  A    between atoms: O_5  and  C_35
REMARK    6  A    between atoms: N_8  and  C_26
REMARK    7  A    between atoms: C_9  and  C_14
REMARK    8  A    between atoms: C_10  and  C_15
REMARK    9  A    between atoms: C_14  and  C_16
REMARK   10  A    between atoms: C_15  and  C_19
REMARK   11  A    between atoms: C_30  and  C_33
REMARK   12  A    between atoms: C_33  and  C_36
REMARK   13  A    between atoms: C_33  and  C_37
REMARK                            x       y       z     vdW  Elec       q    Type
REMARK                         _______ _______ _______ _____ _____    ______ ____
ROOT
ATOM      2  O   UNL     1      -8.146 -10.569  18.213  0.00  0.00    -0.252 OA
ATOM      6  N   UNL     1      -6.086 -10.284  17.202  0.00  0.00    -0.285 N 
ATOM      8  N   UNL     1      -7.858  -8.797  16.743  0.00  0.00    -0.269 N 
ATOM      9  C   UNL     1      -4.607 -10.493  15.223  0.00  0.00    +0.016 C 
ATOM     10  C   UNL     1      -4.009 -11.780  15.853  0.00  0.00    +0.006 C 
ATOM     11  C   UNL     1      -4.995 -12.453  16.824  0.00  0.00    +0.023 C 
ATOM     12  C   UNL     1      -5.131  -9.573  16.339  0.00  0.00    +0.113 C 
ATOM     13  C   UNL     1      -5.525 -11.464  17.861  0.00  0.00    +0.109 C 
ATOM     17  C   UNL     1      -7.426  -9.918  17.450  0.00  0.00    +0.306 C 
ATOM     38  H   UNL     1      -7.177  -8.089  16.493  0.00  0.00    +0.156 HD
ENDROOT
BRANCH   8  26
ATOM     26  C   UNL     1      -9.174  -8.515  16.298  0.00  0.00    +0.035 A 
ATOM     28  C   UNL     1      -9.593  -8.952  15.042  0.00  0.00    +0.023 A 
ATOM     29  C   UNL     1     -10.049  -7.802  17.117  0.00  0.00    +0.023 A 
ATOM     30  C   UNL     1     -11.764  -7.962  15.422  0.00  0.00    -0.045 A 
ATOM     31  C   UNL     1     -10.889  -8.675  14.603  0.00  0.00    +0.006 A 
ATOM     32  C   UNL     1     -11.344  -7.525  16.679  0.00  0.00    +0.006 A 
BRANCH  30  33
ATOM     33  C   UNL     1     -13.150  -7.667  14.954  0.00  0.00    +0.013 C 
ATOM     36  C   UNL     1     -14.223  -8.172  15.936  0.00  0.00    +0.012 C 
ATOM     37  C   UNL     1     -13.367  -6.169  14.668  0.00  0.00    +0.012 C 
ENDBRANCH  30  33
ENDBRANCH   8  26
BRANCH   9  14
ATOM     14  C   UNL     1      -5.704 -10.758  14.186  0.00  0.00    +0.061 C 
BRANCH  14  16
ATOM      7  N   UNL     1      -3.977 -10.340  12.570  0.00  0.00    -0.287 NA
ATOM     16  C   UNL     1      -5.243 -10.297  12.824  0.00  0.00    +0.044 C 
ATOM     18  C   UNL     1      -6.257  -9.813  11.851  0.00  0.00    +0.003 A 
ATOM     20  C   UNL     1      -5.786  -9.048  10.778  0.00  0.00    -0.033 A 
ATOM     21  C   UNL     1      -4.317  -8.757  10.689  0.00  0.00    +0.059 C 
ATOM     22  C   UNL     1      -3.536  -9.949  11.226  0.00  0.00    +0.146 C 
ATOM     23  C   UNL     1      -7.620 -10.083  11.985  0.00  0.00    +0.059 A 
ATOM     24  C   UNL     1      -6.693  -8.530   9.850  0.00  0.00    +0.053 A 
ATOM     25  C   UNL     1      -8.517  -9.574  11.045  0.00  0.00    +0.162 A 
ATOM     27  C   UNL     1      -8.056  -8.797   9.982  0.00  0.00    +0.162 A 
BRANCH  25   4
ATOM      4  O   UNL     1      -9.847  -9.841  11.178  0.00  0.00    -0.491 OA
ATOM     34  C   UNL     1     -10.201 -11.070  11.807  0.00  0.00    +0.277 C 
ENDBRANCH  25   4
BRANCH  27   5
ATOM      5  O   UNL     1      -8.928  -8.291   9.066  0.00  0.00    -0.491 OA
ATOM     35  C   UNL     1      -8.585  -7.045   8.463  0.00  0.00    +0.277 C 
ENDBRANCH  27   5
ENDBRANCH  14  16
ENDBRANCH   9  14
BRANCH  10  15
ATOM     15  C   UNL     1      -3.509 -12.780  14.811  0.00  0.00    +0.124 C 
BRANCH  15  19
ATOM      3  O   UNL     1      -1.528 -12.866  13.394  0.00  0.00    -0.251 OA
ATOM     19  C   UNL     1      -2.082 -12.511  14.423  0.00  0.00    +0.305 C 
BRANCH  19   1
ATOM      1  O   UNL     1      -1.468 -11.797  15.402  0.00  0.00    -0.481 OA
ATOM     39  H   UNL     1      -0.880 -11.102  15.035  0.00  0.00    +0.295 HD
ENDBRANCH  19   1
ENDBRANCH  15  19
ENDBRANCH  10  15
TORSDOF 9
ENDMDL
MODEL 4
REMARK VINA RESULT:      -6.1     15.854     20.120
REMARK  Name = 51136632
REMARK  13 active torsions:
REMARK  status: ('A' for Active; 'I' for Inactive)
REMARK    1  A    between atoms: O_1  and  C_19
REMARK    2  A    between atoms: O_4  and  C_25
REMARK    3  A    between atoms: O_4  and  C_34
REMARK    4  A    between atoms: O_5  and  C_27
REMARK    5  A    between atoms: O_5  and  C_35
REMARK    6  A    between atoms: N_8  and  C_26
REMARK    7  A    between atoms: C_9  and  C_14
REMARK    8  A    between atoms: C_10  and  C_15
REMARK    9  A    between atoms: C_14  and  C_16
REMARK   10  A    between atoms: C_15  and  C_19
REMARK   11  A    between atoms: C_30  and  C_33
REMARK   12  A    between atoms: C_33  and  C_36
REMARK   13  A    between atoms: C_33  and  C_37
REMARK                            x       y       z     vdW  Elec       q    Type
REMARK                         _______ _______ _______ _____ _____    ______ ____
ROOT
ATOM      2  O   UNL     1      11.599  11.388  22.600  0.00  0.00    -0.252 OA
ATOM      6  N   UNL     1      12.081   9.235  21.911  0.00  0.00    -0.285 N 
ATOM      8  N   UNL     1      13.508  10.355  23.418  0.00  0.00    -0.269 N 
ATOM      9  C   UNL     1      13.383   7.661  20.506  0.00  0.00    +0.016 C 
ATOM     10  C   UNL     1      12.180   7.598  19.527  0.00  0.00    +0.006 C 
ATOM     11  C   UNL     1      11.311   8.866  19.606  0.00  0.00    +0.023 C 
ATOM     12  C   UNL     1      12.877   7.998  21.919  0.00  0.00    +0.113 C 
ATOM     13  C   UNL     1      10.903   9.177  21.046  0.00  0.00    +0.109 C 
ATOM     17  C   UNL     1      12.342  10.404  22.656  0.00  0.00    +0.306 C 
ATOM     38  H   UNL     1      13.827   9.454  23.758  0.00  0.00    +0.156 HD
ENDROOT
BRANCH   8  26
ATOM     26  C   UNL     1      14.347  11.439  23.779  0.00  0.00    +0.035 A 
ATOM     28  C   UNL     1      14.738  12.368  22.816  0.00  0.00    +0.023 A 
ATOM     29  C   UNL     1      14.779  11.576  25.098  0.00  0.00    +0.023 A 
ATOM     30  C   UNL     1      15.996  13.573  24.491  0.00  0.00    -0.045 A 
ATOM     31  C   UNL     1      15.563  13.436  23.172  0.00  0.00    +0.006 A 
ATOM     32  C   UNL     1      15.604  12.643  25.454  0.00  0.00    +0.006 A 
BRANCH  30  33
ATOM     33  C   UNL     1      16.877  14.715  24.871  0.00  0.00    +0.013 C 
ATOM     36  C   UNL     1      16.730  15.104  26.354  0.00  0.00    +0.012 C 
ATOM     37  C   UNL     1      18.359  14.448  24.545  0.00  0.00    +0.012 C 
ENDBRANCH  30  33
ENDBRANCH   8  26
BRANCH   9  14
ATOM     14  C   UNL     1      14.482   8.639  20.081  0.00  0.00    +0.061 C 
BRANCH  14  16
ATOM      7  N   UNL     1      15.867   6.825  19.333  0.00  0.00    -0.287 NA
ATOM     16  C   UNL     1      15.809   7.922  20.013  0.00  0.00    +0.044 C 
ATOM     18  C   UNL     1      16.974   8.501  20.731  0.00  0.00    +0.003 A 
ATOM     20  C   UNL     1      18.055   7.646  20.974  0.00  0.00    -0.033 A 
ATOM     21  C   UNL     1      17.963   6.220  20.516  0.00  0.00    +0.059 C 
ATOM     22  C   UNL     1      17.170   6.160  19.217  0.00  0.00    +0.146 C 
ATOM     23  C   UNL     1      17.009   9.828  21.166  0.00  0.00    +0.059 A 
ATOM     24  C   UNL     1      19.165   8.119  21.680  0.00  0.00    +0.053 A 
ATOM     25  C   UNL     1      18.127  10.296  21.856  0.00  0.00    +0.162 A 
ATOM     27  C   UNL     1      19.201   9.444  22.116  0.00  0.00    +0.162 A 
BRANCH  25   4
ATOM      4  O   UNL     1      18.159  11.591  22.278  0.00  0.00    -0.491 OA
ATOM     34  C   UNL     1      18.566  12.572  21.326  0.00  0.00    +0.277 C 
ENDBRANCH  25   4
BRANCH  27   5
ATOM      5  O   UNL     1      20.292   9.893  22.797  0.00  0.00    -0.491 OA
ATOM     35  C   UNL     1      21.441  10.238  22.025  0.00  0.00    +0.277 C 
ENDBRANCH  27   5
ENDBRANCH  14  16
ENDBRANCH   9  14
BRANCH  10  15
ATOM     15  C   UNL     1      12.596   7.318  18.083  0.00  0.00    +0.124 C 
BRANCH  15  19
ATOM      3  O   UNL     1      12.349   9.355  16.767  0.00  0.00    -0.251 OA
ATOM     19  C   UNL     1      11.931   8.263  17.121  0.00  0.00    +0.305 C 
BRANCH  19   1
ATOM      1  O   UNL     1      10.765   7.724  16.682  0.00  0.00    -0.481 OA
ATOM     39  H   UNL     1      10.780   7.555  15.716  0.00  0.00    +0.295 HD
ENDBRANCH  19   1
ENDBRANCH  15  19
ENDBRANCH  10  15
TORSDOF 9
ENDMDL
MODEL 5
REMARK VINA RESULT:      -6.1     16.209     20.100
REMARK  Name = 51136632
REMARK  13 active torsions:
REMARK  status: ('A' for Active; 'I' for Inactive)
REMARK    1  A    between atoms: O_1  and  C_19
REMARK    2  A    between atoms: O_4  and  C_25
REMARK    3  A    between atoms: O_4  and  C_34
REMARK    4  A    between atoms: O_5  and  C_27
REMARK    5  A    between atoms: O_5  and  C_35
REMARK    6  A    between atoms: N_8  and  C_26
REMARK    7  A    between atoms: C_9  and  C_14
REMARK    8  A    between atoms: C_10  and  C_15
REMARK    9  A    between atoms: C_14  and  C_16
REMARK   10  A    between atoms: C_15  and  C_19
REMARK   11  A    between atoms: C_30  and  C_33
REMARK   12  A    between atoms: C_33  and  C_36
REMARK   13  A    between atoms: C_33  and  C_37
REMARK                            x       y       z     vdW  Elec       q    Type
REMARK                         _______ _______ _______ _____ _____    ______ ____
ROOT
ATOM      2  O   UNL     1      17.587  12.349  24.267  0.00  0.00    -0.252 OA
ATOM      6  N   UNL     1      18.430  11.190  22.454  0.00  0.00    -0.285 N 
ATOM      8  N   UNL     1      16.296  12.186  22.346  0.00  0.00    -0.269 N 
ATOM      9  C   UNL     1      18.501   9.157  21.037  0.00  0.00    +0.016 C 
ATOM     10  C   UNL     1      19.790   8.724  21.786  0.00  0.00    +0.006 C 
ATOM     11  C   UNL     1      19.865   9.337  23.196  0.00  0.00    +0.023 C 
ATOM     12  C   UNL     1      18.378  10.689  21.072  0.00  0.00    +0.113 C 
ATOM     13  C   UNL     1      19.667  10.852  23.160  0.00  0.00    +0.109 C 
ATOM     17  C   UNL     1      17.441  11.953  23.107  0.00  0.00    +0.306 C 
ATOM     38  H   UNL     1      16.384  12.226  21.337  0.00  0.00    +0.156 HD
ENDROOT
BRANCH   8  26
ATOM     26  C   UNL     1      14.971  12.363  22.819  0.00  0.00    +0.035 A 
ATOM     28  C   UNL     1      14.322  13.583  22.634  0.00  0.00    +0.023 A 
ATOM     29  C   UNL     1      14.316  11.315  23.467  0.00  0.00    +0.023 A 
ATOM     30  C   UNL     1      12.363  12.710  23.747  0.00  0.00    -0.045 A 
ATOM     31  C   UNL     1      13.018  13.758  23.099  0.00  0.00    +0.006 A 
ATOM     32  C   UNL     1      13.013  11.490  23.931  0.00  0.00    +0.006 A 
BRANCH  30  33
ATOM     33  C   UNL     1      10.968  12.896  24.243  0.00  0.00    +0.013 C 
ATOM     36  C   UNL     1      10.922  13.391  25.700  0.00  0.00    +0.012 C 
ATOM     37  C   UNL     1      10.146  13.839  23.343  0.00  0.00    +0.012 C 
ENDBRANCH  30  33
ENDBRANCH   8  26
BRANCH   9  14
ATOM     14  C   UNL     1      17.221   8.503  21.568  0.00  0.00    +0.061 C 
BRANCH  14  16
ATOM      7  N   UNL     1      17.370   6.754  19.928  0.00  0.00    -0.287 NA
ATOM     16  C   UNL     1      16.610   7.629  20.499  0.00  0.00    +0.044 C 
ATOM     18  C   UNL     1      15.178   7.820  20.151  0.00  0.00    +0.003 A 
ATOM     20  C   UNL     1      14.750   7.291  18.928  0.00  0.00    -0.033 A 
ATOM     21  C   UNL     1      15.750   6.592  18.055  0.00  0.00    +0.059 C 
ATOM     22  C   UNL     1      16.761   5.865  18.932  0.00  0.00    +0.146 C 
ATOM     23  C   UNL     1      14.284   8.501  20.980  0.00  0.00    +0.059 A 
ATOM     24  C   UNL     1      13.424   7.471  18.524  0.00  0.00    +0.053 A 
ATOM     25  C   UNL     1      12.959   8.663  20.576  0.00  0.00    +0.162 A 
ATOM     27  C   UNL     1      12.530   8.153  19.350  0.00  0.00    +0.162 A 
BRANCH  25   4
ATOM      4  O   UNL     1      12.089   9.328  21.388  0.00  0.00    -0.491 OA
ATOM     34  C   UNL     1      11.338   8.543  22.311  0.00  0.00    +0.277 C 
ENDBRANCH  25   4
BRANCH  27   5
ATOM      5  O   UNL     1      11.239   8.315  18.947  0.00  0.00    -0.491 OA
ATOM     35  C   UNL     1      11.019   8.564  17.560  0.00  0.00    +0.277 C 
ENDBRANCH  27   5
ENDBRANCH  14  16
ENDBRANCH   9  14
BRANCH  10  15
ATOM     15  C   UNL     1      19.967   7.207  21.847  0.00  0.00    +0.124 C 
BRANCH  15  19
ATOM      3  O   UNL     1      21.815   7.166  20.259  0.00  0.00    -0.251 OA
ATOM     19  C   UNL     1      20.772   6.695  20.685  0.00  0.00    +0.305 C 
BRANCH  19   1
ATOM      1  O   UNL     1      20.165   5.602  20.154  0.00  0.00    -0.481 OA
ATOM     39  H   UNL     1      20.629   4.772  20.396  0.00  0.00    +0.295 HD
ENDBRANCH  19   1
ENDBRANCH  15  19
ENDBRANCH  10  15
TORSDOF 9
ENDMDL
MODEL 6
REMARK VINA RESULT:      -6.1      3.182      5.424
REMARK  Name = 51136632
REMARK  13 active torsions:
REMARK  status: ('A' for Active; 'I' for Inactive)
REMARK    1  A    between atoms: O_1  and  C_19
REMARK    2  A    between atoms: O_4  and  C_25
REMARK    3  A    between atoms: O_4  and  C_34
REMARK    4  A    between atoms: O_5  and  C_27
REMARK    5  A    between atoms: O_5  and  C_35
REMARK    6  A    between atoms: N_8  and  C_26
REMARK    7  A    between atoms: C_9  and  C_14
REMARK    8  A    between atoms: C_10  and  C_15
REMARK    9  A    between atoms: C_14  and  C_16
REMARK   10  A    between atoms: C_15  and  C_19
REMARK   11  A    between atoms: C_30  and  C_33
REMARK   12  A    between atoms: C_33  and  C_36
REMARK   13  A    between atoms: C_33  and  C_37
REMARK                            x       y       z     vdW  Elec       q    Type
REMARK                         _______ _______ _______ _____ _____    ______ ____
ROOT
ATOM      2  O   UNL     1       9.797   9.266   0.248  0.00  0.00    -0.252 OA
ATOM      6  N   UNL     1      10.362   7.080   0.740  0.00  0.00    -0.285 N 
ATOM      8  N   UNL     1       8.759   8.221   2.040  0.00  0.00    -0.269 N 
ATOM      9  C   UNL     1      11.577   5.427   2.133  0.00  0.00    +0.016 C 
ATOM     10  C   UNL     1      12.668   5.356   1.031  0.00  0.00    +0.006 C 
ATOM     11  C   UNL     1      12.718   6.645   0.191  0.00  0.00    +0.023 C 
ATOM     12  C   UNL     1      10.234   5.827   1.499  0.00  0.00    +0.113 C 
ATOM     13  C   UNL     1      11.337   7.016  -0.349  0.00  0.00    +0.109 C 
ATOM     17  C   UNL     1       9.634   8.269   0.956  0.00  0.00    +0.306 C 
ATOM     38  H   UNL     1       8.359   7.327   2.301  0.00  0.00    +0.156 HD
ENDROOT
BRANCH   8  26
ATOM     26  C   UNL     1       8.353   9.299   2.866  0.00  0.00    +0.035 A 
ATOM     28  C   UNL     1       9.153  10.436   2.973  0.00  0.00    +0.023 A 
ATOM     29  C   UNL     1       7.152   9.222   3.572  0.00  0.00    +0.023 A 
ATOM     30  C   UNL     1       7.553  11.420   4.492  0.00  0.00    -0.045 A 
ATOM     31  C   UNL     1       8.754  11.497   3.786  0.00  0.00    +0.006 A 
ATOM     32  C   UNL     1       6.753  10.282   4.385  0.00  0.00    +0.006 A 
BRANCH  30  33
ATOM     33  C   UNL     1       7.125  12.555   5.360  0.00  0.00    +0.013 C 
ATOM     36  C   UNL     1       8.279  13.526   5.672  0.00  0.00    +0.012 C 
ATOM     37  C   UNL     1       5.933  13.331   4.768  0.00  0.00    +0.012 C 
ENDBRANCH  30  33
ENDBRANCH   8  26
BRANCH   9  14
ATOM     14  C   UNL     1      11.923   6.366   3.294  0.00  0.00    +0.061 C 
BRANCH  14  16
ATOM      7  N   UNL     1      10.377   5.046   4.574  0.00  0.00    -0.287 NA
ATOM     16  C   UNL     1      10.905   6.212   4.398  0.00  0.00    +0.044 C 
ATOM     18  C   UNL     1      10.555   7.400   5.219  0.00  0.00    +0.003 A 
ATOM     20  C   UNL     1       9.364   7.333   5.951  0.00  0.00    -0.033 A 
ATOM     21  C   UNL     1       8.524   6.094   5.849  0.00  0.00    +0.059 C 
ATOM     22  C   UNL     1       9.433   4.883   5.685  0.00  0.00    +0.146 C 
ATOM     23  C   UNL     1      11.352   8.546   5.266  0.00  0.00    +0.059 A 
ATOM     24  C   UNL     1       8.958   8.432   6.713  0.00  0.00    +0.053 A 
ATOM     25  C   UNL     1      10.946   9.634   6.041  0.00  0.00    +0.162 A 
ATOM     27  C   UNL     1       9.752   9.579   6.760  0.00  0.00    +0.162 A 
BRANCH  25   4
ATOM      4  O   UNL     1      11.726  10.750   6.085  0.00  0.00    -0.491 OA
ATOM     34  C   UNL     1      12.341  11.159   4.865  0.00  0.00    +0.277 C 
ENDBRANCH  25   4
BRANCH  27   5
ATOM      5  O   UNL     1       9.347  10.641   7.511  0.00  0.00    -0.491 OA
ATOM     35  C   UNL     1       9.567  10.561   8.918  0.00  0.00    +0.277 C 
ENDBRANCH  27   5
ENDBRANCH  14  16
ENDBRANCH   9  14
BRANCH  10  15
ATOM     15  C   UNL     1      14.053   5.016   1.580  0.00  0.00    +0.124 C 
BRANCH  15  19
ATOM      3  O   UNL     1      13.420   2.664   1.476  0.00  0.00    -0.251 OA
ATOM     19  C   UNL     1      14.238   3.532   1.740  0.00  0.00    +0.305 C 
BRANCH  19   1
ATOM      1  O   UNL     1      15.477   3.276   2.232  0.00  0.00    -0.481 OA
ATOM     39  H   UNL     1      16.129   3.953   1.953  0.00  0.00    +0.295 HD
ENDBRANCH  19   1
ENDBRANCH  15  19
ENDBRANCH  10  15
TORSDOF 9
ENDMDL
MODEL 7
REMARK VINA RESULT:      -6.0     25.788     28.957
REMARK  Name = 51136632
REMARK  13 active torsions:
REMARK  status: ('A' for Active; 'I' for Inactive)
REMARK    1  A    between atoms: O_1  and  C_19
REMARK    2  A    between atoms: O_4  and  C_25
REMARK    3  A    between atoms: O_4  and  C_34
REMARK    4  A    between atoms: O_5  and  C_27
REMARK    5  A    between atoms: O_5  and  C_35
REMARK    6  A    between atoms: N_8  and  C_26
REMARK    7  A    between atoms: C_9  and  C_14
REMARK    8  A    between atoms: C_10  and  C_15
REMARK    9  A    between atoms: C_14  and  C_16
REMARK   10  A    between atoms: C_15  and  C_19
REMARK   11  A    between atoms: C_30  and  C_33
REMARK   12  A    between atoms: C_33  and  C_36
REMARK   13  A    between atoms: C_33  and  C_37
REMARK                            x       y       z     vdW  Elec       q    Type
REMARK                         _______ _______ _______ _____ _____    ______ ____
ROOT
ATOM      2  O   UNL     1      -1.601 -10.807  12.144  0.00  0.00    -0.252 OA
ATOM      6  N   UNL     1      -2.394 -11.982  13.970  0.00  0.00    -0.285 N 
ATOM      8  N   UNL     1      -3.036 -12.594  11.785  0.00  0.00    -0.269 N 
ATOM      9  C   UNL     1      -4.210 -12.505  15.575  0.00  0.00    +0.016 C 
ATOM     10  C   UNL     1      -3.520 -11.569  16.604  0.00  0.00    +0.006 C 
ATOM     11  C   UNL     1      -2.654 -10.500  15.913  0.00  0.00    +0.023 C 
ATOM     12  C   UNL     1      -3.156 -13.068  14.606  0.00  0.00    +0.113 C 
ATOM     13  C   UNL     1      -1.679 -11.125  14.916  0.00  0.00    +0.109 C 
ATOM     17  C   UNL     1      -2.287 -11.734  12.585  0.00  0.00    +0.306 C 
ATOM     38  H   UNL     1      -3.216 -13.534  12.119  0.00  0.00    +0.156 HD
ENDROOT
BRANCH   8  26
ATOM     26  C   UNL     1      -3.615 -12.309  10.523  0.00  0.00    +0.035 A 
ATOM     28  C   UNL     1      -4.015 -13.351   9.687  0.00  0.00    +0.023 A 
ATOM     29  C   UNL     1      -3.786 -10.985  10.118  0.00  0.00    +0.023 A 
ATOM     30  C   UNL     1      -4.757 -11.746   8.040  0.00  0.00    -0.045 A 
ATOM     31  C   UNL     1      -4.586 -13.070   8.445  0.00  0.00    +0.006 A 
ATOM     32  C   UNL     1      -4.357 -10.704   8.877  0.00  0.00    +0.006 A 
BRANCH  30  33
ATOM     33  C   UNL     1      -5.368 -11.445   6.713  0.00  0.00    +0.013 C 
ATOM     36  C   UNL     1      -5.889  -9.999   6.618  0.00  0.00    +0.012 C 
ATOM     37  C   UNL     1      -4.406 -11.732   5.544  0.00  0.00    +0.012 C 
ENDBRANCH  30  33
ENDBRANCH   8  26
BRANCH   9  14
ATOM     14  C   UNL     1      -5.354 -11.844  14.800  0.00  0.00    +0.061 C 
BRANCH  14  16
ATOM      7  N   UNL     1      -6.354 -14.026  14.700  0.00  0.00    -0.287 NA
ATOM     16  C   UNL     1      -6.172 -12.899  14.095  0.00  0.00    +0.044 C 
ATOM     18  C   UNL     1      -6.720 -12.598  12.747  0.00  0.00    +0.003 A 
ATOM     20  C   UNL     1      -7.126 -13.691  11.972  0.00  0.00    -0.033 A 
ATOM     21  C   UNL     1      -6.971 -15.072  12.537  0.00  0.00    +0.059 C 
ATOM     22  C   UNL     1      -7.199 -15.029  14.042  0.00  0.00    +0.146 C 
ATOM     23  C   UNL     1      -6.822 -11.298  12.247  0.00  0.00    +0.059 A 
ATOM     24  C   UNL     1      -7.612 -13.479  10.679  0.00  0.00    +0.053 A 
ATOM     25  C   UNL     1      -7.323 -11.094  10.960  0.00  0.00    +0.162 A 
ATOM     27  C   UNL     1      -7.715 -12.181  10.177  0.00  0.00    +0.162 A 
BRANCH  25   4
ATOM      4  O   UNL     1      -7.423  -9.824  10.476  0.00  0.00    -0.491 OA
ATOM     34  C   UNL     1      -6.669  -8.816  11.145  0.00  0.00    +0.277 C 
ENDBRANCH  25   4
BRANCH  27   5
ATOM      5  O   UNL     1      -8.197 -11.988   8.918  0.00  0.00    -0.491 OA
ATOM     35  C   UNL     1      -8.399 -13.149   8.116  0.00  0.00    +0.277 C 
ENDBRANCH  27   5
ENDBRANCH  14  16
ENDBRANCH   9  14
BRANCH  10  15
ATOM     15  C   UNL     1      -4.503 -10.921  17.578  0.00  0.00    +0.124 C 
BRANCH  15  19
ATOM      3  O   UNL     1      -5.445 -11.724  19.677  0.00  0.00    -0.251 OA
ATOM     19  C   UNL     1      -4.499 -11.613  18.913  0.00  0.00    +0.305 C 
BRANCH  19   1
ATOM      1  O   UNL     1      -3.263 -12.116  19.164  0.00  0.00    -0.481 OA
ATOM     39  H   UNL     1      -3.043 -12.088  20.120  0.00  0.00    +0.295 HD
ENDBRANCH  19   1
ENDBRANCH  15  19
ENDBRANCH  10  15
TORSDOF 9
ENDMDL
MODEL 8
REMARK VINA RESULT:      -6.0     44.020     46.245
REMARK  Name = 51136632
REMARK  13 active torsions:
REMARK  status: ('A' for Active; 'I' for Inactive)
REMARK    1  A    between atoms: O_1  and  C_19
REMARK    2  A    between atoms: O_4  and  C_25
REMARK    3  A    between atoms: O_4  and  C_34
REMARK    4  A    between atoms: O_5  and  C_27
REMARK    5  A    between atoms: O_5  and  C_35
REMARK    6  A    between atoms: N_8  and  C_26
REMARK    7  A    between atoms: C_9  and  C_14
REMARK    8  A    between atoms: C_10  and  C_15
REMARK    9  A    between atoms: C_14  and  C_16
REMARK   10  A    between atoms: C_15  and  C_19
REMARK   11  A    between atoms: C_30  and  C_33
REMARK   12  A    between atoms: C_33  and  C_36
REMARK   13  A    between atoms: C_33  and  C_37
REMARK                            x       y       z     vdW  Elec       q    Type
REMARK                         _______ _______ _______ _____ _____    ______ ____
ROOT
ATOM      2  O   UNL     1      -7.710 -10.909  36.737  0.00  0.00    -0.252 OA
ATOM      6  N   UNL     1      -7.748  -9.904  38.818  0.00  0.00    -0.285 N 
ATOM      8  N   UNL     1      -9.600 -11.151  38.060  0.00  0.00    -0.269 N 
ATOM      9  C   UNL     1      -8.499  -8.078  40.318  0.00  0.00    +0.016 C 
ATOM     10  C   UNL     1      -7.116  -7.401  40.127  0.00  0.00    +0.006 C 
ATOM     11  C   UNL     1      -6.456  -7.813  38.799  0.00  0.00    +0.023 C 
ATOM     12  C   UNL     1      -8.359  -9.597  40.120  0.00  0.00    +0.113 C 
ATOM     13  C   UNL     1      -6.413  -9.332  38.640  0.00  0.00    +0.109 C 
ATOM     17  C   UNL     1      -8.313 -10.688  37.791  0.00  0.00    +0.306 C 
ATOM     38  H   UNL     1      -9.865 -11.312  39.025  0.00  0.00    +0.156 HD
ENDROOT
BRANCH   8  26
ATOM     26  C   UNL     1     -10.630 -11.422  37.125  0.00  0.00    +0.035 A 
ATOM     28  C   UNL     1     -10.599 -12.596  36.373  0.00  0.00    +0.023 A 
ATOM     29  C   UNL     1     -11.676 -10.514  36.958  0.00  0.00    +0.023 A 
ATOM     30  C   UNL     1     -12.659 -11.954  35.286  0.00  0.00    -0.045 A 
ATOM     31  C   UNL     1     -11.613 -12.862  35.452  0.00  0.00    +0.006 A 
ATOM     32  C   UNL     1     -12.690 -10.780  36.038  0.00  0.00    +0.006 A 
BRANCH  30  33
ATOM     33  C   UNL     1     -13.744 -12.239  34.302  0.00  0.00    +0.013 C 
ATOM     36  C   UNL     1     -13.341 -13.313  33.274  0.00  0.00    +0.012 C 
ATOM     37  C   UNL     1     -15.066 -12.640  34.986  0.00  0.00    +0.012 C 
ENDBRANCH  30  33
ENDBRANCH   8  26
BRANCH   9  14
ATOM     14  C   UNL     1      -9.599  -7.518  39.410  0.00  0.00    +0.061 C 
BRANCH  14  16
ATOM      7  N   UNL     1     -11.511  -8.313  40.627  0.00  0.00    -0.287 NA
ATOM     16  C   UNL     1     -10.855  -7.280  40.213  0.00  0.00    +0.044 C 
ATOM     18  C   UNL     1     -11.280  -5.881  40.481  0.00  0.00    +0.003 A 
ATOM     20  C   UNL     1     -12.610  -5.690  40.873  0.00  0.00    -0.033 A 
ATOM     21  C   UNL     1     -13.509  -6.885  40.980  0.00  0.00    +0.059 C 
ATOM     22  C   UNL     1     -12.698  -8.083  41.458  0.00  0.00    +0.146 C 
ATOM     23  C   UNL     1     -10.418  -4.791  40.342  0.00  0.00    +0.059 A 
ATOM     24  C   UNL     1     -13.082  -4.394  41.101  0.00  0.00    +0.053 A 
ATOM     25  C   UNL     1     -10.894  -3.503  40.587  0.00  0.00    +0.162 A 
ATOM     27  C   UNL     1     -12.223  -3.304  40.962  0.00  0.00    +0.162 A 
BRANCH  25   4
ATOM      4  O   UNL     1     -10.050  -2.442  40.452  0.00  0.00    -0.491 OA
ATOM     34  C   UNL     1      -8.888  -2.637  39.649  0.00  0.00    +0.277 C 
ENDBRANCH  25   4
BRANCH  27   5
ATOM      5  O   UNL     1     -12.696  -2.047  41.195  0.00  0.00    -0.491 OA
ATOM     35  C   UNL     1     -12.857  -1.657  42.556  0.00  0.00    +0.277 C 
ENDBRANCH  27   5
ENDBRANCH  14  16
ENDBRANCH   9  14
BRANCH  10  15
ATOM     15  C   UNL     1      -7.170  -5.880  40.255  0.00  0.00    +0.124 C 
BRANCH  15  19
ATOM      3  O   UNL     1      -7.601  -4.911  42.449  0.00  0.00    -0.251 OA
ATOM     19  C   UNL     1      -6.836  -5.427  41.649  0.00  0.00    +0.305 C 
BRANCH  19   1
ATOM      1  O   UNL     1      -5.527  -5.676  41.910  0.00  0.00    -0.481 OA
ATOM     39  H   UNL     1      -5.121  -6.251  41.228  0.00  0.00    +0.295 HD
ENDBRANCH  19   1
ENDBRANCH  15  19
ENDBRANCH  10  15
TORSDOF 9
ENDMDL
MODEL 9
REMARK VINA RESULT:      -5.9     16.534     19.692
REMARK  Name = 51136632
REMARK  13 active torsions:
REMARK  status: ('A' for Active; 'I' for Inactive)
REMARK    1  A    between atoms: O_1  and  C_19
REMARK    2  A    between atoms: O_4  and  C_25
REMARK    3  A    between atoms: O_4  and  C_34
REMARK    4  A    between atoms: O_5  and  C_27
REMARK    5  A    between atoms: O_5  and  C_35
REMARK    6  A    between atoms: N_8  and  C_26
REMARK    7  A    between atoms: C_9  and  C_14
REMARK    8  A    between atoms: C_10  and  C_15
REMARK    9  A    between atoms: C_14  and  C_16
REMARK   10  A    between atoms: C_15  and  C_19
REMARK   11  A    between atoms: C_30  and  C_33
REMARK   12  A    between atoms: C_33  and  C_36
REMARK   13  A    between atoms: C_33  and  C_37
REMARK                            x       y       z     vdW  Elec       q    Type
REMARK                         _______ _______ _______ _____ _____    ______ ____
ROOT
ATOM      2  O   UNL     1      18.320   5.828  20.324  0.00  0.00    -0.252 OA
ATOM      6  N   UNL     1      19.520   7.312  21.627  0.00  0.00    -0.285 N 
ATOM      8  N   UNL     1      17.167   7.242  21.757  0.00  0.00    -0.269 N 
ATOM      9  C   UNL     1      20.336   9.608  22.085  0.00  0.00    +0.016 C 
ATOM     10  C   UNL     1      21.700   9.209  21.460  0.00  0.00    +0.006 C 
ATOM     11  C   UNL     1      21.552   8.051  20.457  0.00  0.00    +0.023 C 
ATOM     12  C   UNL     1      19.647   8.357  22.655  0.00  0.00    +0.113 C 
ATOM     13  C   UNL     1      20.799   6.871  21.070  0.00  0.00    +0.109 C 
ATOM     17  C   UNL     1      18.322   6.718  21.179  0.00  0.00    +0.306 C 
ATOM     38  H   UNL     1      17.224   7.624  22.694  0.00  0.00    +0.156 HD
ENDROOT
BRANCH   8  26
ATOM     26  C   UNL     1      15.877   7.327  21.176  0.00  0.00    +0.035 A 
ATOM     28  C   UNL     1      15.705   7.066  19.817  0.00  0.00    +0.023 A 
ATOM     29  C   UNL     1      14.779   7.671  21.965  0.00  0.00    +0.023 A 
ATOM     30  C   UNL     1      13.337   7.494  20.034  0.00  0.00    -0.045 A 
ATOM     31  C   UNL     1      14.435   7.150  19.245  0.00  0.00    +0.006 A 
ATOM     32  C   UNL     1      13.510   7.755  21.393  0.00  0.00    +0.006 A 
BRANCH  30  33
ATOM     33  C   UNL     1      11.979   7.582  19.423  0.00  0.00    +0.013 C 
ATOM     36  C   UNL     1      10.918   8.091  20.416  0.00  0.00    +0.012 C 
ATOM     37  C   UNL     1      11.963   8.451  18.150  0.00  0.00    +0.012 C 
ENDBRANCH  30  33
ENDBRANCH   8  26
BRANCH   9  14
ATOM     14  C   UNL     1      19.401  10.345  21.122  0.00  0.00    +0.061 C 
BRANCH  14  16
ATOM      7  N   UNL     1      18.736  11.717  22.978  0.00  0.00    -0.287 NA
ATOM     16  C   UNL     1      18.358  11.109  21.903  0.00  0.00    +0.044 C 
ATOM     18  C   UNL     1      16.958  11.120  21.407  0.00  0.00    +0.003 A 
ATOM     20  C   UNL     1      15.967  11.489  22.324  0.00  0.00    -0.033 A 
ATOM     21  C   UNL     1      16.373  11.830  23.727  0.00  0.00    +0.059 C 
ATOM     22  C   UNL     1      17.737  12.509  23.704  0.00  0.00    +0.146 C 
ATOM     23  C   UNL     1      16.617  10.769  20.099  0.00  0.00    +0.059 A 
ATOM     24  C   UNL     1      14.625  11.481  21.931  0.00  0.00    +0.053 A 
ATOM     25  C   UNL     1      15.277  10.778  19.712  0.00  0.00    +0.162 A 
ATOM     27  C   UNL     1      14.283  11.130  20.625  0.00  0.00    +0.162 A 
BRANCH  25   4
ATOM      4  O   UNL     1      14.949  10.436  18.434  0.00  0.00    -0.491 OA
ATOM     34  C   UNL     1      15.082  11.448  17.439  0.00  0.00    +0.277 C 
ENDBRANCH  25   4
BRANCH  27   5
ATOM      5  O   UNL     1      12.972  11.132  20.255  0.00  0.00    -0.491 OA
ATOM     35  C   UNL     1      12.020  11.522  21.242  0.00  0.00    +0.277 C 
ENDBRANCH  27   5
ENDBRANCH  14  16
ENDBRANCH   9  14
BRANCH  10  15
ATOM     15  C   UNL     1      22.434  10.386  20.821  0.00  0.00    +0.124 C 
BRANCH  15  19
ATOM      3  O   UNL     1      22.506  12.576  21.890  0.00  0.00    -0.251 OA
ATOM     19  C   UNL     1      22.850  11.404  21.846  0.00  0.00    +0.305 C 
BRANCH  19   1
ATOM      1  O   UNL     1      23.685  10.830  22.750  0.00  0.00    -0.481 OA
ATOM     39  H   UNL     1      23.491  11.121  23.666  0.00  0.00    +0.295 HD
ENDBRANCH  19   1
ENDBRANCH  15  19
ENDBRANCH  10  15
TORSDOF 9
ENDMDL
MODEL 10
REMARK VINA RESULT:      -5.9     26.364     31.113
REMARK  Name = 51136632
REMARK  13 active torsions:
REMARK  status: ('A' for Active; 'I' for Inactive)
REMARK    1  A    between atoms: O_1  and  C_19
REMARK    2  A    between atoms: O_4  and  C_25
REMARK    3  A    between atoms: O_4  and  C_34
REMARK    4  A    between atoms: O_5  and  C_27
REMARK    5  A    between atoms: O_5  and  C_35
REMARK    6  A    between atoms: N_8  and  C_26
REMARK    7  A    between atoms: C_9  and  C_14
REMARK    8  A    between atoms: C_10  and  C_15
REMARK    9  A    between atoms: C_14  and  C_16
REMARK   10  A    between atoms: C_15  and  C_19
REMARK   11  A    between atoms: C_30  and  C_33
REMARK   12  A    between atoms: C_33  and  C_36
REMARK   13  A    between atoms: C_33  and  C_37
REMARK                            x       y       z     vdW  Elec       q    Type
REMARK                         _______ _______ _______ _____ _____    ______ ____
ROOT
ATOM      2  O   UNL     1      -3.414 -10.951  17.401  0.00  0.00    -0.252 OA
ATOM      6  N   UNL     1      -5.401 -12.022  17.899  0.00  0.00    -0.285 N 
ATOM      8  N   UNL     1      -4.454 -12.203  15.748  0.00  0.00    -0.269 N 
ATOM      9  C   UNL     1      -7.873 -12.155  17.763  0.00  0.00    +0.016 C 
ATOM     10  C   UNL     1      -7.948 -11.565  19.197  0.00  0.00    +0.006 C 
ATOM     11  C   UNL     1      -6.701 -10.729  19.537  0.00  0.00    +0.023 C 
ATOM     12  C   UNL     1      -6.539 -12.899  17.583  0.00  0.00    +0.113 C 
ATOM     13  C   UNL     1      -5.413 -11.507  19.269  0.00  0.00    +0.109 C 
ATOM     17  C   UNL     1      -4.341 -11.679  17.035  0.00  0.00    +0.306 C 
ATOM     38  H   UNL     1      -4.948 -13.079  15.622  0.00  0.00    +0.156 HD
ENDROOT
BRANCH   8  26
ATOM     26  C   UNL     1      -3.963 -11.638  14.543  0.00  0.00    +0.035 A 
ATOM     28  C   UNL     1      -4.777 -10.799  13.784  0.00  0.00    +0.023 A 
ATOM     29  C   UNL     1      -2.665 -11.922  14.119  0.00  0.00    +0.023 A 
ATOM     30  C   UNL     1      -2.996 -10.527  12.175  0.00  0.00    -0.045 A 
ATOM     31  C   UNL     1      -4.294 -10.243  12.599  0.00  0.00    +0.006 A 
ATOM     32  C   UNL     1      -2.182 -11.367  12.935  0.00  0.00    +0.006 A 
BRANCH  30  33
ATOM     33  C   UNL     1      -2.479  -9.932  10.908  0.00  0.00    +0.013 C 
ATOM     36  C   UNL     1      -3.537  -9.081  10.181  0.00  0.00    +0.012 C 
ATOM     37  C   UNL     1      -1.200  -9.100  11.129  0.00  0.00    +0.012 C 
ENDBRANCH  30  33
ENDBRANCH   8  26
BRANCH   9  14
ATOM     14  C   UNL     1      -8.064 -11.118  16.651  0.00  0.00    +0.061 C 
BRANCH  14  16
ATOM      7  N   UNL     1      -9.683 -12.660  15.773  0.00  0.00    -0.287 NA
ATOM     16  C   UNL     1      -9.323 -11.423  15.876  0.00  0.00    +0.044 C 
ATOM     18  C   UNL     1     -10.080 -10.299  15.267  0.00  0.00    +0.003 A 
ATOM     20  C   UNL     1     -10.992 -10.625  14.257  0.00  0.00    -0.033 A 
ATOM     21  C   UNL     1     -11.134 -12.062  13.850  0.00  0.00    +0.059 C 
ATOM     22  C   UNL     1     -10.938 -12.951  15.071  0.00  0.00    +0.146 C 
ATOM     23  C   UNL     1      -9.898  -8.969  15.655  0.00  0.00    +0.059 A 
ATOM     24  C   UNL     1     -11.706  -9.609  13.616  0.00  0.00    +0.053 A 
ATOM     25  C   UNL     1     -10.626  -7.963  15.021  0.00  0.00    +0.162 A 
ATOM     27  C   UNL     1     -11.525  -8.280  14.002  0.00  0.00    +0.162 A 
BRANCH  25   4
ATOM      4  O   UNL     1     -10.448  -6.667  15.403  0.00  0.00    -0.491 OA
ATOM     34  C   UNL     1     -11.250  -6.195  16.484  0.00  0.00    +0.277 C 
ENDBRANCH  25   4
BRANCH  27   5
ATOM      5  O   UNL     1     -12.233  -7.300  13.373  0.00  0.00    -0.491 OA
ATOM     35  C   UNL     1     -13.619  -7.195  13.691  0.00  0.00    +0.277 C 
ENDBRANCH  27   5
ENDBRANCH  14  16
ENDBRANCH   9  14
BRANCH  10  15
ATOM     15  C   UNL     1      -9.222 -10.761  19.449  0.00  0.00    +0.124 C 
BRANCH  15  19
ATOM      3  O   UNL     1     -11.304 -11.799  18.722  0.00  0.00    -0.251 OA
ATOM     19  C   UNL     1     -10.428 -11.652  19.560  0.00  0.00    +0.305 C 
BRANCH  19   1
ATOM      1  O   UNL     1     -10.414 -12.294  20.757  0.00  0.00    -0.481 OA
ATOM     39  H   UNL     1      -9.773 -13.036  20.766  0.00  0.00    +0.295 HD
ENDBRANCH  19   1
ENDBRANCH  15  19
ENDBRANCH  10  15
TORSDOF 9
ENDMDL
