REMARK  Name = 45361702
REMARK  11 active torsions:
REMARK  status: ('A' for Active; 'I' for Inactive)
REMARK    1  A    between atoms: S_1  and  N_7
REMARK    2  A    between atoms: S_1  and  C_27
REMARK    3  A    between atoms: N_8  and  C_19
REMARK    4  A    between atoms: N_11  and  C_38
REMARK    5  A    between atoms: N_11  and  C_39
REMARK    6  A    between atoms: N_11  and  C_40
REMARK    7  A    between atoms: C_12  and  C_15
REMARK    8  A    between atoms: C_15  and  C_19
REMARK    9  A    between atoms: C_19  and  C_25
REMARK   10  A    between atoms: C_20  and  C_23
REMARK   11  A    between atoms: C_26  and  C_28
REMARK                            x       y       z     vdW  Elec       q    Type
REMARK                         _______ _______ _______ _____ _____    ______ ____
ROOT
ATOM      6  O   UNL     1      -2.302  -3.001   0.950  0.00  0.00    -0.270 OA
ATOM      7  N   UNL     1       0.420   0.244  -1.900  0.00  0.00    -0.162 NA
ATOM      9  N   UNL     1      -1.629  -1.248  -0.438  0.00  0.00    -0.294 N 
ATOM     20  C   UNL     1       0.744  -0.660  -0.758  0.00  0.00    +0.183 C 
ATOM     21  C   UNL     1      -0.280  -1.780  -0.620  0.00  0.00    +0.138 C 
ATOM     22  C   UNL     1      -1.004   0.203  -2.346  0.00  0.00    +0.129 C 
ATOM     24  C   UNL     1      -1.937  -0.007  -1.160  0.00  0.00    +0.125 C 
ATOM     26  C   UNL     1      -2.546  -1.960   0.340  0.00  0.00    +0.247 C 
ENDROOT
BRANCH  26  28
ATOM     28  C   UNL     1      -3.917  -1.436   0.451  0.00  0.00    +0.037 A 
ATOM     31  C   UNL     1      -4.137  -0.167   0.987  0.00  0.00    +0.015 A 
ATOM     32  C   UNL     1      -4.996  -2.208   0.021  0.00  0.00    +0.015 A 
ATOM     36  C   UNL     1      -5.436   0.329   1.093  0.00  0.00    +0.024 A 
ATOM     37  C   UNL     1      -6.295  -1.712   0.127  0.00  0.00    +0.024 A 
ATOM     38  C   UNL     1      -6.515  -0.443   0.663  0.00  0.00    +0.029 A 
BRANCH  38  11
ATOM     11  N   UNL     1      -7.829   0.058   0.769  0.00  0.00    -0.336 N 
ATOM     39  C   UNL     1      -8.956  -0.734   0.318  0.00  0.00    +0.129 C 
ATOM     40  C   UNL     1      -8.069   1.376   1.324  0.00  0.00    +0.129 C 
ENDBRANCH  38  11
ENDBRANCH  26  28
BRANCH  20  23
ATOM      2  O   UNL     1       2.447  -1.462  -2.215  0.00  0.00    -0.274 OA
ATOM      8  N   UNL     1       2.824  -1.479   0.082  0.00  0.00    -0.303 N 
ATOM     23  C   UNL     1       2.087  -1.233  -1.063  0.00  0.00    +0.234 C 
ATOM     41  H   UNL     1       2.392  -1.328   0.989  0.00  0.00    +0.149 HD
BRANCH   8  19
ATOM     19  C   UNL     1       4.150  -2.054   0.060  0.00  0.00    +0.159 C 
BRANCH  19  25
ATOM      5  O   UNL     1       3.143  -4.194   0.620  0.00  0.00    -0.274 OA
ATOM     10  N   UNL     1       5.022  -4.180  -0.700  0.00  0.00    -0.328 N 
ATOM     25  C   UNL     1       4.023  -3.572   0.031  0.00  0.00    +0.231 C 
ATOM     42  H   UNL     1       5.057  -5.190  -0.792  0.00  0.00    +0.145 HD
ATOM     43  H   UNL     1       5.755  -3.655  -1.166  0.00  0.00    +0.145 HD
ENDBRANCH  19  25
BRANCH  19  15
ATOM     15  C   UNL     1       5.018  -1.553   1.219  0.00  0.00    +0.035 C 
BRANCH  15  12
ATOM     12  C   UNL     1       5.139  -0.033   1.299  0.00  0.00    -0.009 C 
ATOM     13  C   UNL     1       5.985   0.380   2.511  0.00  0.00    +0.003 C 
ATOM     14  C   UNL     1       5.731   0.532   0.002  0.00  0.00    +0.003 C 
ATOM     16  C   UNL     1       6.165   1.895   2.583  0.00  0.00    +0.000 C 
ATOM     17  C   UNL     1       5.913   2.047   0.077  0.00  0.00    +0.000 C 
ATOM     18  C   UNL     1       6.746   2.454   1.288  0.00  0.00    +0.000 C 
ENDBRANCH  15  12
ENDBRANCH  19  15
ENDBRANCH   8  19
ENDBRANCH  20  23
BRANCH   7   1
ATOM      1  S   UNL     1       1.169   1.785  -1.898  0.00  0.00    +0.062 S 
ATOM      3  O   UNL     1       0.999   2.383  -3.201  0.00  0.00    -0.153 OA
ATOM      4  O   UNL     1       2.473   1.661  -1.290  0.00  0.00    -0.153 OA
BRANCH   1  27
ATOM     27  C   UNL     1       0.112   2.628  -0.766  0.00  0.00    +0.106 A 
ATOM     29  C   UNL     1       0.400   2.617   0.599  0.00  0.00    +0.028 A 
ATOM     30  C   UNL     1      -1.014   3.306  -1.236  0.00  0.00    +0.028 A 
ATOM     33  C   UNL     1      -0.437   3.283   1.494  0.00  0.00    +0.002 A 
ATOM     34  C   UNL     1      -1.850   3.972  -0.340  0.00  0.00    +0.002 A 
ATOM     35  C   UNL     1      -1.562   3.961   1.024  0.00  0.00    +0.000 A 
ENDBRANCH   1  27
ENDBRANCH   7   1
TORSDOF 9
