MODEL 1
REMARK VINA RESULT:      -5.3      0.000      0.000
REMARK  Name = 75368547
REMARK  5 active torsions:
REMARK  status: ('A' for Active; 'I' for Inactive)
REMARK    1  A    between atoms: N_3  and  C_10
REMARK    2  A    between atoms: C_10  and  C_12
REMARK    3  A    between atoms: C_12  and  C_13
REMARK    4  A    between atoms: C_13  and  C_14
REMARK    5  A    between atoms: C_13  and  C_15
REMARK                            x       y       z     vdW  Elec       q    Type
REMARK                         _______ _______ _______ _____ _____    ______ ____
ROOT
ATOM      1  O   UNL     1      13.251   7.241  18.838  0.00  0.00    -0.253 OA
ATOM      2  N   UNL     1      11.788   8.196  20.414  0.00  0.00    -0.279 N 
ATOM      3  N   UNL     1      10.842   9.943  22.404  0.00  0.00    -0.299 NA
ATOM      4  N   UNL     1      12.004   5.961  20.360  0.00  0.00    -0.297 N 
ATOM      5  C   UNL     1      10.812   7.711  21.368  0.00  0.00    +0.109 C 
ATOM      6  C   UNL     1      10.914   8.493  22.676  0.00  0.00    +0.108 C 
ATOM      7  C   UNL     1      11.903   9.620  20.179  0.00  0.00    +0.125 C 
ATOM      8  C   UNL     1      11.942  10.368  21.514  0.00  0.00    +0.103 C 
ATOM      9  C   UNL     1      11.130   6.222  21.481  0.00  0.00    +0.129 C 
ATOM     11  C   UNL     1      12.444   7.153  19.754  0.00  0.00    +0.303 C 
ATOM     16  H   UNL     1      12.332   5.038  20.093  0.00  0.00    +0.150 HD
ENDROOT
BRANCH   3  10
ATOM     10  C   UNL     1      10.879  10.699  23.655  0.00  0.00    +0.085 C 
BRANCH  10  12
ATOM     12  C   UNL     1      10.943  12.200  23.364  0.00  0.00    +0.018 C 
BRANCH  12  13
ATOM     13  C   UNL     1      11.639  13.008  24.475  0.00  0.00    -0.016 C 
ATOM     14  C   UNL     1      12.705  12.192  25.209  0.00  0.00    +0.007 C 
ATOM     15  C   UNL     1      10.599  13.517  25.476  0.00  0.00    +0.007 C 
ENDBRANCH  12  13
ENDBRANCH  10  12
ENDBRANCH   3  10
TORSDOF 3
ENDMDL
MODEL 2
REMARK VINA RESULT:      -5.2      3.954      6.253
REMARK  Name = 75368547
REMARK  5 active torsions:
REMARK  status: ('A' for Active; 'I' for Inactive)
REMARK    1  A    between atoms: N_3  and  C_10
REMARK    2  A    between atoms: C_10  and  C_12
REMARK    3  A    between atoms: C_12  and  C_13
REMARK    4  A    between atoms: C_13  and  C_14
REMARK    5  A    between atoms: C_13  and  C_15
REMARK                            x       y       z     vdW  Elec       q    Type
REMARK                         _______ _______ _______ _____ _____    ______ ____
ROOT
ATOM      1  O   UNL     1      10.471   8.585  21.158  0.00  0.00    -0.253 OA
ATOM      2  N   UNL     1      12.399   7.579  20.260  0.00  0.00    -0.279 N 
ATOM      3  N   UNL     1      15.114   6.924  19.930  0.00  0.00    -0.299 NA
ATOM      4  N   UNL     1      10.888   8.464  18.853  0.00  0.00    -0.297 N 
ATOM      5  C   UNL     1      12.882   7.231  18.940  0.00  0.00    +0.109 C 
ATOM      6  C   UNL     1      14.371   7.551  18.818  0.00  0.00    +0.108 C 
ATOM      7  C   UNL     1      13.137   7.138  21.425  0.00  0.00    +0.125 C 
ATOM      8  C   UNL     1      14.630   7.422  21.234  0.00  0.00    +0.103 C 
ATOM      9  C   UNL     1      11.975   8.027  18.005  0.00  0.00    +0.129 C 
ATOM     11  C   UNL     1      11.170   8.245  20.214  0.00  0.00    +0.303 C 
ATOM     16  H   UNL     1      10.061   8.947  18.518  0.00  0.00    +0.150 HD
ENDROOT
BRANCH   3  10
ATOM     10  C   UNL     1      16.547   7.173  19.791  0.00  0.00    +0.085 C 
BRANCH  10  12
ATOM     12  C   UNL     1      17.332   6.320  20.790  0.00  0.00    +0.018 C 
BRANCH  12  13
ATOM     13  C   UNL     1      18.504   7.073  21.447  0.00  0.00    -0.016 C 
ATOM     14  C   UNL     1      18.303   8.590  21.434  0.00  0.00    +0.007 C 
ATOM     15  C   UNL     1      19.812   6.720  20.735  0.00  0.00    +0.007 C 
ENDBRANCH  12  13
ENDBRANCH  10  12
ENDBRANCH   3  10
TORSDOF 3
ENDMDL
MODEL 3
REMARK VINA RESULT:      -5.1      3.096      5.692
REMARK  Name = 75368547
REMARK  5 active torsions:
REMARK  status: ('A' for Active; 'I' for Inactive)
REMARK    1  A    between atoms: N_3  and  C_10
REMARK    2  A    between atoms: C_10  and  C_12
REMARK    3  A    between atoms: C_12  and  C_13
REMARK    4  A    between atoms: C_13  and  C_14
REMARK    5  A    between atoms: C_13  and  C_15
REMARK                            x       y       z     vdW  Elec       q    Type
REMARK                         _______ _______ _______ _____ _____    ______ ____
ROOT
ATOM      1  O   UNL     1      10.615   9.902  23.084  0.00  0.00    -0.253 OA
ATOM      2  N   UNL     1      12.168   8.571  21.921  0.00  0.00    -0.279 N 
ATOM      3  N   UNL     1      14.123   7.853  20.031  0.00  0.00    -0.299 NA
ATOM      4  N   UNL     1      10.145   7.711  22.387  0.00  0.00    -0.297 N 
ATOM      5  C   UNL     1      12.246   7.194  21.480  0.00  0.00    +0.109 C 
ATOM      6  C   UNL     1      12.841   7.119  20.075  0.00  0.00    +0.108 C 
ATOM      7  C   UNL     1      13.328   9.426  21.786  0.00  0.00    +0.125 C 
ATOM      8  C   UNL     1      13.928   9.274  20.386  0.00  0.00    +0.103 C 
ATOM      9  C   UNL     1      10.806   6.698  21.595  0.00  0.00    +0.129 C 
ATOM     11  C   UNL     1      10.945   8.860  22.534  0.00  0.00    +0.303 C 
ATOM     16  H   UNL     1       9.191   7.641  22.724  0.00  0.00    +0.150 HD
ENDROOT
BRANCH   3  10
ATOM     10  C   UNL     1      14.732   7.738  18.707  0.00  0.00    +0.085 C 
BRANCH  10  12
ATOM     12  C   UNL     1      14.553   9.042  17.928  0.00  0.00    +0.018 C 
BRANCH  12  13
ATOM     13  C   UNL     1      13.747   8.870  16.627  0.00  0.00    -0.016 C 
ATOM     14  C   UNL     1      14.161   9.871  15.546  0.00  0.00    +0.007 C 
ATOM     15  C   UNL     1      12.251   9.016  16.919  0.00  0.00    +0.007 C 
ENDBRANCH  12  13
ENDBRANCH  10  12
ENDBRANCH   3  10
TORSDOF 3
ENDMDL
MODEL 4
REMARK VINA RESULT:      -5.0      5.127      6.757
REMARK  Name = 75368547
REMARK  5 active torsions:
REMARK  status: ('A' for Active; 'I' for Inactive)
REMARK    1  A    between atoms: N_3  and  C_10
REMARK    2  A    between atoms: C_10  and  C_12
REMARK    3  A    between atoms: C_12  and  C_13
REMARK    4  A    between atoms: C_13  and  C_14
REMARK    5  A    between atoms: C_13  and  C_15
REMARK                            x       y       z     vdW  Elec       q    Type
REMARK                         _______ _______ _______ _____ _____    ______ ____
ROOT
ATOM      1  O   UNL     1      12.108   8.990  15.214  0.00  0.00    -0.253 OA
ATOM      2  N   UNL     1      13.738   8.920  16.909  0.00  0.00    -0.279 N 
ATOM      3  N   UNL     1      14.991   8.215  19.326  0.00  0.00    -0.299 NA
ATOM      4  N   UNL     1      13.170  10.912  16.039  0.00  0.00    -0.297 N 
ATOM      5  C   UNL     1      14.646   9.862  17.530  0.00  0.00    +0.109 C 
ATOM      6  C   UNL     1      14.697   9.634  19.040  0.00  0.00    +0.108 C 
ATOM      7  C   UNL     1      13.843   7.513  17.234  0.00  0.00    +0.125 C 
ATOM      8  C   UNL     1      13.952   7.335  18.751  0.00  0.00    +0.103 C 
ATOM      9  C   UNL     1      14.100  11.222  17.103  0.00  0.00    +0.129 C 
ATOM     11  C   UNL     1      12.911   9.531  15.962  0.00  0.00    +0.303 C 
ATOM     16  H   UNL     1      12.696  11.608  15.473  0.00  0.00    +0.150 HD
ENDROOT
BRANCH   3  10
ATOM     10  C   UNL     1      15.101   7.998  20.767  0.00  0.00    +0.085 C 
BRANCH  10  12
ATOM     12  C   UNL     1      16.065   6.845  21.056  0.00  0.00    +0.018 C 
BRANCH  12  13
ATOM     13  C   UNL     1      17.411   6.976  20.318  0.00  0.00    -0.016 C 
ATOM     14  C   UNL     1      17.653   5.828  19.336  0.00  0.00    +0.007 C 
ATOM     15  C   UNL     1      18.556   7.037  21.333  0.00  0.00    +0.007 C 
ENDBRANCH  12  13
ENDBRANCH  10  12
ENDBRANCH   3  10
TORSDOF 3
ENDMDL
MODEL 5
REMARK VINA RESULT:      -4.8     25.130     27.059
REMARK  Name = 75368547
REMARK  5 active torsions:
REMARK  status: ('A' for Active; 'I' for Inactive)
REMARK    1  A    between atoms: N_3  and  C_10
REMARK    2  A    between atoms: C_10  and  C_12
REMARK    3  A    between atoms: C_12  and  C_13
REMARK    4  A    between atoms: C_13  and  C_14
REMARK    5  A    between atoms: C_13  and  C_15
REMARK                            x       y       z     vdW  Elec       q    Type
REMARK                         _______ _______ _______ _____ _____    ______ ____
ROOT
ATOM      1  O   UNL     1      -3.923 -11.346  17.344  0.00  0.00    -0.253 OA
ATOM      2  N   UNL     1      -3.265 -10.675  15.187  0.00  0.00    -0.279 N 
ATOM      3  N   UNL     1      -3.167 -10.578  12.378  0.00  0.00    -0.299 NA
ATOM      4  N   UNL     1      -1.677 -11.050  16.731  0.00  0.00    -0.297 N 
ATOM      5  C   UNL     1      -2.029 -10.288  14.541  0.00  0.00    +0.109 C 
ATOM      6  C   UNL     1      -1.945 -10.900  13.143  0.00  0.00    +0.108 C 
ATOM      7  C   UNL     1      -4.514 -10.539  14.468  0.00  0.00    +0.125 C 
ATOM      8  C   UNL     1      -4.368 -11.109  13.055  0.00  0.00    +0.103 C 
ATOM      9  C   UNL     1      -0.952 -10.759  15.515  0.00  0.00    +0.129 C 
ATOM     11  C   UNL     1      -3.069 -11.055  16.518  0.00  0.00    +0.303 C 
ATOM     16  H   UNL     1      -1.241 -11.305  17.611  0.00  0.00    +0.150 HD
ENDROOT
BRANCH   3  10
ATOM     10  C   UNL     1      -3.072 -11.108  11.019  0.00  0.00    +0.085 C 
BRANCH  10  12
ATOM     12  C   UNL     1      -4.357 -10.807  10.244  0.00  0.00    +0.018 C 
BRANCH  12  13
ATOM     13  C   UNL     1      -4.278  -9.514   9.411  0.00  0.00    -0.016 C 
ATOM     14  C   UNL     1      -4.873  -8.310  10.145  0.00  0.00    +0.007 C 
ATOM     15  C   UNL     1      -4.999  -9.712   8.075  0.00  0.00    +0.007 C 
ENDBRANCH  12  13
ENDBRANCH  10  12
ENDBRANCH   3  10
TORSDOF 3
ENDMDL
MODEL 6
REMARK VINA RESULT:      -4.8      3.702      4.902
REMARK  Name = 75368547
REMARK  5 active torsions:
REMARK  status: ('A' for Active; 'I' for Inactive)
REMARK    1  A    between atoms: N_3  and  C_10
REMARK    2  A    between atoms: C_10  and  C_12
REMARK    3  A    between atoms: C_12  and  C_13
REMARK    4  A    between atoms: C_13  and  C_14
REMARK    5  A    between atoms: C_13  and  C_15
REMARK                            x       y       z     vdW  Elec       q    Type
REMARK                         _______ _______ _______ _____ _____    ______ ____
ROOT
ATOM      1  O   UNL     1      10.872   5.258  21.351  0.00  0.00    -0.253 OA
ATOM      2  N   UNL     1      12.144   7.225  21.132  0.00  0.00    -0.279 N 
ATOM      3  N   UNL     1      14.364   8.948  21.244  0.00  0.00    -0.299 NA
ATOM      4  N   UNL     1      10.092   7.363  22.036  0.00  0.00    -0.297 N 
ATOM      5  C   UNL     1      11.923   8.643  21.323  0.00  0.00    +0.109 C 
ATOM      6  C   UNL     1      13.136   9.285  21.994  0.00  0.00    +0.108 C 
ATOM      7  C   UNL     1      13.385   6.774  20.538  0.00  0.00    +0.125 C 
ATOM      8  C   UNL     1      14.569   7.485  21.198  0.00  0.00    +0.103 C 
ATOM      9  C   UNL     1      10.633   8.700  22.137  0.00  0.00    +0.129 C 
ATOM     11  C   UNL     1      11.024   6.465  21.483  0.00  0.00    +0.303 C 
ATOM     16  H   UNL     1       9.185   7.084  22.396  0.00  0.00    +0.150 HD
ENDROOT
BRANCH   3  10
ATOM     10  C   UNL     1      15.524   9.606  21.843  0.00  0.00    +0.085 C 
BRANCH  10  12
ATOM     12  C   UNL     1      16.782   8.765  21.618  0.00  0.00    +0.018 C 
BRANCH  12  13
ATOM     13  C   UNL     1      17.963   9.574  21.050  0.00  0.00    -0.016 C 
ATOM     14  C   UNL     1      19.149   9.633  22.016  0.00  0.00    +0.007 C 
ATOM     15  C   UNL     1      17.504  10.994  20.710  0.00  0.00    +0.007 C 
ENDBRANCH  12  13
ENDBRANCH  10  12
ENDBRANCH   3  10
TORSDOF 3
ENDMDL
MODEL 7
REMARK VINA RESULT:      -4.7     26.672     27.376
REMARK  Name = 75368547
REMARK  5 active torsions:
REMARK  status: ('A' for Active; 'I' for Inactive)
REMARK    1  A    between atoms: N_3  and  C_10
REMARK    2  A    between atoms: C_10  and  C_12
REMARK    3  A    between atoms: C_12  and  C_13
REMARK    4  A    between atoms: C_13  and  C_14
REMARK    5  A    between atoms: C_13  and  C_15
REMARK                            x       y       z     vdW  Elec       q    Type
REMARK                         _______ _______ _______ _____ _____    ______ ____
ROOT
ATOM      1  O   UNL     1      -6.316 -10.426  20.090  0.00  0.00    -0.253 OA
ATOM      2  N   UNL     1      -5.900 -10.796  17.804  0.00  0.00    -0.279 N 
ATOM      3  N   UNL     1      -4.468 -11.033  15.395  0.00  0.00    -0.299 NA
ATOM      4  N   UNL     1      -7.650  -9.514  18.389  0.00  0.00    -0.297 N 
ATOM      5  C   UNL     1      -6.574 -10.505  16.555  0.00  0.00    +0.109 C 
ATOM      6  C   UNL     1      -5.566 -10.049  15.501  0.00  0.00    +0.108 C 
ATOM      7  C   UNL     1      -4.720 -11.635  17.795  0.00  0.00    +0.125 C 
ATOM      8  C   UNL     1      -3.766 -11.181  16.686  0.00  0.00    +0.103 C 
ATOM      9  C   UNL     1      -7.615  -9.459  16.944  0.00  0.00    +0.129 C 
ATOM     11  C   UNL     1      -6.584 -10.273  18.906  0.00  0.00    +0.303 C 
ATOM     16  H   UNL     1      -8.309  -9.001  18.965  0.00  0.00    +0.150 HD
ENDROOT
BRANCH   3  10
ATOM     10  C   UNL     1      -3.529 -10.637  14.347  0.00  0.00    +0.085 C 
BRANCH  10  12
ATOM     12  C   UNL     1      -4.249 -10.540  13.001  0.00  0.00    +0.018 C 
BRANCH  12  13
ATOM     13  C   UNL     1      -3.340 -10.861  11.799  0.00  0.00    -0.016 C 
ATOM     14  C   UNL     1      -1.907 -11.188  12.222  0.00  0.00    +0.007 C 
ATOM     15  C   UNL     1      -3.334  -9.681  10.823  0.00  0.00    +0.007 C 
ENDBRANCH  12  13
ENDBRANCH  10  12
ENDBRANCH   3  10
TORSDOF 3
ENDMDL
MODEL 8
REMARK VINA RESULT:      -4.7     26.188     26.778
REMARK  Name = 75368547
REMARK  5 active torsions:
REMARK  status: ('A' for Active; 'I' for Inactive)
REMARK    1  A    between atoms: N_3  and  C_10
REMARK    2  A    between atoms: C_10  and  C_12
REMARK    3  A    between atoms: C_12  and  C_13
REMARK    4  A    between atoms: C_13  and  C_14
REMARK    5  A    between atoms: C_13  and  C_15
REMARK                            x       y       z     vdW  Elec       q    Type
REMARK                         _______ _______ _______ _____ _____    ______ ____
ROOT
ATOM      1  O   UNL     1      -4.861  -9.316  10.689  0.00  0.00    -0.253 OA
ATOM      2  N   UNL     1      -4.113 -10.434  12.620  0.00  0.00    -0.279 N 
ATOM      3  N   UNL     1      -3.821 -11.072  15.343  0.00  0.00    -0.299 NA
ATOM      4  N   UNL     1      -2.613  -9.895  11.036  0.00  0.00    -0.297 N 
ATOM      5  C   UNL     1      -2.874 -11.031  13.072  0.00  0.00    +0.109 C 
ATOM      6  C   UNL     1      -2.633 -10.705  14.545  0.00  0.00    +0.108 C 
ATOM      7  C   UNL     1      -5.314 -10.608  13.409  0.00  0.00    +0.125 C 
ATOM      8  C   UNL     1      -5.013 -10.330  14.885  0.00  0.00    +0.103 C 
ATOM      9  C   UNL     1      -1.831 -10.468  12.109  0.00  0.00    +0.129 C 
ATOM     11  C   UNL     1      -3.979  -9.824  11.369  0.00  0.00    +0.303 C 
ATOM     16  H   UNL     1      -2.220  -9.512  10.183  0.00  0.00    +0.150 HD
ENDROOT
BRANCH   3  10
ATOM     10  C   UNL     1      -3.579 -10.819  16.763  0.00  0.00    +0.085 C 
BRANCH  10  12
ATOM     12  C   UNL     1      -4.906 -10.625  17.498  0.00  0.00    +0.018 C 
BRANCH  12  13
ATOM     13  C   UNL     1      -5.122 -11.632  18.643  0.00  0.00    -0.016 C 
ATOM     14  C   UNL     1      -5.968 -11.052  19.779  0.00  0.00    +0.007 C 
ATOM     15  C   UNL     1      -3.769 -12.093  19.192  0.00  0.00    +0.007 C 
ENDBRANCH  12  13
ENDBRANCH  10  12
ENDBRANCH   3  10
TORSDOF 3
ENDMDL
MODEL 9
REMARK VINA RESULT:      -4.5     25.333     27.645
REMARK  Name = 75368547
REMARK  5 active torsions:
REMARK  status: ('A' for Active; 'I' for Inactive)
REMARK    1  A    between atoms: N_3  and  C_10
REMARK    2  A    between atoms: C_10  and  C_12
REMARK    3  A    between atoms: C_12  and  C_13
REMARK    4  A    between atoms: C_13  and  C_14
REMARK    5  A    between atoms: C_13  and  C_15
REMARK                            x       y       z     vdW  Elec       q    Type
REMARK                         _______ _______ _______ _____ _____    ______ ____
ROOT
ATOM      1  O   UNL     1      -8.624 -11.169  19.835  0.00  0.00    -0.253 OA
ATOM      2  N   UNL     1      -7.609 -11.002  17.720  0.00  0.00    -0.279 N 
ATOM      3  N   UNL     1      -5.598 -11.065  15.755  0.00  0.00    -0.299 NA
ATOM      4  N   UNL     1      -9.019  -9.378  18.371  0.00  0.00    -0.297 N 
ATOM      5  C   UNL     1      -7.728 -10.137  16.565  0.00  0.00    +0.109 C 
ATOM      6  C   UNL     1      -6.347  -9.815  15.997  0.00  0.00    +0.108 C 
ATOM      7  C   UNL     1      -6.776 -12.183  17.639  0.00  0.00    +0.125 C 
ATOM      8  C   UNL     1      -5.426 -11.828  17.009  0.00  0.00    +0.103 C 
ATOM      9  C   UNL     1      -8.501  -8.932  17.096  0.00  0.00    +0.129 C 
ATOM     11  C   UNL     1      -8.438 -10.596  18.770  0.00  0.00    +0.303 C 
ATOM     16  H   UNL     1      -9.657  -8.841  18.948  0.00  0.00    +0.150 HD
ENDROOT
BRANCH   3  10
ATOM     10  C   UNL     1      -4.297 -10.773  15.155  0.00  0.00    +0.085 C 
BRANCH  10  12
ATOM     12  C   UNL     1      -3.240 -10.595  16.247  0.00  0.00    +0.018 C 
BRANCH  12  13
ATOM     13  C   UNL     1      -1.833 -11.048  15.814  0.00  0.00    -0.016 C 
ATOM     14  C   UNL     1      -0.911  -9.868  15.500  0.00  0.00    +0.007 C 
ATOM     15  C   UNL     1      -1.936 -11.962  14.590  0.00  0.00    +0.007 C 
ENDBRANCH  12  13
ENDBRANCH  10  12
ENDBRANCH   3  10
TORSDOF 3
ENDMDL
MODEL 10
REMARK VINA RESULT:      -4.5     16.108     19.356
REMARK  Name = 75368547
REMARK  5 active torsions:
REMARK  status: ('A' for Active; 'I' for Inactive)
REMARK    1  A    between atoms: N_3  and  C_10
REMARK    2  A    between atoms: C_10  and  C_12
REMARK    3  A    between atoms: C_12  and  C_13
REMARK    4  A    between atoms: C_13  and  C_14
REMARK    5  A    between atoms: C_13  and  C_15
REMARK                            x       y       z     vdW  Elec       q    Type
REMARK                         _______ _______ _______ _____ _____    ______ ____
ROOT
ATOM      1  O   UNL     1      10.225   5.525   8.089  0.00  0.00    -0.253 OA
ATOM      2  N   UNL     1      10.558   6.020   5.813  0.00  0.00    -0.279 N 
ATOM      3  N   UNL     1      11.134   5.615   3.091  0.00  0.00    -0.299 NA
ATOM      4  N   UNL     1      11.479   7.368   7.357  0.00  0.00    -0.297 N 
ATOM      5  C   UNL     1      11.141   7.103   5.050  0.00  0.00    +0.109 C 
ATOM      6  C   UNL     1      11.957   6.552   3.882  0.00  0.00    +0.108 C 
ATOM      7  C   UNL     1       9.852   4.963   5.120  0.00  0.00    +0.125 C 
ATOM      8  C   UNL     1      10.677   4.482   3.922  0.00  0.00    +0.103 C 
ATOM      9  C   UNL     1      11.948   7.880   6.088  0.00  0.00    +0.129 C 
ATOM     11  C   UNL     1      10.689   6.215   7.192  0.00  0.00    +0.303 C 
ATOM     16  H   UNL     1      11.753   7.740   8.260  0.00  0.00    +0.150 HD
ENDROOT
BRANCH   3  10
ATOM     10  C   UNL     1      11.885   5.127   1.935  0.00  0.00    +0.085 C 
BRANCH  10  12
ATOM     12  C   UNL     1      12.030   3.605   2.004  0.00  0.00    +0.018 C 
BRANCH  12  13
ATOM     13  C   UNL     1      13.219   3.068   1.184  0.00  0.00    -0.016 C 
ATOM     14  C   UNL     1      14.554   3.667   1.630  0.00  0.00    +0.007 C 
ATOM     15  C   UNL     1      12.996   3.356  -0.304  0.00  0.00    +0.007 C 
ENDBRANCH  12  13
ENDBRANCH  10  12
ENDBRANCH   3  10
TORSDOF 3
ENDMDL
