REMARK  Name = 11886250
REMARK  8 active torsions:
REMARK  status: ('A' for Active; 'I' for Inactive)
REMARK    1  A    between atoms: O_3  and  C_20
REMARK    2  A    between atoms: O_3  and  C_25
REMARK    3  A    between atoms: O_5  and  C_30
REMARK    4  A    between atoms: O_5  and  C_34
REMARK    5  A    between atoms: N_6  and  C_16
REMARK    6  A    between atoms: N_7  and  C_17
REMARK    7  A    between atoms: N_11  and  C_33
REMARK    8  A    between atoms: C_21  and  C_22
REMARK                            x       y       z     vdW  Elec       q    Type
REMARK                         _______ _______ _______ _____ _____    ______ ____
ROOT
ATOM      1  O   UNL     1      -1.599  -3.334   0.513  0.00  0.00    -0.370 OA
ATOM      2  O   UNL     1      -1.558  -1.145  -1.745  0.00  0.00    -0.370 OA
ATOM     14  C   UNL     1      -1.158  -1.161  -0.362  0.00  0.00    +0.176 C 
ATOM     15  C   UNL     1      -2.161  -2.019   0.385  0.00  0.00    +0.171 C 
ATOM     16  C   UNL     1       0.161  -1.895  -0.215  0.00  0.00    +0.171 C 
ATOM     17  C   UNL     1      -3.372  -2.052  -0.521  0.00  0.00    +0.130 C 
ATOM     18  C   UNL     1      -0.272  -3.345  -0.030  0.00  0.00    +0.190 C 
ATOM     19  C   UNL     1      -2.748  -1.930  -1.899  0.00  0.00    +0.185 C 
ENDROOT
BRANCH  16   6
ATOM      6  N   UNL     1       0.989  -1.352   0.865  0.00  0.00    -0.187 N 
ATOM      8  N   UNL     1       0.533  -1.301   2.120  0.00  0.00    -0.041 NA
ATOM      9  N   UNL     1       2.601  -0.475   2.007  0.00  0.00    -0.071 NA
ATOM     10  N   UNL     1       1.526  -0.763   2.817  0.00  0.00    -0.020 NA
ATOM     20  C   UNL     1       2.245  -0.850   0.800  0.00  0.00    +0.342 A 
BRANCH  20   3
ATOM      3  O   UNL     1       2.969  -0.759  -0.300  0.00  0.00    -0.423 OA
BRANCH   3  25
ATOM     25  C   UNL     1       4.253  -0.232  -0.308  0.00  0.00    +0.132 A 
ATOM     28  C   UNL     1       4.421   1.123  -0.520  0.00  0.00    +0.048 A 
ATOM     29  C   UNL     1       5.326  -1.079  -0.105  0.00  0.00    +0.048 A 
ATOM     31  C   UNL     1       5.711   1.652  -0.530  0.00  0.00    +0.031 A 
ATOM     32  C   UNL     1       6.617  -0.549  -0.115  0.00  0.00    +0.031 A 
ATOM     33  C   UNL     1       6.809   0.816  -0.327  0.00  0.00    +0.067 A 
BRANCH  33  11
ATOM     11  N   UNL     1       8.089   1.341  -0.336  0.00  0.00    -0.220 N 
ATOM     12  N   UNL     1       9.177   0.572  -0.145  0.00  0.00    -0.154 NA
ATOM     13  N   UNL     1       9.752   2.762  -0.470  0.00  0.00    -0.222 NA
ATOM     35  C   UNL     1       8.446   2.643  -0.527  0.00  0.00    +0.225 A 
ATOM     36  C   UNL     1      10.153   1.478  -0.235  0.00  0.00    +0.245 A 
ENDBRANCH  33  11
ENDBRANCH   3  25
ENDBRANCH  20   3
ENDBRANCH  16   6
BRANCH  17   7
ATOM      4  O   UNL     1      -6.196  -1.954  -1.031  0.00  0.00    -0.270 OA
ATOM      7  N   UNL     1      -4.258  -0.947  -0.249  0.00  0.00    -0.304 N 
ATOM     21  C   UNL     1      -5.616  -0.993  -0.531  0.00  0.00    +0.244 C 
ATOM     37  H   UNL     1      -3.829  -0.080   0.056  0.00  0.00    +0.149 HD
BRANCH  21  22
ATOM     22  C   UNL     1      -6.388   0.237  -0.216  0.00  0.00    +0.037 A 
ATOM     23  C   UNL     1      -5.934   1.071   0.784  0.00  0.00    +0.016 A 
ATOM     24  C   UNL     1      -7.535   0.505  -0.934  0.00  0.00    +0.016 A 
ATOM     26  C   UNL     1      -6.659   2.225   1.080  0.00  0.00    +0.046 A 
ATOM     27  C   UNL     1      -8.260   1.660  -0.639  0.00  0.00    +0.046 A 
ATOM     30  C   UNL     1      -7.822   2.519   0.369  0.00  0.00    +0.120 A 
BRANCH  30   5
ATOM      5  O   UNL     1      -8.531   3.645   0.659  0.00  0.00    -0.495 OA
ATOM     34  C   UNL     1      -9.711   3.884  -0.106  0.00  0.00    +0.277 C 
ENDBRANCH  30   5
ENDBRANCH  21  22
ENDBRANCH  17   7
TORSDOF 7
