MODEL 1
REMARK VINA RESULT:      -6.5      0.000      0.000
REMARK  Name = 45783477
REMARK  9 active torsions:
REMARK  status: ('A' for Active; 'I' for Inactive)
REMARK    1  A    between atoms: O_3  and  C_28
REMARK    2  A    between atoms: O_3  and  C_29
REMARK    3  A    between atoms: N_4  and  C_13
REMARK    4  A    between atoms: N_8  and  C_26
REMARK    5  A    between atoms: N_8  and  C_27
REMARK    6  A    between atoms: C_9  and  C_14
REMARK    7  A    between atoms: C_13  and  C_15
REMARK    8  A    between atoms: C_18  and  C_21
REMARK    9  A    between atoms: C_27  and  C_28
REMARK                            x       y       z     vdW  Elec       q    Type
REMARK                         _______ _______ _______ _____ _____    ______ ____
ROOT
ATOM      2  O   UNL     1      -5.431  -9.546  15.718  0.00  0.00    -0.336 OA
ATOM      5  N   UNL     1      -5.752 -11.289  17.088  0.00  0.00    -0.190 NA
ATOM      6  N   UNL     1      -6.638  -9.300  16.387  0.00  0.00    -0.056 NA
ATOM     14  C   UNL     1      -4.977 -10.736  16.190  0.00  0.00    +0.245 A 
ATOM     18  C   UNL     1      -6.757 -10.372  17.176  0.00  0.00    +0.204 A 
ENDROOT
BRANCH  18  21
ATOM      7  N   UNL     1      -8.773 -11.563  20.066  0.00  0.00    -0.240 NA
ATOM     21  C   UNL     1      -7.871 -10.555  18.062  0.00  0.00    +0.041 A 
ATOM     23  C   UNL     1      -9.093  -9.941  17.812  0.00  0.00    +0.016 A 
ATOM     24  C   UNL     1      -7.763 -11.349  19.191  0.00  0.00    +0.124 A 
ATOM     25  C   UNL     1     -10.155 -10.136  18.688  0.00  0.00    +0.044 A 
ATOM     26  C   UNL     1      -9.946 -10.949  19.790  0.00  0.00    +0.119 A 
BRANCH  26   8
ATOM      8  N   UNL     1     -11.037 -11.138  20.674  0.00  0.00    -0.327 N 
ATOM     30  H   UNL     1     -10.845 -11.016  21.661  0.00  0.00    +0.148 HD
BRANCH   8  27
ATOM     27  C   UNL     1     -12.344 -11.486  20.221  0.00  0.00    +0.131 C 
BRANCH  27  28
ATOM     28  C   UNL     1     -13.386 -10.656  20.950  0.00  0.00    +0.178 C 
BRANCH  28   3
ATOM      3  O   UNL     1     -14.372 -11.517  21.507  0.00  0.00    -0.381 OA
ATOM     29  C   UNL     1     -13.887 -12.184  22.664  0.00  0.00    +0.194 C 
ENDBRANCH  28   3
ENDBRANCH  27  28
ENDBRANCH   8  27
ENDBRANCH  26   8
ENDBRANCH  18  21
BRANCH  14   9
ATOM      4  N   UNL     1      -3.325 -10.583  14.334  0.00  0.00    -0.287 NA
ATOM      9  C   UNL     1      -3.666 -11.232  15.615  0.00  0.00    +0.146 C 
ATOM     10  C   UNL     1      -2.465 -10.938  16.534  0.00  0.00    +0.030 C 
ATOM     11  C   UNL     1      -1.478 -10.173  15.664  0.00  0.00    +0.017 C 
ATOM     12  C   UNL     1      -1.865 -10.567  14.253  0.00  0.00    +0.085 C 
BRANCH   4  13
ATOM     13  C   UNL     1      -3.932 -11.236  13.181  0.00  0.00    +0.123 C 
BRANCH  13  15
ATOM      1  F   UNL     1      -2.230 -10.547  11.024  0.00  0.00    -0.205 F 
ATOM     15  C   UNL     1      -4.317 -10.246  12.114  0.00  0.00    +0.002 A 
ATOM     16  C   UNL     1      -3.430  -9.952  11.078  0.00  0.00    +0.128 A 
ATOM     17  C   UNL     1      -5.564  -9.623  12.161  0.00  0.00    +0.008 A 
ATOM     19  C   UNL     1      -3.790  -9.035  10.091  0.00  0.00    +0.038 A 
ATOM     20  C   UNL     1      -5.925  -8.706  11.175  0.00  0.00    +0.000 A 
ATOM     22  C   UNL     1      -5.037  -8.411  10.139  0.00  0.00    +0.003 A 
ENDBRANCH  13  15
ENDBRANCH   4  13
ENDBRANCH  14   9
TORSDOF 8
ENDMDL
MODEL 2
REMARK VINA RESULT:      -6.5      3.337      4.083
REMARK  Name = 45783477
REMARK  9 active torsions:
REMARK  status: ('A' for Active; 'I' for Inactive)
REMARK    1  A    between atoms: O_3  and  C_28
REMARK    2  A    between atoms: O_3  and  C_29
REMARK    3  A    between atoms: N_4  and  C_13
REMARK    4  A    between atoms: N_8  and  C_26
REMARK    5  A    between atoms: N_8  and  C_27
REMARK    6  A    between atoms: C_9  and  C_14
REMARK    7  A    between atoms: C_13  and  C_15
REMARK    8  A    between atoms: C_18  and  C_21
REMARK    9  A    between atoms: C_27  and  C_28
REMARK                            x       y       z     vdW  Elec       q    Type
REMARK                         _______ _______ _______ _____ _____    ______ ____
ROOT
ATOM      2  O   UNL     1      -4.700 -10.771  17.442  0.00  0.00    -0.336 OA
ATOM      5  N   UNL     1      -5.664 -10.162  15.514  0.00  0.00    -0.190 NA
ATOM      6  N   UNL     1      -5.980 -10.307  17.775  0.00  0.00    -0.056 NA
ATOM     14  C   UNL     1      -4.596 -10.651  16.093  0.00  0.00    +0.245 A 
ATOM     18  C   UNL     1      -6.484  -9.967  16.586  0.00  0.00    +0.204 A 
ENDROOT
BRANCH  18  21
ATOM      7  N   UNL     1      -9.687  -8.266  17.414  0.00  0.00    -0.240 NA
ATOM     21  C   UNL     1      -7.806  -9.428  16.436  0.00  0.00    +0.041 A 
ATOM     23  C   UNL     1      -8.486  -9.526  15.227  0.00  0.00    +0.016 A 
ATOM     24  C   UNL     1      -8.444  -8.794  17.489  0.00  0.00    +0.124 A 
ATOM     25  C   UNL     1      -9.765  -8.995  15.111  0.00  0.00    +0.044 A 
ATOM     26  C   UNL     1     -10.317  -8.381  16.223  0.00  0.00    +0.119 A 
BRANCH  26   8
ATOM      8  N   UNL     1     -11.621  -7.843  16.089  0.00  0.00    -0.327 N 
ATOM     30  H   UNL     1     -12.218  -7.895  16.906  0.00  0.00    +0.148 HD
BRANCH   8  27
ATOM     27  C   UNL     1     -12.092  -7.258  14.876  0.00  0.00    +0.131 C 
BRANCH  27  28
ATOM     28  C   UNL     1     -11.842  -5.760  14.889  0.00  0.00    +0.178 C 
BRANCH  28   3
ATOM      3  O   UNL     1     -11.962  -5.249  13.567  0.00  0.00    -0.381 OA
ATOM     29  C   UNL     1     -13.129  -4.452  13.420  0.00  0.00    +0.194 C 
ENDBRANCH  28   3
ENDBRANCH  27  28
ENDBRANCH   8  27
ENDBRANCH  26   8
ENDBRANCH  18  21
BRANCH  14   9
ATOM      4  N   UNL     1      -3.027 -10.448  14.173  0.00  0.00    -0.287 NA
ATOM      9  C   UNL     1      -3.286 -11.093  15.475  0.00  0.00    +0.146 C 
ATOM     10  C   UNL     1      -2.066 -10.729  16.341  0.00  0.00    +0.030 C 
ATOM     11  C   UNL     1      -1.151  -9.931  15.424  0.00  0.00    +0.017 C 
ATOM     12  C   UNL     1      -1.573 -10.365  14.035  0.00  0.00    +0.085 C 
BRANCH   4  13
ATOM     13  C   UNL     1      -3.644 -11.146  13.052  0.00  0.00    +0.123 C 
BRANCH  13  15
ATOM      1  F   UNL     1      -2.141 -10.225  10.836  0.00  0.00    -0.205 F 
ATOM     15  C   UNL     1      -4.193 -10.188  12.028  0.00  0.00    +0.002 A 
ATOM     16  C   UNL     1      -3.397  -9.775  10.960  0.00  0.00    +0.128 A 
ATOM     17  C   UNL     1      -5.500  -9.715  12.148  0.00  0.00    +0.008 A 
ATOM     19  C   UNL     1      -3.908  -8.888  10.012  0.00  0.00    +0.038 A 
ATOM     20  C   UNL     1      -6.011  -8.828  11.202  0.00  0.00    +0.000 A 
ATOM     22  C   UNL     1      -5.215  -8.414  10.133  0.00  0.00    +0.003 A 
ENDBRANCH  13  15
ENDBRANCH   4  13
ENDBRANCH  14   9
TORSDOF 8
ENDMDL
MODEL 3
REMARK VINA RESULT:      -6.5      3.414      4.368
REMARK  Name = 45783477
REMARK  9 active torsions:
REMARK  status: ('A' for Active; 'I' for Inactive)
REMARK    1  A    between atoms: O_3  and  C_28
REMARK    2  A    between atoms: O_3  and  C_29
REMARK    3  A    between atoms: N_4  and  C_13
REMARK    4  A    between atoms: N_8  and  C_26
REMARK    5  A    between atoms: N_8  and  C_27
REMARK    6  A    between atoms: C_9  and  C_14
REMARK    7  A    between atoms: C_13  and  C_15
REMARK    8  A    between atoms: C_18  and  C_21
REMARK    9  A    between atoms: C_27  and  C_28
REMARK                            x       y       z     vdW  Elec       q    Type
REMARK                         _______ _______ _______ _____ _____    ______ ____
ROOT
ATOM      2  O   UNL     1      -4.994 -11.256  17.365  0.00  0.00    -0.336 OA
ATOM      5  N   UNL     1      -5.683 -10.135  15.553  0.00  0.00    -0.190 NA
ATOM      6  N   UNL     1      -6.275 -10.775  17.668  0.00  0.00    -0.056 NA
ATOM     14  C   UNL     1      -4.723 -10.835  16.103  0.00  0.00    +0.245 A 
ATOM     18  C   UNL     1      -6.613 -10.125  16.551  0.00  0.00    +0.204 A 
ENDROOT
BRANCH  18  21
ATOM      7  N   UNL     1      -9.741  -8.859  14.988  0.00  0.00    -0.240 NA
ATOM     21  C   UNL     1      -7.873  -9.454  16.401  0.00  0.00    +0.041 A 
ATOM     23  C   UNL     1      -8.449  -8.769  17.465  0.00  0.00    +0.016 A 
ATOM     24  C   UNL     1      -8.552  -9.469  15.195  0.00  0.00    +0.124 A 
ATOM     25  C   UNL     1      -9.671  -8.128  17.291  0.00  0.00    +0.044 A 
ATOM     26  C   UNL     1     -10.271  -8.202  16.044  0.00  0.00    +0.119 A 
BRANCH  26   8
ATOM      8  N   UNL     1     -11.516  -7.545  15.883  0.00  0.00    -0.327 N 
ATOM     30  H   UNL     1     -12.332  -8.139  15.797  0.00  0.00    +0.148 HD
BRANCH   8  27
ATOM     27  C   UNL     1     -11.637  -6.125  15.838  0.00  0.00    +0.131 C 
BRANCH  27  28
ATOM     28  C   UNL     1     -12.678  -5.724  14.808  0.00  0.00    +0.178 C 
BRANCH  28   3
ATOM      3  O   UNL     1     -12.056  -4.971  13.774  0.00  0.00    -0.381 OA
ATOM     29  C   UNL     1     -12.528  -5.357  12.491  0.00  0.00    +0.194 C 
ENDBRANCH  28   3
ENDBRANCH  27  28
ENDBRANCH   8  27
ENDBRANCH  26   8
ENDBRANCH  18  21
BRANCH  14   9
ATOM      4  N   UNL     1      -3.082 -10.562  14.252  0.00  0.00    -0.287 NA
ATOM      9  C   UNL     1      -3.377 -11.233  15.534  0.00  0.00    +0.146 C 
ATOM     10  C   UNL     1      -2.204 -10.847  16.455  0.00  0.00    +0.030 C 
ATOM     11  C   UNL     1      -1.275 -10.012  15.586  0.00  0.00    +0.017 C 
ATOM     12  C   UNL     1      -1.627 -10.437  14.175  0.00  0.00    +0.085 C 
BRANCH   4  13
ATOM     13  C   UNL     1      -3.634 -11.261  13.098  0.00  0.00    +0.123 C 
BRANCH  13  15
ATOM      1  F   UNL     1      -6.147 -10.002  12.748  0.00  0.00    -0.205 F 
ATOM     15  C   UNL     1      -3.930 -10.319  11.961  0.00  0.00    +0.002 A 
ATOM     16  C   UNL     1      -5.191  -9.733  11.848  0.00  0.00    +0.128 A 
ATOM     17  C   UNL     1      -2.942 -10.033  11.020  0.00  0.00    +0.008 A 
ATOM     19  C   UNL     1      -5.463  -8.862  10.793  0.00  0.00    +0.038 A 
ATOM     20  C   UNL     1      -3.212  -9.162   9.965  0.00  0.00    +0.000 A 
ATOM     22  C   UNL     1      -4.474  -8.576   9.852  0.00  0.00    +0.003 A 
ENDBRANCH  13  15
ENDBRANCH   4  13
ENDBRANCH  14   9
TORSDOF 8
ENDMDL
MODEL 4
REMARK VINA RESULT:      -6.4      1.859      2.413
REMARK  Name = 45783477
REMARK  9 active torsions:
REMARK  status: ('A' for Active; 'I' for Inactive)
REMARK    1  A    between atoms: O_3  and  C_28
REMARK    2  A    between atoms: O_3  and  C_29
REMARK    3  A    between atoms: N_4  and  C_13
REMARK    4  A    between atoms: N_8  and  C_26
REMARK    5  A    between atoms: N_8  and  C_27
REMARK    6  A    between atoms: C_9  and  C_14
REMARK    7  A    between atoms: C_13  and  C_15
REMARK    8  A    between atoms: C_18  and  C_21
REMARK    9  A    between atoms: C_27  and  C_28
REMARK                            x       y       z     vdW  Elec       q    Type
REMARK                         _______ _______ _______ _____ _____    ______ ____
ROOT
ATOM      2  O   UNL     1      -4.228 -13.237  15.789  0.00  0.00    -0.336 OA
ATOM      5  N   UNL     1      -4.611 -11.125  16.430  0.00  0.00    -0.190 NA
ATOM      6  N   UNL     1      -5.409 -13.267  16.543  0.00  0.00    -0.056 NA
ATOM     14  C   UNL     1      -3.825 -11.940  15.772  0.00  0.00    +0.245 A 
ATOM     18  C   UNL     1      -5.568 -11.985  16.885  0.00  0.00    +0.204 A 
ENDROOT
BRANCH  18  21
ATOM      7  N   UNL     1      -7.954 -11.701  19.723  0.00  0.00    -0.240 NA
ATOM     21  C   UNL     1      -6.673 -11.532  17.681  0.00  0.00    +0.041 A 
ATOM     23  C   UNL     1      -7.517 -10.524  17.226  0.00  0.00    +0.016 A 
ATOM     24  C   UNL     1      -6.932 -12.082  18.924  0.00  0.00    +0.124 A 
ATOM     25  C   UNL     1      -8.579 -10.105  18.019  0.00  0.00    +0.044 A 
ATOM     26  C   UNL     1      -8.754 -10.720  19.248  0.00  0.00    +0.119 A 
BRANCH  26   8
ATOM      8  N   UNL     1      -9.840 -10.281  20.045  0.00  0.00    -0.327 N 
ATOM     30  H   UNL     1      -9.685  -9.450  20.603  0.00  0.00    +0.148 HD
BRANCH   8  27
ATOM     27  C   UNL     1     -11.094 -10.960  20.079  0.00  0.00    +0.131 C 
BRANCH  27  28
ATOM     28  C   UNL     1     -12.175 -10.089  19.463  0.00  0.00    +0.178 C 
BRANCH  28   3
ATOM      3  O   UNL     1     -12.146 -10.230  18.048  0.00  0.00    -0.381 OA
ATOM     29  C   UNL     1     -12.079  -8.966  17.400  0.00  0.00    +0.194 C 
ENDBRANCH  28   3
ENDBRANCH  27  28
ENDBRANCH   8  27
ENDBRANCH  26   8
ENDBRANCH  18  21
BRANCH  14   9
ATOM      4  N   UNL     1      -2.763 -10.668  13.916  0.00  0.00    -0.287 NA
ATOM      9  C   UNL     1      -2.552 -11.638  15.009  0.00  0.00    +0.146 C 
ATOM     10  C   UNL     1      -1.465 -11.001  15.894  0.00  0.00    +0.030 C 
ATOM     11  C   UNL     1      -1.085  -9.708  15.187  0.00  0.00    +0.017 C 
ATOM     12  C   UNL     1      -1.498  -9.952  13.749  0.00  0.00    +0.085 C 
BRANCH   4  13
ATOM     13  C   UNL     1      -3.209 -11.288  12.675  0.00  0.00    +0.123 C 
BRANCH  13  15
ATOM      1  F   UNL     1      -5.682 -10.014  13.207  0.00  0.00    -0.205 F 
ATOM     15  C   UNL     1      -3.835 -10.286  11.741  0.00  0.00    +0.002 A 
ATOM     16  C   UNL     1      -5.056  -9.696  12.065  0.00  0.00    +0.128 A 
ATOM     17  C   UNL     1      -3.191  -9.949  10.551  0.00  0.00    +0.008 A 
ATOM     19  C   UNL     1      -5.634  -8.769  11.198  0.00  0.00    +0.038 A 
ATOM     20  C   UNL     1      -3.768  -9.022   9.684  0.00  0.00    +0.000 A 
ATOM     22  C   UNL     1      -4.990  -8.432  10.007  0.00  0.00    +0.003 A 
ENDBRANCH  13  15
ENDBRANCH   4  13
ENDBRANCH  14   9
TORSDOF 8
ENDMDL
MODEL 5
REMARK VINA RESULT:      -6.3     23.974     28.291
REMARK  Name = 45783477
REMARK  9 active torsions:
REMARK  status: ('A' for Active; 'I' for Inactive)
REMARK    1  A    between atoms: O_3  and  C_28
REMARK    2  A    between atoms: O_3  and  C_29
REMARK    3  A    between atoms: N_4  and  C_13
REMARK    4  A    between atoms: N_8  and  C_26
REMARK    5  A    between atoms: N_8  and  C_27
REMARK    6  A    between atoms: C_9  and  C_14
REMARK    7  A    between atoms: C_13  and  C_15
REMARK    8  A    between atoms: C_18  and  C_21
REMARK    9  A    between atoms: C_27  and  C_28
REMARK                            x       y       z     vdW  Elec       q    Type
REMARK                         _______ _______ _______ _____ _____    ______ ____
ROOT
ATOM      2  O   UNL     1      10.814   6.991  -1.275  0.00  0.00    -0.336 OA
ATOM      5  N   UNL     1      10.478   5.135  -0.067  0.00  0.00    -0.190 NA
ATOM      6  N   UNL     1      10.567   7.419   0.037  0.00  0.00    -0.056 NA
ATOM     14  C   UNL     1      10.744   5.635  -1.248  0.00  0.00    +0.245 A 
ATOM     18  C   UNL     1      10.379   6.267   0.687  0.00  0.00    +0.204 A 
ENDROOT
BRANCH  18  21
ATOM      7  N   UNL     1       8.958   7.166   4.005  0.00  0.00    -0.240 NA
ATOM     21  C   UNL     1      10.088   6.215   2.092  0.00  0.00    +0.041 A 
ATOM     23  C   UNL     1      10.620   5.212   2.896  0.00  0.00    +0.016 A 
ATOM     24  C   UNL     1       9.271   7.159   2.689  0.00  0.00    +0.124 A 
ATOM     25  C   UNL     1      10.322   5.186   4.253  0.00  0.00    +0.044 A 
ATOM     26  C   UNL     1       9.494   6.177   4.755  0.00  0.00    +0.119 A 
BRANCH  26   8
ATOM      8  N   UNL     1       9.198   6.136   6.140  0.00  0.00    -0.327 N 
ATOM     30  H   UNL     1       8.549   6.834   6.484  0.00  0.00    +0.148 HD
BRANCH   8  27
ATOM     27  C   UNL     1       9.775   5.176   7.023  0.00  0.00    +0.131 C 
BRANCH  27  28
ATOM     28  C   UNL     1       9.723   5.686   8.452  0.00  0.00    +0.178 C 
BRANCH  28   3
ATOM      3  O   UNL     1       9.921   4.601   9.350  0.00  0.00    -0.381 OA
ATOM     29  C   UNL     1       8.953   4.600  10.389  0.00  0.00    +0.194 C 
ENDBRANCH  28   3
ENDBRANCH  27  28
ENDBRANCH   8  27
ENDBRANCH  26   8
ENDBRANCH  18  21
BRANCH  14   9
ATOM      4  N   UNL     1      11.729   3.660  -2.397  0.00  0.00    -0.287 NA
ATOM      9  C   UNL     1      10.978   4.920  -2.562  0.00  0.00    +0.146 C 
ATOM     10  C   UNL     1       9.668   4.506  -3.257  0.00  0.00    +0.030 C 
ATOM     11  C   UNL     1       9.799   3.009  -3.495  0.00  0.00    +0.017 C 
ATOM     12  C   UNL     1      11.297   2.776  -3.479  0.00  0.00    +0.085 C 
BRANCH   4  13
ATOM     13  C   UNL     1      13.174   3.849  -2.387  0.00  0.00    +0.123 C 
BRANCH  13  15
ATOM      1  F   UNL     1      15.844   4.549  -1.755  0.00  0.00    -0.205 F 
ATOM     15  C   UNL     1      13.745   3.738  -0.999  0.00  0.00    +0.002 A 
ATOM     16  C   UNL     1      15.070   4.101  -0.757  0.00  0.00    +0.128 A 
ATOM     17  C   UNL     1      12.947   3.274   0.046  0.00  0.00    +0.008 A 
ATOM     19  C   UNL     1      15.597   3.997   0.530  0.00  0.00    +0.038 A 
ATOM     20  C   UNL     1      13.473   3.170   1.334  0.00  0.00    +0.000 A 
ATOM     22  C   UNL     1      14.799   3.532   1.576  0.00  0.00    +0.003 A 
ENDBRANCH  13  15
ENDBRANCH   4  13
ENDBRANCH  14   9
TORSDOF 8
ENDMDL
MODEL 6
REMARK VINA RESULT:      -6.2     18.606     19.783
REMARK  Name = 45783477
REMARK  9 active torsions:
REMARK  status: ('A' for Active; 'I' for Inactive)
REMARK    1  A    between atoms: O_3  and  C_28
REMARK    2  A    between atoms: O_3  and  C_29
REMARK    3  A    between atoms: N_4  and  C_13
REMARK    4  A    between atoms: N_8  and  C_26
REMARK    5  A    between atoms: N_8  and  C_27
REMARK    6  A    between atoms: C_9  and  C_14
REMARK    7  A    between atoms: C_13  and  C_15
REMARK    8  A    between atoms: C_18  and  C_21
REMARK    9  A    between atoms: C_27  and  C_28
REMARK                            x       y       z     vdW  Elec       q    Type
REMARK                         _______ _______ _______ _____ _____    ______ ____
ROOT
ATOM      2  O   UNL     1     -11.316  10.669  19.811  0.00  0.00    -0.336 OA
ATOM      5  N   UNL     1     -11.467   8.634  18.890  0.00  0.00    -0.190 NA
ATOM      6  N   UNL     1     -12.023   9.879  20.727  0.00  0.00    -0.056 NA
ATOM     14  C   UNL     1     -11.027   9.860  18.760  0.00  0.00    +0.245 A 
ATOM     18  C   UNL     1     -12.070   8.694  20.112  0.00  0.00    +0.204 A 
ENDROOT
BRANCH  18  21
ATOM      7  N   UNL     1     -14.763   6.384  21.229  0.00  0.00    -0.240 NA
ATOM     21  C   UNL     1     -12.715   7.550  20.691  0.00  0.00    +0.041 A 
ATOM     23  C   UNL     1     -11.972   6.523  21.264  0.00  0.00    +0.016 A 
ATOM     24  C   UNL     1     -14.094   7.434  20.699  0.00  0.00    +0.124 A 
ATOM     25  C   UNL     1     -12.623   5.427  21.818  0.00  0.00    +0.044 A 
ATOM     26  C   UNL     1     -14.007   5.405  21.776  0.00  0.00    +0.119 A 
BRANCH  26   8
ATOM      8  N   UNL     1     -14.657   4.282  22.344  0.00  0.00    -0.327 N 
ATOM     30  H   UNL     1     -14.319   3.371  22.055  0.00  0.00    +0.148 HD
BRANCH   8  27
ATOM     27  C   UNL     1     -15.733   4.401  23.272  0.00  0.00    +0.131 C 
BRANCH  27  28
ATOM     28  C   UNL     1     -15.396   3.667  24.558  0.00  0.00    +0.178 C 
BRANCH  28   3
ATOM      3  O   UNL     1     -16.351   4.002  25.558  0.00  0.00    -0.381 OA
ATOM     29  C   UNL     1     -16.169   3.224  26.733  0.00  0.00    +0.194 C 
ENDBRANCH  28   3
ENDBRANCH  27  28
ENDBRANCH   8  27
ENDBRANCH  26   8
ENDBRANCH  18  21
BRANCH  14   9
ATOM      4  N   UNL     1     -10.958  10.372  16.326  0.00  0.00    -0.287 NA
ATOM      9  C   UNL     1     -10.254  10.487  17.618  0.00  0.00    +0.146 C 
ATOM     10  C   UNL     1     -10.032  11.999  17.809  0.00  0.00    +0.030 C 
ATOM     11  C   UNL     1     -10.589  12.645  16.549  0.00  0.00    +0.017 C 
ATOM     12  C   UNL     1     -10.547  11.526  15.527  0.00  0.00    +0.085 C 
BRANCH   4  13
ATOM     13  C   UNL     1     -10.699   9.112  15.641  0.00  0.00    +0.123 C 
BRANCH  13  15
ATOM      1  F   UNL     1     -10.813   7.759  13.155  0.00  0.00    -0.205 F 
ATOM     15  C   UNL     1     -11.962   8.500  15.096  0.00  0.00    +0.002 A 
ATOM     16  C   UNL     1     -11.948   7.846  13.864  0.00  0.00    +0.128 A 
ATOM     17  C   UNL     1     -13.147   8.585  15.826  0.00  0.00    +0.008 A 
ATOM     19  C   UNL     1     -13.119   7.280  13.361  0.00  0.00    +0.038 A 
ATOM     20  C   UNL     1     -14.319   8.020  15.324  0.00  0.00    +0.000 A 
ATOM     22  C   UNL     1     -14.305   7.366  14.091  0.00  0.00    +0.003 A 
ENDBRANCH  13  15
ENDBRANCH   4  13
ENDBRANCH  14   9
TORSDOF 8
ENDMDL
MODEL 7
REMARK VINA RESULT:      -6.2      2.997      8.889
REMARK  Name = 45783477
REMARK  9 active torsions:
REMARK  status: ('A' for Active; 'I' for Inactive)
REMARK    1  A    between atoms: O_3  and  C_28
REMARK    2  A    between atoms: O_3  and  C_29
REMARK    3  A    between atoms: N_4  and  C_13
REMARK    4  A    between atoms: N_8  and  C_26
REMARK    5  A    between atoms: N_8  and  C_27
REMARK    6  A    between atoms: C_9  and  C_14
REMARK    7  A    between atoms: C_13  and  C_15
REMARK    8  A    between atoms: C_18  and  C_21
REMARK    9  A    between atoms: C_27  and  C_28
REMARK                            x       y       z     vdW  Elec       q    Type
REMARK                         _______ _______ _______ _____ _____    ______ ____
ROOT
ATOM      2  O   UNL     1      -7.159 -10.759  19.976  0.00  0.00    -0.336 OA
ATOM      5  N   UNL     1      -7.384 -11.419  17.848  0.00  0.00    -0.190 NA
ATOM      6  N   UNL     1      -5.934 -10.487  19.352  0.00  0.00    -0.056 NA
ATOM     14  C   UNL     1      -7.955 -11.306  19.021  0.00  0.00    +0.245 A 
ATOM     18  C   UNL     1      -6.146 -10.904  18.101  0.00  0.00    +0.204 A 
ENDROOT
BRANCH  18  21
ATOM      7  N   UNL     1      -4.571 -10.384  14.772  0.00  0.00    -0.240 NA
ATOM     21  C   UNL     1      -5.141 -10.820  17.080  0.00  0.00    +0.041 A 
ATOM     23  C   UNL     1      -3.805 -11.079  17.369  0.00  0.00    +0.016 A 
ATOM     24  C   UNL     1      -5.469 -10.480  15.779  0.00  0.00    +0.124 A 
ATOM     25  C   UNL     1      -2.853 -10.990  16.361  0.00  0.00    +0.044 A 
ATOM     26  C   UNL     1      -3.282 -10.642  15.090  0.00  0.00    +0.119 A 
BRANCH  26   8
ATOM      8  N   UNL     1      -2.300 -10.555  14.074  0.00  0.00    -0.327 N 
ATOM     30  H   UNL     1      -1.400 -10.175  14.345  0.00  0.00    +0.148 HD
BRANCH   8  27
ATOM     27  C   UNL     1      -2.542 -10.970  12.730  0.00  0.00    +0.131 C 
BRANCH  27  28
ATOM     28  C   UNL     1      -1.742 -10.109  11.768  0.00  0.00    +0.178 C 
BRANCH  28   3
ATOM      3  O   UNL     1      -2.571  -9.723  10.678  0.00  0.00    -0.381 OA
ATOM     29  C   UNL     1      -3.948  -9.796  11.020  0.00  0.00    +0.194 C 
ENDBRANCH  28   3
ENDBRANCH  27  28
ENDBRANCH   8  27
ENDBRANCH  26   8
ENDBRANCH  18  21
BRANCH  14   9
ATOM      4  N   UNL     1     -10.395 -11.131  18.564  0.00  0.00    -0.287 NA
ATOM      9  C   UNL     1      -9.355 -11.693  19.449  0.00  0.00    +0.146 C 
ATOM     10  C   UNL     1      -9.589 -13.214  19.409  0.00  0.00    +0.030 C 
ATOM     11  C   UNL     1     -10.815 -13.405  18.528  0.00  0.00    +0.017 C 
ATOM     12  C   UNL     1     -11.519 -12.065  18.602  0.00  0.00    +0.085 C 
BRANCH   4  13
ATOM     13  C   UNL     1     -10.793  -9.778  18.933  0.00  0.00    +0.123 C 
BRANCH  13  15
ATOM      1  F   UNL     1      -8.649  -8.389  17.711  0.00  0.00    -0.205 F 
ATOM     15  C   UNL     1     -10.968  -8.896  17.726  0.00  0.00    +0.002 A 
ATOM     16  C   UNL     1      -9.868  -8.240  17.174  0.00  0.00    +0.128 A 
ATOM     17  C   UNL     1     -12.232  -8.735  17.159  0.00  0.00    +0.008 A 
ATOM     19  C   UNL     1     -10.032  -7.423  16.056  0.00  0.00    +0.038 A 
ATOM     20  C   UNL     1     -12.398  -7.919  16.041  0.00  0.00    +0.000 A 
ATOM     22  C   UNL     1     -11.297  -7.262  15.489  0.00  0.00    +0.003 A 
ENDBRANCH  13  15
ENDBRANCH   4  13
ENDBRANCH  14   9
TORSDOF 8
ENDMDL
MODEL 8
REMARK VINA RESULT:      -6.2      3.425     10.291
REMARK  Name = 45783477
REMARK  9 active torsions:
REMARK  status: ('A' for Active; 'I' for Inactive)
REMARK    1  A    between atoms: O_3  and  C_28
REMARK    2  A    between atoms: O_3  and  C_29
REMARK    3  A    between atoms: N_4  and  C_13
REMARK    4  A    between atoms: N_8  and  C_26
REMARK    5  A    between atoms: N_8  and  C_27
REMARK    6  A    between atoms: C_9  and  C_14
REMARK    7  A    between atoms: C_13  and  C_15
REMARK    8  A    between atoms: C_18  and  C_21
REMARK    9  A    between atoms: C_27  and  C_28
REMARK                            x       y       z     vdW  Elec       q    Type
REMARK                         _______ _______ _______ _____ _____    ______ ____
ROOT
ATOM      2  O   UNL     1      -9.137 -10.980  20.295  0.00  0.00    -0.336 OA
ATOM      5  N   UNL     1      -8.965 -10.852  18.066  0.00  0.00    -0.190 NA
ATOM      6  N   UNL     1      -7.769 -10.860  20.016  0.00  0.00    -0.056 NA
ATOM     14  C   UNL     1      -9.768 -10.967  19.093  0.00  0.00    +0.245 A 
ATOM     18  C   UNL     1      -7.750 -10.789  18.682  0.00  0.00    +0.204 A 
ENDROOT
BRANCH  18  21
ATOM      7  N   UNL     1      -5.377  -9.778  16.002  0.00  0.00    -0.240 NA
ATOM     21  C   UNL     1      -6.531 -10.657  17.935  0.00  0.00    +0.041 A 
ATOM     23  C   UNL     1      -5.353 -11.247  18.379  0.00  0.00    +0.016 A 
ATOM     24  C   UNL     1      -6.491  -9.940  16.752  0.00  0.00    +0.124 A 
ATOM     25  C   UNL     1      -4.187 -11.103  17.636  0.00  0.00    +0.044 A 
ATOM     26  C   UNL     1      -4.251 -10.365  16.464  0.00  0.00    +0.119 A 
BRANCH  26   8
ATOM      8  N   UNL     1      -3.055 -10.226  15.718  0.00  0.00    -0.327 N 
ATOM     30  H   UNL     1      -2.299  -9.723  16.166  0.00  0.00    +0.148 HD
BRANCH   8  27
ATOM     27  C   UNL     1      -2.902 -10.756  14.402  0.00  0.00    +0.131 C 
BRANCH  27  28
ATOM     28  C   UNL     1      -1.776 -11.774  14.379  0.00  0.00    +0.178 C 
BRANCH  28   3
ATOM      3  O   UNL     1      -1.935 -12.629  13.253  0.00  0.00    -0.381 OA
ATOM     29  C   UNL     1      -1.519 -13.957  13.544  0.00  0.00    +0.194 C 
ENDBRANCH  28   3
ENDBRANCH  27  28
ENDBRANCH   8  27
ENDBRANCH  26   8
ENDBRANCH  18  21
BRANCH  14   9
ATOM      4  N   UNL     1     -11.769 -11.791  20.323  0.00  0.00    -0.287 NA
ATOM      9  C   UNL     1     -11.278 -11.085  19.123  0.00  0.00    +0.146 C 
ATOM     10  C   UNL     1     -11.981  -9.715  19.161  0.00  0.00    +0.030 C 
ATOM     11  C   UNL     1     -12.889  -9.768  20.381  0.00  0.00    +0.017 C 
ATOM     12  C   UNL     1     -13.099 -11.253  20.605  0.00  0.00    +0.085 C 
BRANCH   4  13
ATOM     13  C   UNL     1     -11.786 -13.240  20.169  0.00  0.00    +0.123 C 
BRANCH  13  15
ATOM      1  F   UNL     1      -9.119 -14.145  19.863  0.00  0.00    -0.205 F 
ATOM     15  C   UNL     1     -11.021 -13.930  21.268  0.00  0.00    +0.002 A 
ATOM     16  C   UNL     1      -9.709 -14.350  21.049  0.00  0.00    +0.128 A 
ATOM     17  C   UNL     1     -11.626 -14.148  22.505  0.00  0.00    +0.008 A 
ATOM     19  C   UNL     1      -9.003 -14.989  22.068  0.00  0.00    +0.038 A 
ATOM     20  C   UNL     1     -10.921 -14.786  23.525  0.00  0.00    +0.000 A 
ATOM     22  C   UNL     1      -9.609 -15.207  23.306  0.00  0.00    +0.003 A 
ENDBRANCH  13  15
ENDBRANCH   4  13
ENDBRANCH  14   9
TORSDOF 8
ENDMDL
MODEL 9
REMARK VINA RESULT:      -6.0     28.538     32.269
REMARK  Name = 45783477
REMARK  9 active torsions:
REMARK  status: ('A' for Active; 'I' for Inactive)
REMARK    1  A    between atoms: O_3  and  C_28
REMARK    2  A    between atoms: O_3  and  C_29
REMARK    3  A    between atoms: N_4  and  C_13
REMARK    4  A    between atoms: N_8  and  C_26
REMARK    5  A    between atoms: N_8  and  C_27
REMARK    6  A    between atoms: C_9  and  C_14
REMARK    7  A    between atoms: C_13  and  C_15
REMARK    8  A    between atoms: C_18  and  C_21
REMARK    9  A    between atoms: C_27  and  C_28
REMARK                            x       y       z     vdW  Elec       q    Type
REMARK                         _______ _______ _______ _____ _____    ______ ____
ROOT
ATOM      2  O   UNL     1      21.045   8.116  22.909  0.00  0.00    -0.336 OA
ATOM      5  N   UNL     1      20.566   7.746  20.752  0.00  0.00    -0.190 NA
ATOM      6  N   UNL     1      19.672   7.840  22.856  0.00  0.00    -0.056 NA
ATOM     14  C   UNL     1      21.493   8.040  21.629  0.00  0.00    +0.245 A 
ATOM     18  C   UNL     1      19.467   7.633  21.552  0.00  0.00    +0.204 A 
ENDROOT
BRANCH  18  21
ATOM      7  N   UNL     1      15.794   7.730  20.975  0.00  0.00    -0.240 NA
ATOM     21  C   UNL     1      18.174   7.312  21.018  0.00  0.00    +0.041 A 
ATOM     23  C   UNL     1      18.024   6.314  20.061  0.00  0.00    +0.016 A 
ATOM     24  C   UNL     1      17.039   7.984  21.438  0.00  0.00    +0.124 A 
ATOM     25  C   UNL     1      16.760   6.024  19.561  0.00  0.00    +0.044 A 
ATOM     26  C   UNL     1      15.686   6.753  20.046  0.00  0.00    +0.119 A 
BRANCH  26   8
ATOM      8  N   UNL     1      14.405   6.447  19.526  0.00  0.00    -0.327 N 
ATOM     30  H   UNL     1      14.115   5.478  19.578  0.00  0.00    +0.148 HD
BRANCH   8  27
ATOM     27  C   UNL     1      13.551   7.434  18.950  0.00  0.00    +0.131 C 
BRANCH  27  28
ATOM     28  C   UNL     1      12.292   7.586  19.786  0.00  0.00    +0.178 C 
BRANCH  28   3
ATOM      3  O   UNL     1      11.800   6.299  20.138  0.00  0.00    -0.381 OA
ATOM     29  C   UNL     1      11.306   6.276  21.470  0.00  0.00    +0.194 C 
ENDBRANCH  28   3
ENDBRANCH  27  28
ENDBRANCH   8  27
ENDBRANCH  26   8
ENDBRANCH  18  21
BRANCH  14   9
ATOM      4  N   UNL     1      23.686   7.119  20.897  0.00  0.00    -0.287 NA
ATOM      9  C   UNL     1      22.969   8.302  21.414  0.00  0.00    +0.146 C 
ATOM     10  C   UNL     1      23.232   9.405  20.371  0.00  0.00    +0.030 C 
ATOM     11  C   UNL     1      24.153   8.766  19.341  0.00  0.00    +0.017 C 
ATOM     12  C   UNL     1      24.802   7.627  20.101  0.00  0.00    +0.085 C 
BRANCH   4  13
ATOM     13  C   UNL     1      24.129   6.212  21.948  0.00  0.00    +0.123 C 
BRANCH  13  15
ATOM      1  F   UNL     1      21.688   4.778  22.013  0.00  0.00    -0.205 F 
ATOM     15  C   UNL     1      24.013   4.770  21.531  0.00  0.00    +0.002 A 
ATOM     16  C   UNL     1      22.778   4.124  21.588  0.00  0.00    +0.128 A 
ATOM     17  C   UNL     1      25.141   4.082  21.086  0.00  0.00    +0.008 A 
ATOM     19  C   UNL     1      22.672   2.788  21.202  0.00  0.00    +0.038 A 
ATOM     20  C   UNL     1      25.036   2.746  20.700  0.00  0.00    +0.000 A 
ATOM     22  C   UNL     1      23.801   2.099  20.757  0.00  0.00    +0.003 A 
ENDBRANCH  13  15
ENDBRANCH   4  13
ENDBRANCH  14   9
TORSDOF 8
ENDMDL
MODEL 10
REMARK VINA RESULT:      -6.0     27.964     31.539
REMARK  Name = 45783477
REMARK  9 active torsions:
REMARK  status: ('A' for Active; 'I' for Inactive)
REMARK    1  A    between atoms: O_3  and  C_28
REMARK    2  A    between atoms: O_3  and  C_29
REMARK    3  A    between atoms: N_4  and  C_13
REMARK    4  A    between atoms: N_8  and  C_26
REMARK    5  A    between atoms: N_8  and  C_27
REMARK    6  A    between atoms: C_9  and  C_14
REMARK    7  A    between atoms: C_13  and  C_15
REMARK    8  A    between atoms: C_18  and  C_21
REMARK    9  A    between atoms: C_27  and  C_28
REMARK                            x       y       z     vdW  Elec       q    Type
REMARK                         _______ _______ _______ _____ _____    ______ ____
ROOT
ATOM      2  O   UNL     1      19.895   6.443  21.887  0.00  0.00    -0.336 OA
ATOM      5  N   UNL     1      18.922   5.568  20.069  0.00  0.00    -0.190 NA
ATOM      6  N   UNL     1      18.577   6.919  21.884  0.00  0.00    -0.056 NA
ATOM     14  C   UNL     1      20.014   5.656  20.786  0.00  0.00    +0.245 A 
ATOM     18  C   UNL     1      18.069   6.359  20.782  0.00  0.00    +0.204 A 
ENDROOT
BRANCH  18  21
ATOM      7  N   UNL     1      14.410   7.002  20.967  0.00  0.00    -0.240 NA
ATOM     21  C   UNL     1      16.712   6.572  20.366  0.00  0.00    +0.041 A 
ATOM     23  C   UNL     1      16.366   6.560  19.019  0.00  0.00    +0.016 A 
ATOM     24  C   UNL     1      15.707   6.795  21.292  0.00  0.00    +0.124 A 
ATOM     25  C   UNL     1      15.044   6.770  18.646  0.00  0.00    +0.044 A 
ATOM     26  C   UNL     1      14.111   6.984  19.648  0.00  0.00    +0.119 A 
BRANCH  26   8
ATOM      8  N   UNL     1      12.768   7.196  19.251  0.00  0.00    -0.327 N 
ATOM     30  H   UNL     1      12.202   6.368  19.111  0.00  0.00    +0.148 HD
BRANCH   8  27
ATOM     27  C   UNL     1      12.221   8.498  19.049  0.00  0.00    +0.131 C 
BRANCH  27  28
ATOM     28  C   UNL     1      11.373   8.898  20.243  0.00  0.00    +0.178 C 
BRANCH  28   3
ATOM      3  O   UNL     1      10.574   7.793  20.647  0.00  0.00    -0.381 OA
ATOM     29  C   UNL     1      10.611   7.610  22.056  0.00  0.00    +0.194 C 
ENDBRANCH  28   3
ENDBRANCH  27  28
ENDBRANCH   8  27
ENDBRANCH  26   8
ENDBRANCH  18  21
BRANCH  14   9
ATOM      4  N   UNL     1      22.458   5.728  21.249  0.00  0.00    -0.287 NA
ATOM      9  C   UNL     1      21.365   5.012  20.560  0.00  0.00    +0.146 C 
ATOM     10  C   UNL     1      21.437   3.573  21.104  0.00  0.00    +0.030 C 
ATOM     11  C   UNL     1      22.635   3.562  22.043  0.00  0.00    +0.017 C 
ATOM     12  C   UNL     1      23.477   4.726  21.560  0.00  0.00    +0.085 C 
BRANCH   4  13
ATOM     13  C   UNL     1      22.998   6.836  20.471  0.00  0.00    +0.123 C 
BRANCH  13  15
ATOM      1  F   UNL     1      24.379   7.692  22.791  0.00  0.00    -0.205 F 
ATOM     15  C   UNL     1      22.744   8.163  21.135  0.00  0.00    +0.002 A 
ATOM     16  C   UNL     1      23.461   8.523  22.276  0.00  0.00    +0.128 A 
ATOM     17  C   UNL     1      21.792   9.034  20.606  0.00  0.00    +0.008 A 
ATOM     19  C   UNL     1      23.224   9.753  22.889  0.00  0.00    +0.038 A 
ATOM     20  C   UNL     1      21.554  10.264  21.219  0.00  0.00    +0.000 A 
ATOM     22  C   UNL     1      22.271  10.624  22.361  0.00  0.00    +0.003 A 
ENDBRANCH  13  15
ENDBRANCH   4  13
ENDBRANCH  14   9
TORSDOF 8
ENDMDL
