MODEL 1
REMARK VINA RESULT:      -6.3      0.000      0.000
REMARK  Name = 26743096
REMARK  8 active torsions:
REMARK  status: ('A' for Active; 'I' for Inactive)
REMARK    1  A    between atoms: S_1  and  C_21
REMARK    2  A    between atoms: S_1  and  C_22
REMARK    3  A    between atoms: N_4  and  C_9
REMARK    4  A    between atoms: C_7  and  C_13
REMARK    5  A    between atoms: C_8  and  C_16
REMARK    6  A    between atoms: C_13  and  C_17
REMARK    7  A    between atoms: C_16  and  C_18
REMARK    8  A    between atoms: C_20  and  C_21
REMARK                            x       y       z     vdW  Elec       q    Type
REMARK                         _______ _______ _______ _____ _____    ______ ____
ROOT
ATOM      5  N   UNL     1      10.086   8.134  22.309  0.00  0.00    -0.316 NA
ATOM      7  C   UNL     1      12.656   8.992  21.140  0.00  0.00    +0.004 C 
ATOM      8  C   UNL     1      11.715   7.984  20.440  0.00  0.00    +0.012 C 
ATOM     10  C   UNL     1      11.830   9.870  22.095  0.00  0.00    +0.019 C 
ATOM     14  C   UNL     1      10.845   7.220  21.454  0.00  0.00    +0.085 C 
ATOM     15  C   UNL     1      10.962   9.045  23.043  0.00  0.00    +0.081 C 
ATOM     29  H   UNL     1       9.530   7.592  22.970  0.00  0.00    +0.122 HD
ENDROOT
BRANCH   7  13
ATOM     13  C   UNL     1      13.831   8.340  21.879  0.00  0.00    +0.099 C 
BRANCH  13  17
ATOM      2  O   UNL     1      15.414   9.700  20.651  0.00  0.00    -0.276 OA
ATOM      4  N   UNL     1      16.037   7.574  21.341  0.00  0.00    -0.312 N 
ATOM     17  C   UNL     1      15.159   8.642  21.219  0.00  0.00    +0.214 C 
ATOM     28  H   UNL     1      15.741   6.723  21.812  0.00  0.00    +0.149 HD
BRANCH   4   9
ATOM      9  C   UNL     1      17.366   7.602  20.801  0.00  0.00    +0.073 C 
ATOM     11  C   UNL     1      18.458   6.752  21.383  0.00  0.00    +0.024 C 
ATOM     12  C   UNL     1      17.913   6.443  20.020  0.00  0.00    +0.024 C 
ENDBRANCH   4   9
ENDBRANCH  13  17
ENDBRANCH   7  13
BRANCH   8  16
ATOM     16  C   UNL     1      12.456   7.006  19.526  0.00  0.00    +0.064 C 
BRANCH  16  18
ATOM      3  O   UNL     1      12.420   8.369  16.194  0.00  0.00    -0.359 OA
ATOM      6  N   UNL     1      11.803   7.763  17.281  0.00  0.00    -0.083 NA
ATOM     18  C   UNL     1      12.767   7.630  18.197  0.00  0.00    +0.084 A 
ATOM     19  C   UNL     1      14.002   8.131  17.748  0.00  0.00    +0.071 A 
ATOM     20  C   UNL     1      13.729   8.583  16.484  0.00  0.00    +0.148 A 
BRANCH  20  21
ATOM     21  C   UNL     1      14.536   9.221  15.436  0.00  0.00    +0.151 C 
BRANCH  21   1
ATOM      1  S   UNL     1      14.158  10.997  15.217  0.00  0.00    -0.117 S 
BRANCH   1  22
ATOM     22  C   UNL     1      15.417  11.743  16.243  0.00  0.00    +0.008 A 
ATOM     23  C   UNL     1      16.548  12.310  15.657  0.00  0.00    +0.015 A 
ATOM     24  C   UNL     1      15.267  11.759  17.629  0.00  0.00    +0.015 A 
ATOM     25  C   UNL     1      17.531  12.893  16.458  0.00  0.00    +0.001 A 
ATOM     26  C   UNL     1      16.249  12.341  18.431  0.00  0.00    +0.001 A 
ATOM     27  C   UNL     1      17.381  12.908  17.844  0.00  0.00    +0.000 A 
ENDBRANCH   1  22
ENDBRANCH  21   1
ENDBRANCH  20  21
ENDBRANCH  16  18
ENDBRANCH   8  16
TORSDOF 8
ENDMDL
MODEL 2
REMARK VINA RESULT:      -6.2     26.972     28.702
REMARK  Name = 26743096
REMARK  8 active torsions:
REMARK  status: ('A' for Active; 'I' for Inactive)
REMARK    1  A    between atoms: S_1  and  C_21
REMARK    2  A    between atoms: S_1  and  C_22
REMARK    3  A    between atoms: N_4  and  C_9
REMARK    4  A    between atoms: C_7  and  C_13
REMARK    5  A    between atoms: C_8  and  C_16
REMARK    6  A    between atoms: C_13  and  C_17
REMARK    7  A    between atoms: C_16  and  C_18
REMARK    8  A    between atoms: C_20  and  C_21
REMARK                            x       y       z     vdW  Elec       q    Type
REMARK                         _______ _______ _______ _____ _____    ______ ____
ROOT
ATOM      5  N   UNL     1      -6.993 -11.417  20.020  0.00  0.00    -0.316 NA
ATOM      7  C   UNL     1      -7.270 -11.121  17.097  0.00  0.00    +0.004 C 
ATOM      8  C   UNL     1      -5.945 -10.841  17.843  0.00  0.00    +0.012 C 
ATOM     10  C   UNL     1      -8.118 -12.098  17.930  0.00  0.00    +0.019 C 
ATOM     14  C   UNL     1      -6.191 -10.424  19.304  0.00  0.00    +0.085 C 
ATOM     15  C   UNL     1      -8.286 -11.638  19.377  0.00  0.00    +0.081 C 
ATOM     29  H   UNL     1      -7.141 -11.101  20.979  0.00  0.00    +0.122 HD
ENDROOT
BRANCH   7  13
ATOM     13  C   UNL     1      -8.072  -9.860  16.754  0.00  0.00    +0.099 C 
BRANCH  13  17
ATOM      2  O   UNL     1      -9.688 -10.046  14.961  0.00  0.00    -0.276 OA
ATOM      4  N   UNL     1      -7.472  -9.584  14.450  0.00  0.00    -0.312 N 
ATOM     17  C   UNL     1      -8.529  -9.847  15.312  0.00  0.00    +0.214 C 
ATOM     28  H   UNL     1      -6.536  -9.448  14.821  0.00  0.00    +0.149 HD
BRANCH   4   9
ATOM      9  C   UNL     1      -7.635  -9.516  13.027  0.00  0.00    +0.073 C 
ATOM     11  C   UNL     1      -6.500  -9.110  12.134  0.00  0.00    +0.024 C 
ATOM     12  C   UNL     1      -6.993 -10.526  12.122  0.00  0.00    +0.024 C 
ENDBRANCH   4   9
ENDBRANCH  13  17
ENDBRANCH   7  13
BRANCH   8  16
ATOM     16  C   UNL     1      -5.062  -9.813  17.133  0.00  0.00    +0.064 C 
BRANCH  16  18
ATOM      3  O   UNL     1      -2.319 -11.549  15.576  0.00  0.00    -0.359 OA
ATOM      6  N   UNL     1      -2.975 -11.031  16.685  0.00  0.00    -0.083 NA
ATOM     18  C   UNL     1      -4.091 -10.477  16.201  0.00  0.00    +0.084 A 
ATOM     19  C   UNL     1      -4.192 -10.614  14.805  0.00  0.00    +0.071 A 
ATOM     20  C   UNL     1      -3.054 -11.294  14.462  0.00  0.00    +0.148 A 
BRANCH  20  21
ATOM     21  C   UNL     1      -2.503 -11.776  13.190  0.00  0.00    +0.151 C 
BRANCH  21   1
ATOM      1  S   UNL     1      -1.800 -10.441  12.157  0.00  0.00    -0.117 S 
BRANCH   1  22
ATOM     22  C   UNL     1      -3.002 -10.362  10.836  0.00  0.00    +0.008 A 
ATOM     23  C   UNL     1      -3.258  -9.148  10.199  0.00  0.00    +0.015 A 
ATOM     24  C   UNL     1      -3.683 -11.514  10.444  0.00  0.00    +0.015 A 
ATOM     25  C   UNL     1      -4.196  -9.086   9.169  0.00  0.00    +0.001 A 
ATOM     26  C   UNL     1      -4.621 -11.452   9.413  0.00  0.00    +0.001 A 
ATOM     27  C   UNL     1      -4.877 -10.237   8.776  0.00  0.00    +0.000 A 
ENDBRANCH   1  22
ENDBRANCH  21   1
ENDBRANCH  20  21
ENDBRANCH  16  18
ENDBRANCH   8  16
TORSDOF 8
ENDMDL
MODEL 3
REMARK VINA RESULT:      -6.1      3.292      5.962
REMARK  Name = 26743096
REMARK  8 active torsions:
REMARK  status: ('A' for Active; 'I' for Inactive)
REMARK    1  A    between atoms: S_1  and  C_21
REMARK    2  A    between atoms: S_1  and  C_22
REMARK    3  A    between atoms: N_4  and  C_9
REMARK    4  A    between atoms: C_7  and  C_13
REMARK    5  A    between atoms: C_8  and  C_16
REMARK    6  A    between atoms: C_13  and  C_17
REMARK    7  A    between atoms: C_16  and  C_18
REMARK    8  A    between atoms: C_20  and  C_21
REMARK                            x       y       z     vdW  Elec       q    Type
REMARK                         _______ _______ _______ _____ _____    ______ ____
ROOT
ATOM      5  N   UNL     1      14.016   8.460  15.967  0.00  0.00    -0.316 NA
ATOM      7  C   UNL     1      13.123   9.037  18.720  0.00  0.00    +0.004 C 
ATOM      8  C   UNL     1      14.301   8.085  18.406  0.00  0.00    +0.012 C 
ATOM     10  C   UNL     1      12.952  10.025  17.554  0.00  0.00    +0.019 C 
ATOM     14  C   UNL     1      14.159   7.446  17.013  0.00  0.00    +0.085 C 
ATOM     15  C   UNL     1      12.860   9.322  16.201  0.00  0.00    +0.081 C 
ATOM     29  H   UNL     1      13.917   7.999  15.063  0.00  0.00    +0.122 HD
ENDROOT
BRANCH   7  13
ATOM     13  C   UNL     1      11.803   8.319  19.023  0.00  0.00    +0.099 C 
BRANCH  13  17
ATOM      2  O   UNL     1      10.573   7.901  21.066  0.00  0.00    -0.276 OA
ATOM      4  N   UNL     1      11.668   9.929  20.793  0.00  0.00    -0.312 N 
ATOM     17  C   UNL     1      11.269   8.660  20.397  0.00  0.00    +0.214 C 
ATOM     28  H   UNL     1      12.232  10.502  20.170  0.00  0.00    +0.149 HD
BRANCH   4   9
ATOM      9  C   UNL     1      11.297  10.496  22.057  0.00  0.00    +0.073 C 
ATOM     11  C   UNL     1      12.306  11.195  22.920  0.00  0.00    +0.024 C 
ATOM     12  C   UNL     1      11.219  11.982  22.250  0.00  0.00    +0.024 C 
ENDBRANCH   4   9
ENDBRANCH  13  17
ENDBRANCH   7  13
BRANCH   8  16
ATOM     16  C   UNL     1      14.501   7.006  19.472  0.00  0.00    +0.064 C 
BRANCH  16  18
ATOM      3  O   UNL     1      17.842   5.691  19.198  0.00  0.00    -0.359 OA
ATOM      6  N   UNL     1      16.519   5.786  18.782  0.00  0.00    -0.083 NA
ATOM     18  C   UNL     1      15.952   6.653  19.626  0.00  0.00    +0.084 A 
ATOM     19  C   UNL     1      16.859   7.134  20.587  0.00  0.00    +0.071 A 
ATOM     20  C   UNL     1      18.031   6.499  20.273  0.00  0.00    +0.148 A 
BRANCH  20  21
ATOM     21  C   UNL     1      19.383   6.521  20.845  0.00  0.00    +0.151 C 
BRANCH  21   1
ATOM      1  S   UNL     1      19.549   7.668  22.259  0.00  0.00    -0.117 S 
BRANCH   1  22
ATOM     22  C   UNL     1      19.948   9.193  21.417  0.00  0.00    +0.008 A 
ATOM     23  C   UNL     1      18.953  10.142  21.184  0.00  0.00    +0.015 A 
ATOM     24  C   UNL     1      21.255   9.433  20.992  0.00  0.00    +0.015 A 
ATOM     25  C   UNL     1      19.265  11.332  20.526  0.00  0.00    +0.001 A 
ATOM     26  C   UNL     1      21.567  10.624  20.335  0.00  0.00    +0.001 A 
ATOM     27  C   UNL     1      20.571  11.573  20.102  0.00  0.00    +0.000 A 
ENDBRANCH   1  22
ENDBRANCH  21   1
ENDBRANCH  20  21
ENDBRANCH  16  18
ENDBRANCH   8  16
TORSDOF 8
ENDMDL
MODEL 4
REMARK VINA RESULT:      -5.8     26.665     29.116
REMARK  Name = 26743096
REMARK  8 active torsions:
REMARK  status: ('A' for Active; 'I' for Inactive)
REMARK    1  A    between atoms: S_1  and  C_21
REMARK    2  A    between atoms: S_1  and  C_22
REMARK    3  A    between atoms: N_4  and  C_9
REMARK    4  A    between atoms: C_7  and  C_13
REMARK    5  A    between atoms: C_8  and  C_16
REMARK    6  A    between atoms: C_13  and  C_17
REMARK    7  A    between atoms: C_16  and  C_18
REMARK    8  A    between atoms: C_20  and  C_21
REMARK                            x       y       z     vdW  Elec       q    Type
REMARK                         _______ _______ _______ _____ _____    ______ ____
ROOT
ATOM      5  N   UNL     1      -6.799 -13.526  18.233  0.00  0.00    -0.316 NA
ATOM      7  C   UNL     1      -6.917 -10.948  16.803  0.00  0.00    +0.004 C 
ATOM      8  C   UNL     1      -5.583 -11.628  17.191  0.00  0.00    +0.012 C 
ATOM     10  C   UNL     1      -8.015 -12.020  16.700  0.00  0.00    +0.019 C 
ATOM     14  C   UNL     1      -5.744 -12.531  18.427  0.00  0.00    +0.085 C 
ATOM     15  C   UNL     1      -8.088 -12.902  17.945  0.00  0.00    +0.081 C 
ATOM     29  H   UNL     1      -6.880 -14.098  19.074  0.00  0.00    +0.122 HD
ENDROOT
BRANCH   7  13
ATOM     13  C   UNL     1      -7.342  -9.821  17.752  0.00  0.00    +0.099 C 
BRANCH  13  17
ATOM      2  O   UNL     1      -8.883  -8.546  16.388  0.00  0.00    -0.276 OA
ATOM      4  N   UNL     1      -9.663  -9.595  18.305  0.00  0.00    -0.312 N 
ATOM     17  C   UNL     1      -8.690  -9.240  17.381  0.00  0.00    +0.214 C 
ATOM     28  H   UNL     1      -9.416 -10.161  19.112  0.00  0.00    +0.149 HD
BRANCH   4   9
ATOM      9  C   UNL     1     -11.029  -9.174  18.187  0.00  0.00    +0.073 C 
ATOM     11  C   UNL     1     -12.087 -10.106  17.673  0.00  0.00    +0.024 C 
ATOM     12  C   UNL     1     -12.086  -9.695  19.115  0.00  0.00    +0.024 C 
ENDBRANCH   4   9
ENDBRANCH  13  17
ENDBRANCH   7  13
BRANCH   8  16
ATOM     16  C   UNL     1      -4.440 -10.632  17.398  0.00  0.00    +0.064 C 
BRANCH  16  18
ATOM      3  O   UNL     1      -1.545 -10.821  15.267  0.00  0.00    -0.359 OA
ATOM      6  N   UNL     1      -2.153 -10.805  16.516  0.00  0.00    -0.083 NA
ATOM     18  C   UNL     1      -3.460 -10.682  16.263  0.00  0.00    +0.084 A 
ATOM     19  C   UNL     1      -3.733 -10.617  14.885  0.00  0.00    +0.071 A 
ATOM     20  C   UNL     1      -2.495 -10.709  14.304  0.00  0.00    +0.148 A 
BRANCH  20  21
ATOM     21  C   UNL     1      -2.023 -10.709  12.915  0.00  0.00    +0.151 C 
BRANCH  21   1
ATOM      1  S   UNL     1      -2.770 -12.035  11.900  0.00  0.00    -0.117 S 
BRANCH   1  22
ATOM     22  C   UNL     1      -3.486 -11.083  10.567  0.00  0.00    +0.008 A 
ATOM     23  C   UNL     1      -3.303  -9.701  10.521  0.00  0.00    +0.015 A 
ATOM     24  C   UNL     1      -4.228 -11.723   9.575  0.00  0.00    +0.015 A 
ATOM     25  C   UNL     1      -3.863  -8.959   9.481  0.00  0.00    +0.001 A 
ATOM     26  C   UNL     1      -4.788 -10.981   8.535  0.00  0.00    +0.001 A 
ATOM     27  C   UNL     1      -4.604  -9.598   8.489  0.00  0.00    +0.000 A 
ENDBRANCH   1  22
ENDBRANCH  21   1
ENDBRANCH  20  21
ENDBRANCH  16  18
ENDBRANCH   8  16
TORSDOF 8
ENDMDL
MODEL 5
REMARK VINA RESULT:      -5.8     27.123     31.119
REMARK  Name = 26743096
REMARK  8 active torsions:
REMARK  status: ('A' for Active; 'I' for Inactive)
REMARK    1  A    between atoms: S_1  and  C_21
REMARK    2  A    between atoms: S_1  and  C_22
REMARK    3  A    between atoms: N_4  and  C_9
REMARK    4  A    between atoms: C_7  and  C_13
REMARK    5  A    between atoms: C_8  and  C_16
REMARK    6  A    between atoms: C_13  and  C_17
REMARK    7  A    between atoms: C_16  and  C_18
REMARK    8  A    between atoms: C_20  and  C_21
REMARK                            x       y       z     vdW  Elec       q    Type
REMARK                         _______ _______ _______ _____ _____    ______ ____
ROOT
ATOM      5  N   UNL     1     -18.433   6.216  21.228  0.00  0.00    -0.316 NA
ATOM      7  C   UNL     1     -15.544   5.707  20.907  0.00  0.00    +0.004 C 
ATOM      8  C   UNL     1     -16.383   5.075  22.043  0.00  0.00    +0.012 C 
ATOM     10  C   UNL     1     -16.473   6.059  19.733  0.00  0.00    +0.019 C 
ATOM     14  C   UNL     1     -17.601   5.945  22.401  0.00  0.00    +0.085 C 
ATOM     15  C   UNL     1     -17.680   6.887  20.171  0.00  0.00    +0.081 C 
ATOM     29  H   UNL     1     -19.223   6.799  21.503  0.00  0.00    +0.122 HD
ENDROOT
BRANCH   7  13
ATOM     13  C   UNL     1     -14.728   6.931  21.341  0.00  0.00    +0.099 C 
BRANCH  13  17
ATOM      2  O   UNL     1     -12.564   5.856  21.504  0.00  0.00    -0.276 OA
ATOM      4  N   UNL     1     -12.789   7.768  20.208  0.00  0.00    -0.312 N 
ATOM     17  C   UNL     1     -13.252   6.765  21.049  0.00  0.00    +0.214 C 
ATOM     28  H   UNL     1     -13.421   8.497  19.889  0.00  0.00    +0.149 HD
BRANCH   4   9
ATOM      9  C   UNL     1     -11.423   7.843  19.776  0.00  0.00    +0.073 C 
ATOM     11  C   UNL     1     -11.066   7.794  18.319  0.00  0.00    +0.024 C 
ATOM     12  C   UNL     1     -10.890   9.068  19.092  0.00  0.00    +0.024 C 
ENDBRANCH   4   9
ENDBRANCH  13  17
ENDBRANCH   7  13
BRANCH   8  16
ATOM     16  C   UNL     1     -15.560   4.763  23.294  0.00  0.00    +0.064 C 
BRANCH  16  18
ATOM      3  O   UNL     1     -16.841   1.498  24.104  0.00  0.00    -0.359 OA
ATOM      6  N   UNL     1     -16.528   2.507  23.201  0.00  0.00    -0.083 NA
ATOM     18  C   UNL     1     -16.019   3.492  23.947  0.00  0.00    +0.084 A 
ATOM     19  C   UNL     1     -15.986   3.165  25.314  0.00  0.00    +0.071 A 
ATOM     20  C   UNL     1     -16.513   1.901  25.358  0.00  0.00    +0.148 A 
BRANCH  20  21
ATOM     21  C   UNL     1     -16.780   0.949  26.443  0.00  0.00    +0.151 C 
BRANCH  21   1
ATOM      1  S   UNL     1     -17.461   1.739  27.945  0.00  0.00    -0.117 S 
BRANCH   1  22
ATOM     22  C   UNL     1     -15.999   1.852  28.966  0.00  0.00    +0.008 A 
ATOM     23  C   UNL     1     -15.388   0.691  29.440  0.00  0.00    +0.015 A 
ATOM     24  C   UNL     1     -15.469   3.101  29.289  0.00  0.00    +0.015 A 
ATOM     25  C   UNL     1     -14.247   0.779  30.237  0.00  0.00    +0.001 A 
ATOM     26  C   UNL     1     -14.328   3.189  30.086  0.00  0.00    +0.001 A 
ATOM     27  C   UNL     1     -13.717   2.027  30.560  0.00  0.00    +0.000 A 
ENDBRANCH   1  22
ENDBRANCH  21   1
ENDBRANCH  20  21
ENDBRANCH  16  18
ENDBRANCH   8  16
TORSDOF 8
ENDMDL
MODEL 6
REMARK VINA RESULT:      -5.6     26.617     29.669
REMARK  Name = 26743096
REMARK  8 active torsions:
REMARK  status: ('A' for Active; 'I' for Inactive)
REMARK    1  A    between atoms: S_1  and  C_21
REMARK    2  A    between atoms: S_1  and  C_22
REMARK    3  A    between atoms: N_4  and  C_9
REMARK    4  A    between atoms: C_7  and  C_13
REMARK    5  A    between atoms: C_8  and  C_16
REMARK    6  A    between atoms: C_13  and  C_17
REMARK    7  A    between atoms: C_16  and  C_18
REMARK    8  A    between atoms: C_20  and  C_21
REMARK                            x       y       z     vdW  Elec       q    Type
REMARK                         _______ _______ _______ _____ _____    ______ ____
ROOT
ATOM      5  N   UNL     1      -8.456 -11.241  14.141  0.00  0.00    -0.316 NA
ATOM      7  C   UNL     1      -7.064 -10.645  16.673  0.00  0.00    +0.004 C 
ATOM      8  C   UNL     1      -8.424 -10.011  16.298  0.00  0.00    +0.012 C 
ATOM     10  C   UNL     1      -6.903 -11.974  15.916  0.00  0.00    +0.019 C 
ATOM     14  C   UNL     1      -8.613  -9.931  14.773  0.00  0.00    +0.085 C 
ATOM     15  C   UNL     1      -7.144 -11.823  14.415  0.00  0.00    +0.081 C 
ATOM     29  H   UNL     1      -8.580 -11.145  13.133  0.00  0.00    +0.122 HD
ENDROOT
BRANCH   7  13
ATOM     13  C   UNL     1      -5.859  -9.728  16.426  0.00  0.00    +0.099 C 
BRANCH  13  17
ATOM      2  O   UNL     1      -4.444 -10.903  18.001  0.00  0.00    -0.276 OA
ATOM      4  N   UNL     1      -3.548 -10.182  15.985  0.00  0.00    -0.312 N 
ATOM     17  C   UNL     1      -4.565 -10.340  16.916  0.00  0.00    +0.214 C 
ATOM     28  H   UNL     1      -3.727  -9.687  15.115  0.00  0.00    +0.149 HD
BRANCH   4   9
ATOM      9  C   UNL     1      -2.218 -10.673  16.204  0.00  0.00    +0.073 C 
ATOM     11  C   UNL     1      -1.470 -11.395  15.122  0.00  0.00    +0.024 C 
ATOM     12  C   UNL     1      -1.033 -10.026  15.550  0.00  0.00    +0.024 C 
ENDBRANCH   4   9
ENDBRANCH  13  17
ENDBRANCH   7  13
BRANCH   8  16
ATOM     16  C   UNL     1      -8.644  -8.640  16.940  0.00  0.00    +0.064 C 
BRANCH  16  18
ATOM      3  O   UNL     1     -12.179  -8.025  16.641  0.00  0.00    -0.359 OA
ATOM      6  N   UNL     1     -11.094  -8.775  17.078  0.00  0.00    -0.083 NA
ATOM     18  C   UNL     1     -10.018  -8.112  16.643  0.00  0.00    +0.084 A 
ATOM     19  C   UNL     1     -10.359  -6.948  15.933  0.00  0.00    +0.071 A 
ATOM     20  C   UNL     1     -11.728  -6.939  15.961  0.00  0.00    +0.148 A 
BRANCH  20  21
ATOM     21  C   UNL     1     -12.750  -6.032  15.425  0.00  0.00    +0.151 C 
BRANCH  21   1
ATOM      1  S   UNL     1     -13.550  -6.662  13.907  0.00  0.00    -0.117 S 
BRANCH   1  22
ATOM     22  C   UNL     1     -12.900  -5.533  12.683  0.00  0.00    +0.008 A 
ATOM     23  C   UNL     1     -12.553  -6.002  11.416  0.00  0.00    +0.015 A 
ATOM     24  C   UNL     1     -12.740  -4.184  12.996  0.00  0.00    +0.015 A 
ATOM     25  C   UNL     1     -12.045  -5.120  10.462  0.00  0.00    +0.001 A 
ATOM     26  C   UNL     1     -12.232  -3.302  12.041  0.00  0.00    +0.001 A 
ATOM     27  C   UNL     1     -11.885  -3.772  10.774  0.00  0.00    +0.000 A 
ENDBRANCH   1  22
ENDBRANCH  21   1
ENDBRANCH  20  21
ENDBRANCH  16  18
ENDBRANCH   8  16
TORSDOF 8
ENDMDL
MODEL 7
REMARK VINA RESULT:      -5.5     31.825     33.987
REMARK  Name = 26743096
REMARK  8 active torsions:
REMARK  status: ('A' for Active; 'I' for Inactive)
REMARK    1  A    between atoms: S_1  and  C_21
REMARK    2  A    between atoms: S_1  and  C_22
REMARK    3  A    between atoms: N_4  and  C_9
REMARK    4  A    between atoms: C_7  and  C_13
REMARK    5  A    between atoms: C_8  and  C_16
REMARK    6  A    between atoms: C_13  and  C_17
REMARK    7  A    between atoms: C_16  and  C_18
REMARK    8  A    between atoms: C_20  and  C_21
REMARK                            x       y       z     vdW  Elec       q    Type
REMARK                         _______ _______ _______ _____ _____    ______ ____
ROOT
ATOM      5  N   UNL     1       5.795 -15.794   0.495  0.00  0.00    -0.316 NA
ATOM      7  C   UNL     1       2.877 -15.363   0.576  0.00  0.00    +0.004 C 
ATOM      8  C   UNL     1       3.759 -14.887  -0.602  0.00  0.00    +0.012 C 
ATOM     10  C   UNL     1       3.575 -16.536   1.284  0.00  0.00    +0.019 C 
ATOM     14  C   UNL     1       5.208 -14.622  -0.155  0.00  0.00    +0.085 C 
ATOM     15  C   UNL     1       5.021 -16.214   1.660  0.00  0.00    +0.081 C 
ATOM     29  H   UNL     1       6.749 -15.577   0.782  0.00  0.00    +0.122 HD
ENDROOT
BRANCH   7  13
ATOM     13  C   UNL     1       2.520 -14.257   1.576  0.00  0.00    +0.099 C 
BRANCH  13  17
ATOM      2  O   UNL     1       0.195 -13.770   1.109  0.00  0.00    -0.276 OA
ATOM      4  N   UNL     1       0.767 -14.749   3.134  0.00  0.00    -0.312 N 
ATOM     17  C   UNL     1       1.038 -14.217   1.881  0.00  0.00    +0.214 C 
ATOM     28  H   UNL     1       1.527 -15.084   3.720  0.00  0.00    +0.149 HD
BRANCH   4   9
ATOM      9  C   UNL     1      -0.563 -14.830   3.666  0.00  0.00    +0.073 C 
ATOM     11  C   UNL     1      -0.945 -15.907   4.639  0.00  0.00    +0.024 C 
ATOM     12  C   UNL     1      -0.850 -14.482   5.097  0.00  0.00    +0.024 C 
ENDBRANCH   4   9
ENDBRANCH  13  17
ENDBRANCH   7  13
BRANCH   8  16
ATOM     16  C   UNL     1       3.188 -13.665  -1.324  0.00  0.00    +0.064 C 
BRANCH  16  18
ATOM      3  O   UNL     1       1.080 -15.150  -3.836  0.00  0.00    -0.359 OA
ATOM      6  N   UNL     1       2.274 -15.055  -3.132  0.00  0.00    -0.083 NA
ATOM     18  C   UNL     1       2.087 -14.053  -2.267  0.00  0.00    +0.084 A 
ATOM     19  C   UNL     1       0.807 -13.483  -2.379  0.00  0.00    +0.071 A 
ATOM     20  C   UNL     1       0.214 -14.208  -3.379  0.00  0.00    +0.148 A 
BRANCH  20  21
ATOM     21  C   UNL     1      -1.106 -14.167  -4.019  0.00  0.00    +0.151 C 
BRANCH  21   1
ATOM      1  S   UNL     1      -1.384 -12.650  -5.002  0.00  0.00    -0.117 S 
BRANCH   1  22
ATOM     22  C   UNL     1       0.156 -12.541  -5.903  0.00  0.00    +0.008 A 
ATOM     23  C   UNL     1       0.423 -13.436  -6.938  0.00  0.00    +0.015 A 
ATOM     24  C   UNL     1       1.089 -11.559  -5.570  0.00  0.00    +0.015 A 
ATOM     25  C   UNL     1       1.625 -13.350  -7.642  0.00  0.00    +0.001 A 
ATOM     26  C   UNL     1       2.291 -11.474  -6.274  0.00  0.00    +0.001 A 
ATOM     27  C   UNL     1       2.558 -12.370  -7.309  0.00  0.00    +0.000 A 
ENDBRANCH   1  22
ENDBRANCH  21   1
ENDBRANCH  20  21
ENDBRANCH  16  18
ENDBRANCH   8  16
TORSDOF 8
ENDMDL
MODEL 8
REMARK VINA RESULT:      -5.5     13.707     17.057
REMARK  Name = 26743096
REMARK  8 active torsions:
REMARK  status: ('A' for Active; 'I' for Inactive)
REMARK    1  A    between atoms: S_1  and  C_21
REMARK    2  A    between atoms: S_1  and  C_22
REMARK    3  A    between atoms: N_4  and  C_9
REMARK    4  A    between atoms: C_7  and  C_13
REMARK    5  A    between atoms: C_8  and  C_16
REMARK    6  A    between atoms: C_13  and  C_17
REMARK    7  A    between atoms: C_16  and  C_18
REMARK    8  A    between atoms: C_20  and  C_21
REMARK                            x       y       z     vdW  Elec       q    Type
REMARK                         _______ _______ _______ _____ _____    ______ ____
ROOT
ATOM      5  N   UNL     1       8.995  10.945   3.641  0.00  0.00    -0.316 NA
ATOM      7  C   UNL     1      10.522   8.814   4.995  0.00  0.00    +0.004 C 
ATOM      8  C   UNL     1       9.382   8.517   3.992  0.00  0.00    +0.012 C 
ATOM     10  C   UNL     1      11.101  10.207   4.698  0.00  0.00    +0.019 C 
ATOM     14  C   UNL     1       8.356   9.663   3.942  0.00  0.00    +0.085 C 
ATOM     15  C   UNL     1      10.021  11.285   4.623  0.00  0.00    +0.081 C 
ATOM     29  H   UNL     1       8.286  11.678   3.624  0.00  0.00    +0.122 HD
ENDROOT
BRANCH   7  13
ATOM     13  C   UNL     1      10.104   8.700   6.466  0.00  0.00    +0.099 C 
BRANCH  13  17
ATOM      2  O   UNL     1      12.031   7.432   7.202  0.00  0.00    -0.276 OA
ATOM      4  N   UNL     1       9.903   6.704   7.778  0.00  0.00    -0.312 N 
ATOM     17  C   UNL     1      10.811   7.564   7.174  0.00  0.00    +0.214 C 
ATOM     28  H   UNL     1       8.905   6.876   7.693  0.00  0.00    +0.149 HD
BRANCH   4   9
ATOM      9  C   UNL     1      10.313   5.545   8.517  0.00  0.00    +0.073 C 
ATOM     11  C   UNL     1       9.427   4.939   9.565  0.00  0.00    +0.024 C 
ATOM     12  C   UNL     1       9.676   4.207   8.280  0.00  0.00    +0.024 C 
ENDBRANCH   4   9
ENDBRANCH  13  17
ENDBRANCH   7  13
BRANCH   8  16
ATOM     16  C   UNL     1       8.683   7.182   4.257  0.00  0.00    +0.064 C 
BRANCH  16  18
ATOM      3  O   UNL     1      10.671   4.181   4.282  0.00  0.00    -0.359 OA
ATOM      6  N   UNL     1       9.812   5.092   4.884  0.00  0.00    -0.083 NA
ATOM     18  C   UNL     1       9.586   6.023   3.952  0.00  0.00    +0.084 A 
ATOM     19  C   UNL     1      10.268   5.754   2.752  0.00  0.00    +0.071 A 
ATOM     20  C   UNL     1      10.935   4.586   3.012  0.00  0.00    +0.148 A 
BRANCH  20  21
ATOM     21  C   UNL     1      11.833   3.732   2.226  0.00  0.00    +0.151 C 
BRANCH  21   1
ATOM      1  S   UNL     1      12.771   4.651   0.954  0.00  0.00    -0.117 S 
BRANCH   1  22
ATOM     22  C   UNL     1      12.057   3.988  -0.544  0.00  0.00    +0.008 A 
ATOM     23  C   UNL     1      10.909   4.567  -1.085  0.00  0.00    +0.015 A 
ATOM     24  C   UNL     1      12.647   2.891  -1.171  0.00  0.00    +0.015 A 
ATOM     25  C   UNL     1      10.352   4.049  -2.254  0.00  0.00    +0.001 A 
ATOM     26  C   UNL     1      12.089   2.373  -2.340  0.00  0.00    +0.001 A 
ATOM     27  C   UNL     1      10.941   2.953  -2.881  0.00  0.00    +0.000 A 
ENDBRANCH   1  22
ENDBRANCH  21   1
ENDBRANCH  20  21
ENDBRANCH  16  18
ENDBRANCH   8  16
TORSDOF 8
ENDMDL
MODEL 9
REMARK VINA RESULT:      -5.5     26.754     29.815
REMARK  Name = 26743096
REMARK  8 active torsions:
REMARK  status: ('A' for Active; 'I' for Inactive)
REMARK    1  A    between atoms: S_1  and  C_21
REMARK    2  A    between atoms: S_1  and  C_22
REMARK    3  A    between atoms: N_4  and  C_9
REMARK    4  A    between atoms: C_7  and  C_13
REMARK    5  A    between atoms: C_8  and  C_16
REMARK    6  A    between atoms: C_13  and  C_17
REMARK    7  A    between atoms: C_16  and  C_18
REMARK    8  A    between atoms: C_20  and  C_21
REMARK                            x       y       z     vdW  Elec       q    Type
REMARK                         _______ _______ _______ _____ _____    ______ ____
ROOT
ATOM      5  N   UNL     1      -8.985 -12.395  19.471  0.00  0.00    -0.316 NA
ATOM      7  C   UNL     1      -7.049 -10.585  18.173  0.00  0.00    +0.004 C 
ATOM      8  C   UNL     1      -8.556 -10.585  17.825  0.00  0.00    +0.012 C 
ATOM     10  C   UNL     1      -6.863 -11.138  19.596  0.00  0.00    +0.019 C 
ATOM     14  C   UNL     1      -9.201 -11.957  18.091  0.00  0.00    +0.085 C 
ATOM     15  C   UNL     1      -7.564 -12.480  19.798  0.00  0.00    +0.081 C 
ATOM     29  H   UNL     1      -9.419 -13.308  19.605  0.00  0.00    +0.122 HD
ENDROOT
BRANCH   7  13
ATOM     13  C   UNL     1      -6.177 -11.353  17.173  0.00  0.00    +0.099 C 
BRANCH  13  17
ATOM      2  O   UNL     1      -5.438  -9.304  16.115  0.00  0.00    -0.276 OA
ATOM      4  N   UNL     1      -3.966 -11.090  16.286  0.00  0.00    -0.312 N 
ATOM     17  C   UNL     1      -5.184 -10.451  16.470  0.00  0.00    +0.214 C 
ATOM     28  H   UNL     1      -3.843 -12.050  16.595  0.00  0.00    +0.149 HD
BRANCH   4   9
ATOM      9  C   UNL     1      -2.851 -10.455  15.644  0.00  0.00    +0.073 C 
ATOM     11  C   UNL     1      -1.529 -11.152  15.516  0.00  0.00    +0.024 C 
ATOM     12  C   UNL     1      -2.368 -10.907  14.298  0.00  0.00    +0.024 C 
ENDBRANCH   4   9
ENDBRANCH  13  17
ENDBRANCH   7  13
BRANCH   8  16
ATOM     16  C   UNL     1      -8.840 -10.127  16.393  0.00  0.00    +0.064 C 
BRANCH  16  18
ATOM      3  O   UNL     1     -10.408  -6.973  17.137  0.00  0.00    -0.359 OA
ATOM      6  N   UNL     1      -9.711  -8.116  17.505  0.00  0.00    -0.083 NA
ATOM     18  C   UNL     1      -9.564  -8.812  16.374  0.00  0.00    +0.084 A 
ATOM     19  C   UNL     1     -10.142  -8.163  15.269  0.00  0.00    +0.071 A 
ATOM     20  C   UNL     1     -10.659  -7.012  15.802  0.00  0.00    +0.148 A 
BRANCH  20  21
ATOM     21  C   UNL     1     -11.394  -5.872  15.240  0.00  0.00    +0.151 C 
BRANCH  21   1
ATOM      1  S   UNL     1     -13.085  -6.302  14.695  0.00  0.00    -0.117 S 
BRANCH   1  22
ATOM     22  C   UNL     1     -13.378  -5.043  13.462  0.00  0.00    +0.008 A 
ATOM     23  C   UNL     1     -14.680  -4.630  13.182  0.00  0.00    +0.015 A 
ATOM     24  C   UNL     1     -12.303  -4.473  12.779  0.00  0.00    +0.015 A 
ATOM     25  C   UNL     1     -14.909  -3.647  12.219  0.00  0.00    +0.001 A 
ATOM     26  C   UNL     1     -12.532  -3.490  11.816  0.00  0.00    +0.001 A 
ATOM     27  C   UNL     1     -13.835  -3.078  11.536  0.00  0.00    +0.000 A 
ENDBRANCH   1  22
ENDBRANCH  21   1
ENDBRANCH  20  21
ENDBRANCH  16  18
ENDBRANCH   8  16
TORSDOF 8
ENDMDL
MODEL 10
REMARK VINA RESULT:      -5.4     13.794     17.197
REMARK  Name = 26743096
REMARK  8 active torsions:
REMARK  status: ('A' for Active; 'I' for Inactive)
REMARK    1  A    between atoms: S_1  and  C_21
REMARK    2  A    between atoms: S_1  and  C_22
REMARK    3  A    between atoms: N_4  and  C_9
REMARK    4  A    between atoms: C_7  and  C_13
REMARK    5  A    between atoms: C_8  and  C_16
REMARK    6  A    between atoms: C_13  and  C_17
REMARK    7  A    between atoms: C_16  and  C_18
REMARK    8  A    between atoms: C_20  and  C_21
REMARK                            x       y       z     vdW  Elec       q    Type
REMARK                         _______ _______ _______ _____ _____    ______ ____
ROOT
ATOM      5  N   UNL     1      13.098   9.666   4.480  0.00  0.00    -0.316 NA
ATOM      7  C   UNL     1      11.460   7.896   6.179  0.00  0.00    +0.004 C 
ATOM      8  C   UNL     1      11.727   7.605   4.684  0.00  0.00    +0.012 C 
ATOM     10  C   UNL     1      12.591   8.780   6.729  0.00  0.00    +0.019 C 
ATOM     14  C   UNL     1      12.000   8.897   3.893  0.00  0.00    +0.085 C 
ATOM     15  C   UNL     1      12.831  10.022   5.871  0.00  0.00    +0.081 C 
ATOM     29  H   UNL     1      13.243  10.516   3.934  0.00  0.00    +0.122 HD
ENDROOT
BRANCH   7  13
ATOM     13  C   UNL     1      10.090   8.528   6.457  0.00  0.00    +0.099 C 
BRANCH  13  17
ATOM      2  O   UNL     1       7.921   7.625   7.041  0.00  0.00    -0.276 OA
ATOM      4  N   UNL     1       9.836   6.613   7.876  0.00  0.00    -0.312 N 
ATOM     17  C   UNL     1       9.143   7.564   7.138  0.00  0.00    +0.214 C 
ATOM     28  H   UNL     1      10.851   6.642   7.918  0.00  0.00    +0.149 HD
BRANCH   4   9
ATOM      9  C   UNL     1       9.173   5.581   8.619  0.00  0.00    +0.073 C 
ATOM     11  C   UNL     1       9.665   4.163   8.585  0.00  0.00    +0.024 C 
ATOM     12  C   UNL     1       9.803   4.975   9.839  0.00  0.00    +0.024 C 
ENDBRANCH   4   9
ENDBRANCH  13  17
ENDBRANCH   7  13
BRANCH   8  16
ATOM     16  C   UNL     1      10.610   6.796   4.021  0.00  0.00    +0.064 C 
BRANCH  16  18
ATOM      3  O   UNL     1      11.316   3.461   2.863  0.00  0.00    -0.359 OA
ATOM      6  N   UNL     1      10.592   4.372   3.622  0.00  0.00    -0.083 NA
ATOM     18  C   UNL     1      11.148   5.559   3.364  0.00  0.00    +0.084 A 
ATOM     19  C   UNL     1      12.218   5.461   2.457  0.00  0.00    +0.071 A 
ATOM     20  C   UNL     1      12.281   4.122   2.173  0.00  0.00    +0.148 A 
BRANCH  20  21
ATOM     21  C   UNL     1      13.146   3.306   1.312  0.00  0.00    +0.151 C 
BRANCH  21   1
ATOM      1  S   UNL     1      13.726   4.194  -0.177  0.00  0.00    -0.117 S 
BRANCH   1  22
ATOM     22  C   UNL     1      12.403   3.838  -1.325  0.00  0.00    +0.008 A 
ATOM     23  C   UNL     1      12.229   2.541  -1.807  0.00  0.00    +0.015 A 
ATOM     24  C   UNL     1      11.546   4.858  -1.737  0.00  0.00    +0.015 A 
ATOM     25  C   UNL     1      11.196   2.264  -2.703  0.00  0.00    +0.001 A 
ATOM     26  C   UNL     1      10.514   4.581  -2.634  0.00  0.00    +0.001 A 
ATOM     27  C   UNL     1      10.339   3.283  -3.116  0.00  0.00    +0.000 A 
ENDBRANCH   1  22
ENDBRANCH  21   1
ENDBRANCH  20  21
ENDBRANCH  16  18
ENDBRANCH   8  16
TORSDOF 8
ENDMDL
