REMARK  Name = 11883107
REMARK  13 active torsions:
REMARK  status: ('A' for Active; 'I' for Inactive)
REMARK    1  A    between atoms: O_2  and  C_17
REMARK    2  A    between atoms: O_3  and  C_22
REMARK    3  A    between atoms: O_6  and  C_31
REMARK    4  A    between atoms: O_6  and  C_36
REMARK    5  A    between atoms: N_9  and  C_28
REMARK    6  A    between atoms: N_11  and  C_30
REMARK    7  A    between atoms: C_12  and  C_20
REMARK    8  A    between atoms: C_14  and  C_22
REMARK    9  A    between atoms: C_14  and  C_23
REMARK   10  A    between atoms: C_15  and  C_25
REMARK   11  A    between atoms: C_25  and  C_26
REMARK   12  A    between atoms: C_28  and  C_30
REMARK   13  A    between atoms: C_29  and  C_31
REMARK                            x       y       z     vdW  Elec       q    Type
REMARK                         _______ _______ _______ _____ _____    ______ ____
ROOT
ATOM      1  S   UNL     1      -1.415   3.400  -0.052  0.00  0.00    -0.057 S 
ATOM      5  O   UNL     1       2.972   1.822   0.074  0.00  0.00    -0.273 OA
ATOM      8  N   UNL     1       0.053   1.272   0.039  0.00  0.00    -0.229 NA
ATOM     10  N   UNL     1       1.206   3.389  -0.003  0.00  0.00    -0.263 N 
ATOM     12  C   UNL     1      -3.182  -0.787   0.445  0.00  0.00    -0.019 C 
ATOM     13  C   UNL     1      -4.040   0.247  -0.409  0.00  0.00    +0.011 C 
ATOM     14  C   UNL     1      -5.592  -0.019  -0.506  0.00  0.00    +0.021 C 
ATOM     15  C   UNL     1      -1.644  -0.594   0.053  0.00  0.00    +0.054 C 
ATOM     16  C   UNL     1      -3.601  -2.234   0.078  0.00  0.00    +0.010 C 
ATOM     17  C   UNL     1      -5.835  -1.520  -0.834  0.00  0.00    +0.123 C 
ATOM     18  C   UNL     1      -3.677   1.718  -0.054  0.00  0.00    +0.049 C 
ATOM     19  C   UNL     1      -5.105  -2.467   0.112  0.00  0.00    +0.032 C 
ATOM     20  C   UNL     1      -3.352  -0.592   1.972  0.00  0.00    +0.012 C 
ATOM     21  C   UNL     1      -1.268   0.866   0.038  0.00  0.00    +0.058 A 
ATOM     23  C   UNL     1      -6.176   0.812  -1.684  0.00  0.00    +0.016 C 
ATOM     24  C   UNL     1      -2.195   1.886  -0.029  0.00  0.00    +0.015 A 
ATOM     27  C   UNL     1       0.096   2.586   0.001  0.00  0.00    +0.165 A 
ATOM     29  C   UNL     1       2.550   2.973   0.033  0.00  0.00    +0.244 C 
ATOM     40  H   UNL     1       1.015   4.387  -0.036  0.00  0.00    +0.157 HD
ENDROOT
BRANCH  17   2
ATOM      2  O   UNL     1      -7.229  -1.822  -0.801  0.00  0.00    -0.391 OA
ATOM     37  H   UNL     1      -7.335  -2.754  -1.056  0.00  0.00    +0.210 HD
ENDBRANCH  17   2
BRANCH  14  22
ATOM     22  C   UNL     1      -6.394   0.409   0.742  0.00  0.00    +0.165 C 
BRANCH  22   3
ATOM      3  O   UNL     1      -7.753   0.120   0.502  0.00  0.00    -0.394 OA
ATOM     38  H   UNL     1      -8.253   0.401   1.287  0.00  0.00    +0.209 HD
ENDBRANCH  22   3
ENDBRANCH  14  22
BRANCH  15  25
ATOM     25  C   UNL     1      -0.662  -1.418   0.897  0.00  0.00    +0.106 C 
BRANCH  25  26
ATOM      4  O   UNL     1       0.832  -1.353  -1.005  0.00  0.00    -0.276 OA
ATOM      9  N   UNL     1       1.490  -2.453   0.934  0.00  0.00    -0.314 N 
ATOM     26  C   UNL     1       0.615  -1.717   0.148  0.00  0.00    +0.214 C 
ATOM     39  H   UNL     1       1.220  -2.699   1.882  0.00  0.00    +0.149 HD
BRANCH   9  28
ATOM     28  C   UNL     1       2.791  -2.885   0.475  0.00  0.00    +0.119 C 
BRANCH  28  30
ATOM     30  C   UNL     1       3.858  -1.847   0.789  0.00  0.00    +0.103 C 
BRANCH  30  11
ATOM      7  O   UNL     1       7.668  -1.868  -0.972  0.00  0.00    -0.377 OA
ATOM     11  N   UNL     1       5.163  -2.299   0.308  0.00  0.00    -0.297 NA
ATOM     32  C   UNL     1       6.247  -1.560   0.970  0.00  0.00    +0.112 C 
ATOM     33  C   UNL     1       5.264  -2.143  -1.149  0.00  0.00    +0.112 C 
ATOM     34  C   UNL     1       7.597  -2.039   0.444  0.00  0.00    +0.175 C 
ATOM     35  C   UNL     1       6.637  -2.610  -1.625  0.00  0.00    +0.175 C 
ENDBRANCH  30  11
ENDBRANCH  28  30
ENDBRANCH   9  28
ENDBRANCH  25  26
ENDBRANCH  15  25
BRANCH  29  31
ATOM     31  C   UNL     1       3.495   4.160   0.013  0.00  0.00    +0.255 C 
BRANCH  31   6
ATOM      6  O   UNL     1       4.840   3.734   0.036  0.00  0.00    -0.374 OA
ATOM     36  C   UNL     1       5.747   4.833   0.018  0.00  0.00    +0.194 C 
ENDBRANCH  31   6
ENDBRANCH  29  31
TORSDOF 10
