MODEL 1
REMARK VINA RESULT:      -6.3      0.000      0.000
REMARK  Name = 71693657
REMARK  10 active torsions:
REMARK  status: ('A' for Active; 'I' for Inactive)
REMARK    1  A    between atoms: S_1  and  N_8
REMARK    2  A    between atoms: S_1  and  C_19
REMARK    3  A    between atoms: O_3  and  C_12
REMARK    4  A    between atoms: N_7  and  C_15
REMARK    5  A    between atoms: N_8  and  C_20
REMARK    6  A    between atoms: C_9  and  C_12
REMARK    7  A    between atoms: C_10  and  C_11
REMARK    8  A    between atoms: C_18  and  C_19
REMARK    9  A    between atoms: C_18  and  C_23
REMARK   10  A    between atoms: C_18  and  C_24
REMARK                            x       y       z     vdW  Elec       q    Type
REMARK                         _______ _______ _______ _____ _____    ______ ____
ROOT
ATOM     11  C   UNL     1      17.569   6.366  20.627  0.00  0.00    -0.017 A 
ATOM     16  C   UNL     1      16.618   6.603  21.620  0.00  0.00    +0.008 A 
ATOM     17  C   UNL     1      17.171   6.242  19.297  0.00  0.00    +0.008 A 
ATOM     20  C   UNL     1      14.872   6.591  19.951  0.00  0.00    +0.048 A 
ATOM     21  C   UNL     1      15.270   6.715  21.282  0.00  0.00    +0.025 A 
ATOM     22  C   UNL     1      15.822   6.354  18.959  0.00  0.00    +0.025 A 
ENDROOT
BRANCH  11  10
ATOM      2  O   UNL     1      19.595   5.246  20.139  0.00  0.00    -0.361 OA
ATOM      4  O   UNL     1      23.073   5.795  20.689  0.00  0.00    -0.273 OA
ATOM      7  N   UNL     1      21.299   7.287  20.936  0.00  0.00    -0.295 N 
ATOM      9  C   UNL     1      19.844   7.540  20.806  0.00  0.00    +0.134 C 
ATOM     10  C   UNL     1      19.034   6.243  20.994  0.00  0.00    +0.171 C 
ATOM     13  C   UNL     1      20.883   4.880  20.577  0.00  0.00    +0.256 C 
ATOM     14  C   UNL     1      21.862   6.029  20.716  0.00  0.00    +0.242 C 
ATOM     15  C   UNL     1      22.189   8.439  21.062  0.00  0.00    +0.132 C 
BRANCH   9  12
ATOM     12  C   UNL     1      19.348   8.631  21.767  0.00  0.00    +0.181 C 
BRANCH  12   3
ATOM      3  O   UNL     1      19.384   8.111  23.079  0.00  0.00    -0.393 OA
ATOM     26  H   UNL     1      19.570   7.160  23.007  0.00  0.00    +0.209 HD
ENDBRANCH  12   3
ENDBRANCH   9  12
ENDBRANCH  11  10
BRANCH  20   8
ATOM      8  N   UNL     1      13.491   6.707  19.606  0.00  0.00    -0.221 N 
ATOM     25  H   UNL     1      13.037   5.809  19.395  0.00  0.00    +0.173 HD
BRANCH   8   1
ATOM      1  S   UNL     1      13.010   8.027  18.609  0.00  0.00    +0.043 S 
ATOM      5  O   UNL     1      13.955   9.111  18.796  0.00  0.00    -0.155 OA
ATOM      6  O   UNL     1      12.664   7.572  17.278  0.00  0.00    -0.155 OA
BRANCH   1  19
ATOM     19  C   UNL     1      11.505   8.506  19.431  0.00  0.00    +0.191 C 
BRANCH  19  18
ATOM     18  C   UNL     1      11.625   8.482  20.956  0.00  0.00    +0.006 C 
ATOM     23  C   UNL     1      11.412   9.889  21.516  0.00  0.00    +0.009 C 
ATOM     24  C   UNL     1      10.624   7.517  21.593  0.00  0.00    +0.009 C 
ENDBRANCH  19  18
ENDBRANCH   1  19
ENDBRANCH   8   1
ENDBRANCH  20   8
TORSDOF 7
ENDMDL
MODEL 2
REMARK VINA RESULT:      -6.3      2.686      8.105
REMARK  Name = 71693657
REMARK  10 active torsions:
REMARK  status: ('A' for Active; 'I' for Inactive)
REMARK    1  A    between atoms: S_1  and  N_8
REMARK    2  A    between atoms: S_1  and  C_19
REMARK    3  A    between atoms: O_3  and  C_12
REMARK    4  A    between atoms: N_7  and  C_15
REMARK    5  A    between atoms: N_8  and  C_20
REMARK    6  A    between atoms: C_9  and  C_12
REMARK    7  A    between atoms: C_10  and  C_11
REMARK    8  A    between atoms: C_18  and  C_19
REMARK    9  A    between atoms: C_18  and  C_23
REMARK   10  A    between atoms: C_18  and  C_24
REMARK                            x       y       z     vdW  Elec       q    Type
REMARK                         _______ _______ _______ _____ _____    ______ ____
ROOT
ATOM     11  C   UNL     1      16.858   7.503  20.175  0.00  0.00    -0.017 A 
ATOM     16  C   UNL     1      17.561   8.476  20.886  0.00  0.00    +0.008 A 
ATOM     17  C   UNL     1      17.476   6.298  19.846  0.00  0.00    +0.008 A 
ATOM     20  C   UNL     1      19.501   7.037  20.937  0.00  0.00    +0.048 A 
ATOM     21  C   UNL     1      18.882   8.243  21.267  0.00  0.00    +0.025 A 
ATOM     22  C   UNL     1      18.798   6.064  20.226  0.00  0.00    +0.025 A 
ENDROOT
BRANCH  11  10
ATOM      2  O   UNL     1      15.281   7.264  18.428  0.00  0.00    -0.361 OA
ATOM      4  O   UNL     1      11.732   7.267  18.104  0.00  0.00    -0.273 OA
ATOM      7  N   UNL     1      13.024   7.128  20.039  0.00  0.00    -0.295 N 
ATOM      9  C   UNL     1      14.376   7.048  20.643  0.00  0.00    +0.134 C 
ATOM     10  C   UNL     1      15.423   7.756  19.762  0.00  0.00    +0.171 C 
ATOM     13  C   UNL     1      14.059   7.685  17.868  0.00  0.00    +0.256 C 
ATOM     14  C   UNL     1      12.826   7.319  18.670  0.00  0.00    +0.242 C 
ATOM     15  C   UNL     1      11.878   6.757  20.866  0.00  0.00    +0.132 C 
BRANCH   9  12
ATOM     12  C   UNL     1      14.414   7.600  22.076  0.00  0.00    +0.181 C 
BRANCH  12   3
ATOM      3  O   UNL     1      14.240   9.001  22.013  0.00  0.00    -0.393 OA
ATOM     26  H   UNL     1      13.327   9.165  21.724  0.00  0.00    +0.209 HD
ENDBRANCH  12   3
ENDBRANCH   9  12
ENDBRANCH  11  10
BRANCH  20   8
ATOM      8  N   UNL     1      20.853   6.799  21.328  0.00  0.00    -0.221 N 
ATOM     25  H   UNL     1      21.370   6.180  20.689  0.00  0.00    +0.173 HD
BRANCH   8   1
ATOM      1  S   UNL     1      21.189   6.572  23.002  0.00  0.00    +0.043 S 
ATOM      5  O   UNL     1      22.018   7.673  23.457  0.00  0.00    -0.155 OA
ATOM      6  O   UNL     1      19.988   6.207  23.727  0.00  0.00    -0.155 OA
BRANCH   1  19
ATOM     19  C   UNL     1      22.236   5.136  22.919  0.00  0.00    +0.191 C 
BRANCH  19  18
ATOM     18  C   UNL     1      22.443   4.631  21.489  0.00  0.00    +0.006 C 
ATOM     23  C   UNL     1      23.934   4.411  21.227  0.00  0.00    +0.009 C 
ATOM     24  C   UNL     1      21.677   3.334  21.225  0.00  0.00    +0.009 C 
ENDBRANCH  19  18
ENDBRANCH   1  19
ENDBRANCH   8   1
ENDBRANCH  20   8
TORSDOF 7
ENDMDL
MODEL 3
REMARK VINA RESULT:      -6.2      2.516      8.260
REMARK  Name = 71693657
REMARK  10 active torsions:
REMARK  status: ('A' for Active; 'I' for Inactive)
REMARK    1  A    between atoms: S_1  and  N_8
REMARK    2  A    between atoms: S_1  and  C_19
REMARK    3  A    between atoms: O_3  and  C_12
REMARK    4  A    between atoms: N_7  and  C_15
REMARK    5  A    between atoms: N_8  and  C_20
REMARK    6  A    between atoms: C_9  and  C_12
REMARK    7  A    between atoms: C_10  and  C_11
REMARK    8  A    between atoms: C_18  and  C_19
REMARK    9  A    between atoms: C_18  and  C_23
REMARK   10  A    between atoms: C_18  and  C_24
REMARK                            x       y       z     vdW  Elec       q    Type
REMARK                         _______ _______ _______ _____ _____    ______ ____
ROOT
ATOM     11  C   UNL     1      15.957   6.814  19.947  0.00  0.00    -0.017 A 
ATOM     16  C   UNL     1      16.682   5.905  19.176  0.00  0.00    +0.008 A 
ATOM     17  C   UNL     1      16.611   7.602  20.894  0.00  0.00    +0.008 A 
ATOM     20  C   UNL     1      18.714   6.573  20.299  0.00  0.00    +0.048 A 
ATOM     21  C   UNL     1      18.060   5.785  19.352  0.00  0.00    +0.025 A 
ATOM     22  C   UNL     1      17.989   7.482  21.070  0.00  0.00    +0.025 A 
ENDROOT
BRANCH  11  10
ATOM      2  O   UNL     1      13.869   6.902  21.056  0.00  0.00    -0.361 OA
ATOM      4  O   UNL     1      10.570   8.025  20.312  0.00  0.00    -0.273 OA
ATOM      7  N   UNL     1      12.550   8.433  19.153  0.00  0.00    -0.295 N 
ATOM      9  C   UNL     1      14.021   8.257  19.079  0.00  0.00    +0.134 C 
ATOM     10  C   UNL     1      14.460   6.945  19.756  0.00  0.00    +0.171 C 
ATOM     13  C   UNL     1      12.471   6.758  20.964  0.00  0.00    +0.256 C 
ATOM     14  C   UNL     1      11.771   7.813  20.131  0.00  0.00    +0.242 C 
ATOM     15  C   UNL     1      11.939   9.472  18.327  0.00  0.00    +0.132 C 
BRANCH   9  12
ATOM     12  C   UNL     1      14.550   8.324  17.638  0.00  0.00    +0.181 C 
BRANCH  12   3
ATOM      3  O   UNL     1      14.002   7.240  16.917  0.00  0.00    -0.393 OA
ATOM     26  H   UNL     1      13.038   7.360  16.906  0.00  0.00    +0.209 HD
ENDBRANCH  12   3
ENDBRANCH   9  12
ENDBRANCH  11  10
BRANCH  20   8
ATOM      8  N   UNL     1      20.125   6.449  20.478  0.00  0.00    -0.221 N 
ATOM     25  H   UNL     1      20.544   5.662  19.966  0.00  0.00    +0.173 HD
BRANCH   8   1
ATOM      1  S   UNL     1      20.774   6.731  22.049  0.00  0.00    +0.043 S 
ATOM      5  O   UNL     1      21.233   8.106  22.116  0.00  0.00    -0.155 OA
ATOM      6  O   UNL     1      19.901   6.196  23.075  0.00  0.00    -0.155 OA
BRANCH   1  19
ATOM     19  C   UNL     1      22.225   5.704  21.976  0.00  0.00    +0.191 C 
BRANCH  19  18
ATOM     18  C   UNL     1      22.213   4.738  20.790  0.00  0.00    +0.006 C 
ATOM     23  C   UNL     1      23.633   4.565  20.247  0.00  0.00    +0.009 C 
ATOM     24  C   UNL     1      21.637   3.373  21.169  0.00  0.00    +0.009 C 
ENDBRANCH  19  18
ENDBRANCH   1  19
ENDBRANCH   8   1
ENDBRANCH  20   8
TORSDOF 7
ENDMDL
MODEL 4
REMARK VINA RESULT:      -5.9      2.667      8.059
REMARK  Name = 71693657
REMARK  10 active torsions:
REMARK  status: ('A' for Active; 'I' for Inactive)
REMARK    1  A    between atoms: S_1  and  N_8
REMARK    2  A    between atoms: S_1  and  C_19
REMARK    3  A    between atoms: O_3  and  C_12
REMARK    4  A    between atoms: N_7  and  C_15
REMARK    5  A    between atoms: N_8  and  C_20
REMARK    6  A    between atoms: C_9  and  C_12
REMARK    7  A    between atoms: C_10  and  C_11
REMARK    8  A    between atoms: C_18  and  C_19
REMARK    9  A    between atoms: C_18  and  C_23
REMARK   10  A    between atoms: C_18  and  C_24
REMARK                            x       y       z     vdW  Elec       q    Type
REMARK                         _______ _______ _______ _____ _____    ______ ____
ROOT
ATOM     11  C   UNL     1      16.831   7.366  19.979  0.00  0.00    -0.017 A 
ATOM     16  C   UNL     1      17.417   6.143  19.654  0.00  0.00    +0.008 A 
ATOM     17  C   UNL     1      17.540   8.301  20.733  0.00  0.00    +0.008 A 
ATOM     20  C   UNL     1      19.422   6.789  20.837  0.00  0.00    +0.048 A 
ATOM     21  C   UNL     1      18.713   5.855  20.083  0.00  0.00    +0.025 A 
ATOM     22  C   UNL     1      18.836   8.013  21.162  0.00  0.00    +0.025 A 
ENDROOT
BRANCH  11  10
ATOM      2  O   UNL     1      15.272   7.089  18.221  0.00  0.00    -0.361 OA
ATOM      4  O   UNL     1      11.738   7.307  17.815  0.00  0.00    -0.273 OA
ATOM      7  N   UNL     1      12.983   7.243  19.785  0.00  0.00    -0.295 N 
ATOM      9  C   UNL     1      14.316   7.122  20.425  0.00  0.00    +0.134 C 
ATOM     10  C   UNL     1      15.424   7.680  19.512  0.00  0.00    +0.171 C 
ATOM     13  C   UNL     1      14.093   7.544  17.600  0.00  0.00    +0.256 C 
ATOM     14  C   UNL     1      12.823   7.331  18.401  0.00  0.00    +0.242 C 
ATOM     15  C   UNL     1      11.800   7.022  20.612  0.00  0.00    +0.132 C 
BRANCH   9  12
ATOM     12  C   UNL     1      14.367   7.789  21.807  0.00  0.00    +0.181 C 
BRANCH  12   3
ATOM      3  O   UNL     1      15.041   6.918  22.691  0.00  0.00    -0.393 OA
ATOM     26  H   UNL     1      14.479   6.134  22.807  0.00  0.00    +0.209 HD
ENDBRANCH  12   3
ENDBRANCH   9  12
ENDBRANCH  11  10
BRANCH  20   8
ATOM      8  N   UNL     1      20.748   6.493  21.276  0.00  0.00    -0.221 N 
ATOM     25  H   UNL     1      21.276   5.890  20.631  0.00  0.00    +0.173 HD
BRANCH   8   1
ATOM      1  S   UNL     1      21.000   6.176  22.950  0.00  0.00    +0.043 S 
ATOM      5  O   UNL     1      19.739   6.354  23.645  0.00  0.00    -0.155 OA
ATOM      6  O   UNL     1      21.780   4.970  23.138  0.00  0.00    -0.155 OA
BRANCH   1  19
ATOM     19  C   UNL     1      22.026   7.565  23.380  0.00  0.00    +0.191 C 
BRANCH  19  18
ATOM     18  C   UNL     1      22.817   8.112  22.190  0.00  0.00    +0.006 C 
ATOM     23  C   UNL     1      22.952   9.631  22.311  0.00  0.00    +0.009 C 
ATOM     24  C   UNL     1      24.205   7.479  22.085  0.00  0.00    +0.009 C 
ENDBRANCH  19  18
ENDBRANCH   1  19
ENDBRANCH   8   1
ENDBRANCH  20   8
TORSDOF 7
ENDMDL
MODEL 5
REMARK VINA RESULT:      -5.9     27.828     30.151
REMARK  Name = 71693657
REMARK  10 active torsions:
REMARK  status: ('A' for Active; 'I' for Inactive)
REMARK    1  A    between atoms: S_1  and  N_8
REMARK    2  A    between atoms: S_1  and  C_19
REMARK    3  A    between atoms: O_3  and  C_12
REMARK    4  A    between atoms: N_7  and  C_15
REMARK    5  A    between atoms: N_8  and  C_20
REMARK    6  A    between atoms: C_9  and  C_12
REMARK    7  A    between atoms: C_10  and  C_11
REMARK    8  A    between atoms: C_18  and  C_19
REMARK    9  A    between atoms: C_18  and  C_23
REMARK   10  A    between atoms: C_18  and  C_24
REMARK                            x       y       z     vdW  Elec       q    Type
REMARK                         _______ _______ _______ _____ _____    ______ ____
ROOT
ATOM     11  C   UNL     1      -6.255 -10.681  16.773  0.00  0.00    -0.017 A 
ATOM     16  C   UNL     1      -4.962 -10.274  17.100  0.00  0.00    +0.008 A 
ATOM     17  C   UNL     1      -6.450 -11.805  15.971  0.00  0.00    +0.008 A 
ATOM     20  C   UNL     1      -4.059 -12.114  15.820  0.00  0.00    +0.048 A 
ATOM     21  C   UNL     1      -3.864 -10.990  16.623  0.00  0.00    +0.025 A 
ATOM     22  C   UNL     1      -5.352 -12.521  15.494  0.00  0.00    +0.025 A 
ENDROOT
BRANCH  11  10
ATOM      2  O   UNL     1      -8.155  -9.416  16.149  0.00  0.00    -0.361 OA
ATOM      4  O   UNL     1     -11.214  -8.393  17.662  0.00  0.00    -0.273 OA
ATOM      7  N   UNL     1      -9.685  -9.992  18.393  0.00  0.00    -0.295 N 
ATOM      9  C   UNL     1      -8.429 -10.739  18.136  0.00  0.00    +0.134 C 
ATOM     10  C   UNL     1      -7.448  -9.904  17.291  0.00  0.00    +0.171 C 
ATOM     13  C   UNL     1      -9.127  -8.472  16.530  0.00  0.00    +0.256 C 
ATOM     14  C   UNL     1     -10.122  -8.957  17.565  0.00  0.00    +0.242 C 
ATOM     15  C   UNL     1     -10.603 -10.517  19.401  0.00  0.00    +0.132 C 
BRANCH   9  12
ATOM     12  C   UNL     1      -7.754 -11.218  19.430  0.00  0.00    +0.181 C 
BRANCH  12   3
ATOM      3  O   UNL     1      -7.116 -10.111  20.030  0.00  0.00    -0.393 OA
ATOM     26  H   UNL     1      -6.559 -10.455  20.749  0.00  0.00    +0.209 HD
ENDBRANCH  12   3
ENDBRANCH   9  12
ENDBRANCH  11  10
BRANCH  20   8
ATOM      8  N   UNL     1      -2.934 -12.846  15.333  0.00  0.00    -0.221 N 
ATOM     25  H   UNL     1      -2.394 -13.320  16.069  0.00  0.00    +0.173 HD
BRANCH   8   1
ATOM      1  S   UNL     1      -1.997 -12.151  14.066  0.00  0.00    +0.043 S 
ATOM      5  O   UNL     1      -1.574 -10.827  14.482  0.00  0.00    -0.155 OA
ATOM      6  O   UNL     1      -1.034 -13.103  13.550  0.00  0.00    -0.155 OA
BRANCH   1  19
ATOM     19  C   UNL     1      -3.259 -11.925  12.831  0.00  0.00    +0.191 C 
BRANCH  19  18
ATOM     18  C   UNL     1      -3.557 -10.452  12.546  0.00  0.00    +0.006 C 
ATOM     23  C   UNL     1      -3.028 -10.074  11.161  0.00  0.00    +0.009 C 
ATOM     24  C   UNL     1      -5.053 -10.145  12.627  0.00  0.00    +0.009 C 
ENDBRANCH  19  18
ENDBRANCH   1  19
ENDBRANCH   8   1
ENDBRANCH  20   8
TORSDOF 7
ENDMDL
MODEL 6
REMARK VINA RESULT:      -5.7     28.147     30.919
REMARK  Name = 71693657
REMARK  10 active torsions:
REMARK  status: ('A' for Active; 'I' for Inactive)
REMARK    1  A    between atoms: S_1  and  N_8
REMARK    2  A    between atoms: S_1  and  C_19
REMARK    3  A    between atoms: O_3  and  C_12
REMARK    4  A    between atoms: N_7  and  C_15
REMARK    5  A    between atoms: N_8  and  C_20
REMARK    6  A    between atoms: C_9  and  C_12
REMARK    7  A    between atoms: C_10  and  C_11
REMARK    8  A    between atoms: C_18  and  C_19
REMARK    9  A    between atoms: C_18  and  C_23
REMARK   10  A    between atoms: C_18  and  C_24
REMARK                            x       y       z     vdW  Elec       q    Type
REMARK                         _______ _______ _______ _____ _____    ______ ____
ROOT
ATOM     11  C   UNL     1     -13.729   7.505  21.040  0.00  0.00    -0.017 A 
ATOM     16  C   UNL     1     -14.352   7.742  19.815  0.00  0.00    +0.008 A 
ATOM     17  C   UNL     1     -12.346   7.334  21.098  0.00  0.00    +0.008 A 
ATOM     20  C   UNL     1     -12.209   7.636  18.705  0.00  0.00    +0.048 A 
ATOM     21  C   UNL     1     -13.592   7.807  18.648  0.00  0.00    +0.025 A 
ATOM     22  C   UNL     1     -11.586   7.399  19.930  0.00  0.00    +0.025 A 
ENDROOT
BRANCH  11  10
ATOM      2  O   UNL     1     -15.685   8.286  22.119  0.00  0.00    -0.361 OA
ATOM      4  O   UNL     1     -17.736   7.271  24.850  0.00  0.00    -0.273 OA
ATOM      7  N   UNL     1     -16.070   6.071  23.746  0.00  0.00    -0.295 N 
ATOM      9  C   UNL     1     -15.073   6.025  22.649  0.00  0.00    +0.134 C 
ATOM     10  C   UNL     1     -14.554   7.435  22.309  0.00  0.00    +0.171 C 
ATOM     13  C   UNL     1     -16.369   8.486  23.333  0.00  0.00    +0.256 C 
ATOM     14  C   UNL     1     -16.811   7.218  24.036  0.00  0.00    +0.242 C 
ATOM     15  C   UNL     1     -16.455   4.811  24.378  0.00  0.00    +0.132 C 
BRANCH   9  12
ATOM     12  C   UNL     1     -13.903   5.078  22.957  0.00  0.00    +0.181 C 
BRANCH  12   3
ATOM      3  O   UNL     1     -13.875   4.075  21.964  0.00  0.00    -0.393 OA
ATOM     26  H   UNL     1     -13.239   3.400  22.254  0.00  0.00    +0.209 HD
ENDBRANCH  12   3
ENDBRANCH   9  12
ENDBRANCH  11  10
BRANCH  20   8
ATOM      8  N   UNL     1     -11.432   7.703  17.509  0.00  0.00    -0.221 N 
ATOM     25  H   UNL     1     -10.914   6.840  17.298  0.00  0.00    +0.173 HD
BRANCH   8   1
ATOM      1  S   UNL     1     -10.591   9.167  17.166  0.00  0.00    +0.043 S 
ATOM      5  O   UNL     1      -9.430   9.243  18.033  0.00  0.00    -0.155 OA
ATOM      6  O   UNL     1     -10.457   9.366  15.737  0.00  0.00    -0.155 OA
BRANCH   1  19
ATOM     19  C   UNL     1     -11.768  10.354  17.776  0.00  0.00    +0.191 C 
BRANCH  19  18
ATOM     18  C   UNL     1     -11.210  11.219  18.908  0.00  0.00    +0.006 C 
ATOM     23  C   UNL     1     -11.207  12.689  18.484  0.00  0.00    +0.009 C 
ATOM     24  C   UNL     1     -12.013  11.058  20.200  0.00  0.00    +0.009 C 
ENDBRANCH  19  18
ENDBRANCH   1  19
ENDBRANCH   8   1
ENDBRANCH  20   8
TORSDOF 7
ENDMDL
MODEL 7
REMARK VINA RESULT:      -5.6     16.685     19.114
REMARK  Name = 71693657
REMARK  10 active torsions:
REMARK  status: ('A' for Active; 'I' for Inactive)
REMARK    1  A    between atoms: S_1  and  N_8
REMARK    2  A    between atoms: S_1  and  C_19
REMARK    3  A    between atoms: O_3  and  C_12
REMARK    4  A    between atoms: N_7  and  C_15
REMARK    5  A    between atoms: N_8  and  C_20
REMARK    6  A    between atoms: C_9  and  C_12
REMARK    7  A    between atoms: C_10  and  C_11
REMARK    8  A    between atoms: C_18  and  C_19
REMARK    9  A    between atoms: C_18  and  C_23
REMARK   10  A    between atoms: C_18  and  C_24
REMARK                            x       y       z     vdW  Elec       q    Type
REMARK                         _______ _______ _______ _____ _____    ______ ____
ROOT
ATOM     11  C   UNL     1      11.531   5.054   2.538  0.00  0.00    -0.017 A 
ATOM     16  C   UNL     1      12.078   6.212   3.090  0.00  0.00    +0.008 A 
ATOM     17  C   UNL     1      10.612   4.301   3.269  0.00  0.00    +0.008 A 
ATOM     20  C   UNL     1      10.789   5.863   5.103  0.00  0.00    +0.048 A 
ATOM     21  C   UNL     1      11.707   6.616   4.372  0.00  0.00    +0.025 A 
ATOM     22  C   UNL     1      10.241   4.705   4.551  0.00  0.00    +0.025 A 
ENDROOT
BRANCH  11  10
ATOM      2  O   UNL     1      11.313   5.519   0.228  0.00  0.00    -0.361 OA
ATOM      4  O   UNL     1      13.073   4.722  -2.766  0.00  0.00    -0.273 OA
ATOM      7  N   UNL     1      13.753   4.450  -0.553  0.00  0.00    -0.295 N 
ATOM      9  C   UNL     1      13.451   4.643   0.886  0.00  0.00    +0.134 C 
ATOM     10  C   UNL     1      11.933   4.615   1.145  0.00  0.00    +0.171 C 
ATOM     13  C   UNL     1      11.417   5.040  -1.092  0.00  0.00    +0.256 C 
ATOM     14  C   UNL     1      12.829   4.745  -1.557  0.00  0.00    +0.242 C 
ATOM     15  C   UNL     1      15.136   4.174  -0.935  0.00  0.00    +0.132 C 
BRANCH   9  12
ATOM     12  C   UNL     1      14.170   3.622   1.780  0.00  0.00    +0.181 C 
BRANCH  12   3
ATOM      3  O   UNL     1      15.153   4.307   2.528  0.00  0.00    -0.393 OA
ATOM     26  H   UNL     1      16.000   3.855   2.372  0.00  0.00    +0.209 HD
ENDBRANCH  12   3
ENDBRANCH   9  12
ENDBRANCH  11  10
BRANCH  20   8
ATOM      8  N   UNL     1      10.410   6.278   6.415  0.00  0.00    -0.221 N 
ATOM     25  H   UNL     1      10.252   5.500   7.070  0.00  0.00    +0.173 HD
BRANCH   8   1
ATOM      1  S   UNL     1       9.314   7.598   6.567  0.00  0.00    +0.043 S 
ATOM      5  O   UNL     1       8.472   7.365   7.724  0.00  0.00    -0.155 OA
ATOM      6  O   UNL     1      10.001   8.864   6.398  0.00  0.00    -0.155 OA
BRANCH   1  19
ATOM     19  C   UNL     1       8.301   7.330   5.128  0.00  0.00    +0.191 C 
BRANCH  19  18
ATOM     18  C   UNL     1       8.429   8.450   4.092  0.00  0.00    +0.006 C 
ATOM     23  C   UNL     1       8.655   7.848   2.704  0.00  0.00    +0.009 C 
ATOM     24  C   UNL     1       7.193   9.350   4.068  0.00  0.00    +0.009 C 
ENDBRANCH  19  18
ENDBRANCH   1  19
ENDBRANCH   8   1
ENDBRANCH  20   8
TORSDOF 7
ENDMDL
MODEL 8
REMARK VINA RESULT:      -5.5     16.985     19.695
REMARK  Name = 71693657
REMARK  10 active torsions:
REMARK  status: ('A' for Active; 'I' for Inactive)
REMARK    1  A    between atoms: S_1  and  N_8
REMARK    2  A    between atoms: S_1  and  C_19
REMARK    3  A    between atoms: O_3  and  C_12
REMARK    4  A    between atoms: N_7  and  C_15
REMARK    5  A    between atoms: N_8  and  C_20
REMARK    6  A    between atoms: C_9  and  C_12
REMARK    7  A    between atoms: C_10  and  C_11
REMARK    8  A    between atoms: C_18  and  C_19
REMARK    9  A    between atoms: C_18  and  C_23
REMARK   10  A    between atoms: C_18  and  C_24
REMARK                            x       y       z     vdW  Elec       q    Type
REMARK                         _______ _______ _______ _____ _____    ______ ____
ROOT
ATOM     11  C   UNL     1      10.349   5.652   2.990  0.00  0.00    -0.017 A 
ATOM     16  C   UNL     1       9.983   6.489   1.936  0.00  0.00    +0.008 A 
ATOM     17  C   UNL     1      10.754   4.343   2.733  0.00  0.00    +0.008 A 
ATOM     20  C   UNL     1      10.426   4.706   0.367  0.00  0.00    +0.048 A 
ATOM     21  C   UNL     1      10.021   6.015   0.625  0.00  0.00    +0.025 A 
ATOM     22  C   UNL     1      10.793   3.870   1.421  0.00  0.00    +0.025 A 
ENDROOT
BRANCH  11  10
ATOM      2  O   UNL     1       9.491   5.260   5.160  0.00  0.00    -0.361 OA
ATOM      4  O   UNL     1      10.265   6.271   8.489  0.00  0.00    -0.273 OA
ATOM      7  N   UNL     1      11.545   6.502   6.555  0.00  0.00    -0.295 N 
ATOM      9  C   UNL     1      11.684   6.239   5.102  0.00  0.00    +0.134 C 
ATOM     10  C   UNL     1      10.307   6.166   4.415  0.00  0.00    +0.171 C 
ATOM     13  C   UNL     1       9.185   5.792   6.428  0.00  0.00    +0.256 C 
ATOM     14  C   UNL     1      10.385   6.189   7.264  0.00  0.00    +0.242 C 
ATOM     15  C   UNL     1      12.743   6.876   7.303  0.00  0.00    +0.132 C 
BRANCH   9  12
ATOM     12  C   UNL     1      12.583   7.269   4.401  0.00  0.00    +0.181 C 
BRANCH  12   3
ATOM      3  O   UNL     1      13.657   6.578   3.797  0.00  0.00    -0.393 OA
ATOM     26  H   UNL     1      14.215   6.231   4.514  0.00  0.00    +0.209 HD
ENDBRANCH  12   3
ENDBRANCH   9  12
ENDBRANCH  11  10
BRANCH  20   8
ATOM      8  N   UNL     1      10.466   4.223  -0.976  0.00  0.00    -0.221 N 
ATOM     25  H   UNL     1      10.058   3.286  -1.095  0.00  0.00    +0.173 HD
BRANCH   8   1
ATOM      1  S   UNL     1      11.879   4.533  -1.910  0.00  0.00    +0.043 S 
ATOM      5  O   UNL     1      11.678   3.989  -3.240  0.00  0.00    -0.155 OA
ATOM      6  O   UNL     1      12.329   5.899  -1.734  0.00  0.00    -0.155 OA
BRANCH   1  19
ATOM     19  C   UNL     1      13.040   3.465  -1.086  0.00  0.00    +0.191 C 
BRANCH  19  18
ATOM     18  C   UNL     1      14.134   4.234  -0.343  0.00  0.00    +0.006 C 
ATOM     23  C   UNL     1      14.353   3.618   1.040  0.00  0.00    +0.009 C 
ATOM     24  C   UNL     1      15.453   4.244  -1.117  0.00  0.00    +0.009 C 
ENDBRANCH  19  18
ENDBRANCH   1  19
ENDBRANCH   8   1
ENDBRANCH  20   8
TORSDOF 7
ENDMDL
MODEL 9
REMARK VINA RESULT:      -5.5      2.916      8.263
REMARK  Name = 71693657
REMARK  10 active torsions:
REMARK  status: ('A' for Active; 'I' for Inactive)
REMARK    1  A    between atoms: S_1  and  N_8
REMARK    2  A    between atoms: S_1  and  C_19
REMARK    3  A    between atoms: O_3  and  C_12
REMARK    4  A    between atoms: N_7  and  C_15
REMARK    5  A    between atoms: N_8  and  C_20
REMARK    6  A    between atoms: C_9  and  C_12
REMARK    7  A    between atoms: C_10  and  C_11
REMARK    8  A    between atoms: C_18  and  C_19
REMARK    9  A    between atoms: C_18  and  C_23
REMARK   10  A    between atoms: C_18  and  C_24
REMARK                            x       y       z     vdW  Elec       q    Type
REMARK                         _______ _______ _______ _____ _____    ______ ____
ROOT
ATOM     11  C   UNL     1      16.128   7.507  20.180  0.00  0.00    -0.017 A 
ATOM     16  C   UNL     1      16.571   6.324  19.590  0.00  0.00    +0.008 A 
ATOM     17  C   UNL     1      17.026   8.321  20.870  0.00  0.00    +0.008 A 
ATOM     20  C   UNL     1      18.810   6.768  20.379  0.00  0.00    +0.048 A 
ATOM     21  C   UNL     1      17.912   5.954  19.689  0.00  0.00    +0.025 A 
ATOM     22  C   UNL     1      18.367   7.951  20.969  0.00  0.00    +0.025 A 
ENDROOT
BRANCH  11  10
ATOM      2  O   UNL     1      13.946   6.746  19.672  0.00  0.00    -0.361 OA
ATOM      4  O   UNL     1      10.604   7.809  20.300  0.00  0.00    -0.273 OA
ATOM      7  N   UNL     1      12.584   8.556  21.277  0.00  0.00    -0.295 N 
ATOM      9  C   UNL     1      14.057   8.423  21.388  0.00  0.00    +0.134 C 
ATOM     10  C   UNL     1      14.671   7.910  20.072  0.00  0.00    +0.171 C 
ATOM     13  C   UNL     1      12.631   7.081  19.297  0.00  0.00    +0.256 C 
ATOM     14  C   UNL     1      11.836   7.829  20.349  0.00  0.00    +0.242 C 
ATOM     15  C   UNL     1      11.878   9.286  22.327  0.00  0.00    +0.132 C 
BRANCH   9  12
ATOM     12  C   UNL     1      14.734   9.730  21.827  0.00  0.00    +0.181 C 
BRANCH  12   3
ATOM      3  O   UNL     1      14.919   9.682  23.226  0.00  0.00    -0.393 OA
ATOM     26  H   UNL     1      14.339  10.358  23.616  0.00  0.00    +0.209 HD
ENDBRANCH  12   3
ENDBRANCH   9  12
ENDBRANCH  11  10
BRANCH  20   8
ATOM      8  N   UNL     1      20.183   6.389  20.480  0.00  0.00    -0.221 N 
ATOM     25  H   UNL     1      20.474   5.687  19.787  0.00  0.00    +0.173 HD
BRANCH   8   1
ATOM      1  S   UNL     1      20.860   6.194  22.052  0.00  0.00    +0.043 S 
ATOM      5  O   UNL     1      21.919   7.171  22.219  0.00  0.00    -0.155 OA
ATOM      6  O   UNL     1      19.820   6.056  23.051  0.00  0.00    -0.155 OA
BRANCH   1  19
ATOM     19  C   UNL     1      21.646   4.609  21.859  0.00  0.00    +0.191 C 
BRANCH  19  18
ATOM     18  C   UNL     1      22.686   4.323  22.945  0.00  0.00    +0.006 C 
ATOM     23  C   UNL     1      22.560   2.874  23.416  0.00  0.00    +0.009 C 
ATOM     24  C   UNL     1      24.111   4.583  22.454  0.00  0.00    +0.009 C 
ENDBRANCH  19  18
ENDBRANCH   1  19
ENDBRANCH   8   1
ENDBRANCH  20   8
TORSDOF 7
ENDMDL
MODEL 10
REMARK VINA RESULT:      -5.5     28.051     31.091
REMARK  Name = 71693657
REMARK  10 active torsions:
REMARK  status: ('A' for Active; 'I' for Inactive)
REMARK    1  A    between atoms: S_1  and  N_8
REMARK    2  A    between atoms: S_1  and  C_19
REMARK    3  A    between atoms: O_3  and  C_12
REMARK    4  A    between atoms: N_7  and  C_15
REMARK    5  A    between atoms: N_8  and  C_20
REMARK    6  A    between atoms: C_9  and  C_12
REMARK    7  A    between atoms: C_10  and  C_11
REMARK    8  A    between atoms: C_18  and  C_19
REMARK    9  A    between atoms: C_18  and  C_23
REMARK   10  A    between atoms: C_18  and  C_24
REMARK                            x       y       z     vdW  Elec       q    Type
REMARK                         _______ _______ _______ _____ _____    ______ ____
ROOT
ATOM     11  C   UNL     1     -13.377   6.966  21.301  0.00  0.00    -0.017 A 
ATOM     16  C   UNL     1     -13.716   8.307  21.472  0.00  0.00    +0.008 A 
ATOM     17  C   UNL     1     -12.179   6.624  20.673  0.00  0.00    +0.008 A 
ATOM     20  C   UNL     1     -11.660   8.967  20.390  0.00  0.00    +0.048 A 
ATOM     21  C   UNL     1     -12.858   9.308  21.017  0.00  0.00    +0.025 A 
ATOM     22  C   UNL     1     -11.320   7.625  20.218  0.00  0.00    +0.025 A 
ENDROOT
BRANCH  11  10
ATOM      2  O   UNL     1     -14.164   5.821  23.216  0.00  0.00    -0.361 OA
ATOM      4  O   UNL     1     -16.985   3.822  24.080  0.00  0.00    -0.273 OA
ATOM      7  N   UNL     1     -16.665   5.167  22.204  0.00  0.00    -0.295 N 
ATOM      9  C   UNL     1     -15.795   6.126  21.479  0.00  0.00    +0.134 C 
ATOM     10  C   UNL     1     -14.308   5.878  21.796  0.00  0.00    +0.171 C 
ATOM     13  C   UNL     1     -14.793   4.673  23.736  0.00  0.00    +0.256 C 
ATOM     14  C   UNL     1     -16.259   4.527  23.375  0.00  0.00    +0.242 C 
ATOM     15  C   UNL     1     -18.069   5.079  21.809  0.00  0.00    +0.132 C 
BRANCH   9  12
ATOM     12  C   UNL     1     -16.035   6.107  19.962  0.00  0.00    +0.181 C 
BRANCH  12   3
ATOM      3  O   UNL     1     -16.586   7.353  19.588  0.00  0.00    -0.393 OA
ATOM     26  H   UNL     1     -17.373   7.497  20.140  0.00  0.00    +0.209 HD
ENDBRANCH  12   3
ENDBRANCH   9  12
ENDBRANCH  11  10
BRANCH  20   8
ATOM      8  N   UNL     1     -10.782   9.992  19.924  0.00  0.00    -0.221 N 
ATOM     25  H   UNL     1     -10.871  10.881  20.433  0.00  0.00    +0.173 HD
BRANCH   8   1
ATOM      1  S   UNL     1     -10.532  10.140  18.226  0.00  0.00    +0.043 S 
ATOM      5  O   UNL     1     -10.046  11.478  17.949  0.00  0.00    -0.155 OA
ATOM      6  O   UNL     1      -9.839   8.981  17.701  0.00  0.00    -0.155 OA
BRANCH   1  19
ATOM     19  C   UNL     1     -12.217  10.074  17.655  0.00  0.00    +0.191 C 
BRANCH  19  18
ATOM     18  C   UNL     1     -12.548   8.770  16.926  0.00  0.00    +0.006 C 
ATOM     23  C   UNL     1     -13.865   8.200  17.457  0.00  0.00    +0.009 C 
ATOM     24  C   UNL     1     -12.646   8.969  15.413  0.00  0.00    +0.009 C 
ENDBRANCH  19  18
ENDBRANCH   1  19
ENDBRANCH   8   1
ENDBRANCH  20   8
TORSDOF 7
ENDMDL
