MODEL 1
REMARK VINA RESULT:      -7.5      0.000      0.000
REMARK  Name = 25390052
REMARK  8 active torsions:
REMARK  status: ('A' for Active; 'I' for Inactive)
REMARK    1  A    between atoms: N_3  and  C_10
REMARK    2  A    between atoms: N_4  and  C_18
REMARK    3  A    between atoms: N_6  and  C_25
REMARK    4  A    between atoms: C_8  and  C_11
REMARK    5  A    between atoms: C_14  and  C_16
REMARK    6  A    between atoms: C_15  and  C_17
REMARK    7  A    between atoms: C_24  and  C_26
REMARK    8  A    between atoms: C_29  and  C_32
REMARK                            x       y       z     vdW  Elec       q    Type
REMARK                         _______ _______ _______ _____ _____    ______ ____
ROOT
ATOM      8  C   UNL     1      -5.562  -9.126   9.542  0.00  0.00    +0.047 C 
ATOM      9  C   UNL     1      -5.736 -10.386  10.415  0.00  0.00    +0.039 C 
ATOM     10  C   UNL     1      -4.396 -10.584  11.135  0.00  0.00    +0.098 C 
ATOM     12  C   UNL     1      -4.070  -9.037   9.398  0.00  0.00    -0.021 C 
ATOM     13  C   UNL     1      -3.440  -9.830  10.270  0.00  0.00    -0.009 C 
ENDROOT
BRANCH   8  11
ATOM      4  N   UNL     1      -7.729  -8.869   6.600  0.00  0.00    -0.236 N 
ATOM      5  N   UNL     1      -6.937  -9.850   6.136  0.00  0.00    -0.171 NA
ATOM     11  C   UNL     1      -6.320  -9.196   8.236  0.00  0.00    +0.003 A 
ATOM     14  C   UNL     1      -7.402  -8.441   7.852  0.00  0.00    +0.046 A 
ATOM     15  C   UNL     1      -6.078 -10.046   7.140  0.00  0.00    +0.064 A 
ATOM     16  C   UNL     1      -8.134  -7.372   8.561  0.00  0.00    +0.066 C 
ATOM     17  C   UNL     1      -5.027 -11.070   7.005  0.00  0.00    +0.068 C 
BRANCH   4  18
ATOM      1 CL   UNL     1      -9.143  -6.280   2.434  0.00  0.00    -0.083 Cl
ATOM     18  C   UNL     1      -8.771  -8.388   5.805  0.00  0.00    +0.067 A 
ATOM     20  C   UNL     1      -8.488  -7.658   4.649  0.00  0.00    +0.048 A 
ATOM     21  C   UNL     1     -10.095  -8.635   6.167  0.00  0.00    +0.028 A 
ATOM     22  C   UNL     1      -9.530  -7.177   3.856  0.00  0.00    +0.046 A 
ATOM     23  C   UNL     1     -11.137  -8.152   5.374  0.00  0.00    +0.007 A 
ATOM     24  C   UNL     1     -10.854  -7.423   4.219  0.00  0.00    -0.032 A 
ATOM     26  C   UNL     1     -11.998  -6.924   3.397  0.00  0.00    +0.045 C 
ENDBRANCH   4  18
ENDBRANCH   8  11
BRANCH  10   3
ATOM      2  O   UNL     1      -5.565 -11.717  13.494  0.00  0.00    -0.252 OA
ATOM      3  N   UNL     1      -4.386 -10.018  12.457  0.00  0.00    -0.293 N 
ATOM      6  N   UNL     1      -4.814  -9.857  14.712  0.00  0.00    -0.269 N 
ATOM     19  C   UNL     1      -4.983 -10.637  13.565  0.00  0.00    +0.304 C 
ATOM     33  H   UNL     1      -3.967  -9.102  12.593  0.00  0.00    +0.151 HD
ATOM     34  H   UNL     1      -4.304  -8.984  14.599  0.00  0.00    +0.156 HD
BRANCH   6  25
ATOM     25  C   UNL     1      -5.267 -10.132  16.024  0.00  0.00    +0.036 A 
ATOM     27  C   UNL     1      -4.442 -10.812  16.919  0.00  0.00    +0.042 A 
ATOM     28  C   UNL     1      -6.539  -9.721  16.422  0.00  0.00    +0.023 A 
ATOM     29  C   UNL     1      -4.889 -11.083  18.212  0.00  0.00    +0.054 A 
ATOM     30  C   UNL     1      -6.987  -9.991  17.715  0.00  0.00    +0.003 A 
ATOM     31  C   UNL     1      -6.162 -10.672  18.611  0.00  0.00    +0.019 A 
BRANCH  29  32
ATOM      7  N   UNL     1      -3.358 -12.347  19.874  0.00  0.00    -0.191 NA
ATOM     32  C   UNL     1      -4.044 -11.780  19.130  0.00  0.00    +0.099 C 
ENDBRANCH  29  32
ENDBRANCH   6  25
ENDBRANCH  10   3
TORSDOF 5
ENDMDL
MODEL 2
REMARK VINA RESULT:      -7.3     29.020     31.379
REMARK  Name = 25390052
REMARK  8 active torsions:
REMARK  status: ('A' for Active; 'I' for Inactive)
REMARK    1  A    between atoms: N_3  and  C_10
REMARK    2  A    between atoms: N_4  and  C_18
REMARK    3  A    between atoms: N_6  and  C_25
REMARK    4  A    between atoms: C_8  and  C_11
REMARK    5  A    between atoms: C_14  and  C_16
REMARK    6  A    between atoms: C_15  and  C_17
REMARK    7  A    between atoms: C_24  and  C_26
REMARK    8  A    between atoms: C_29  and  C_32
REMARK                            x       y       z     vdW  Elec       q    Type
REMARK                         _______ _______ _______ _____ _____    ______ ____
ROOT
ATOM      8  C   UNL     1      14.339   8.905  19.966  0.00  0.00    +0.047 C 
ATOM      9  C   UNL     1      14.721   7.554  20.603  0.00  0.00    +0.039 C 
ATOM     10  C   UNL     1      15.228   6.676  19.452  0.00  0.00    +0.098 C 
ATOM     12  C   UNL     1      14.131   8.535  18.526  0.00  0.00    -0.021 C 
ATOM     13  C   UNL     1      14.619   7.322  18.250  0.00  0.00    -0.009 C 
ENDROOT
BRANCH   8  11
ATOM      4  N   UNL     1      11.803  10.963  21.626  0.00  0.00    -0.236 N 
ATOM      5  N   UNL     1      11.048   9.863  21.473  0.00  0.00    -0.171 NA
ATOM     11  C   UNL     1      13.149   9.562  20.628  0.00  0.00    +0.003 A 
ATOM     14  C   UNL     1      13.070  10.836  21.136  0.00  0.00    +0.046 A 
ATOM     15  C   UNL     1      11.876   9.009  20.863  0.00  0.00    +0.064 A 
ATOM     16  C   UNL     1      14.074  11.918  21.194  0.00  0.00    +0.066 C 
ATOM     17  C   UNL     1      11.400   7.659  20.518  0.00  0.00    +0.068 C 
BRANCH   4  18
ATOM      1 CL   UNL     1      10.469  13.298  25.965  0.00  0.00    -0.083 Cl
ATOM     18  C   UNL     1      11.262  12.093  22.241  0.00  0.00    +0.067 A 
ATOM     20  C   UNL     1      11.143  12.142  23.631  0.00  0.00    +0.048 A 
ATOM     21  C   UNL     1      10.839  13.172  21.467  0.00  0.00    +0.028 A 
ATOM     22  C   UNL     1      10.601  13.271  24.244  0.00  0.00    +0.046 A 
ATOM     23  C   UNL     1      10.296  14.302  22.081  0.00  0.00    +0.007 A 
ATOM     24  C   UNL     1      10.177  14.351  23.470  0.00  0.00    -0.032 A 
ATOM     26  C   UNL     1       9.590  15.578  24.089  0.00  0.00    +0.045 C 
ENDBRANCH   4  18
ENDBRANCH   8  11
BRANCH  10   3
ATOM      2  O   UNL     1      17.137   6.035  21.490  0.00  0.00    -0.252 OA
ATOM      3  N   UNL     1      16.661   6.697  19.325  0.00  0.00    -0.293 N 
ATOM      6  N   UNL     1      18.861   6.478  19.960  0.00  0.00    -0.269 N 
ATOM     19  C   UNL     1      17.531   6.369  20.374  0.00  0.00    +0.304 C 
ATOM     33  H   UNL     1      17.069   7.009  18.449  0.00  0.00    +0.151 HD
ATOM     34  H   UNL     1      19.017   6.767  18.997  0.00  0.00    +0.156 HD
BRANCH   6  25
ATOM     25  C   UNL     1      20.031   6.234  20.718  0.00  0.00    +0.036 A 
ATOM     27  C   UNL     1      20.711   5.024  20.582  0.00  0.00    +0.042 A 
ATOM     28  C   UNL     1      20.502   7.203  21.602  0.00  0.00    +0.023 A 
ATOM     29  C   UNL     1      21.864   4.784  21.329  0.00  0.00    +0.054 A 
ATOM     30  C   UNL     1      21.655   6.964  22.351  0.00  0.00    +0.003 A 
ATOM     31  C   UNL     1      22.336   5.754  22.214  0.00  0.00    +0.019 A 
BRANCH  29  32
ATOM      7  N   UNL     1      23.128   2.539  21.075  0.00  0.00    -0.191 NA
ATOM     32  C   UNL     1      22.562   3.545  21.189  0.00  0.00    +0.099 C 
ENDBRANCH  29  32
ENDBRANCH   6  25
ENDBRANCH  10   3
TORSDOF 5
ENDMDL
MODEL 3
REMARK VINA RESULT:      -7.3      1.359      1.796
REMARK  Name = 25390052
REMARK  8 active torsions:
REMARK  status: ('A' for Active; 'I' for Inactive)
REMARK    1  A    between atoms: N_3  and  C_10
REMARK    2  A    between atoms: N_4  and  C_18
REMARK    3  A    between atoms: N_6  and  C_25
REMARK    4  A    between atoms: C_8  and  C_11
REMARK    5  A    between atoms: C_14  and  C_16
REMARK    6  A    between atoms: C_15  and  C_17
REMARK    7  A    between atoms: C_24  and  C_26
REMARK    8  A    between atoms: C_29  and  C_32
REMARK                            x       y       z     vdW  Elec       q    Type
REMARK                         _______ _______ _______ _____ _____    ______ ____
ROOT
ATOM      8  C   UNL     1      -5.117  -9.404  10.165  0.00  0.00    +0.047 C 
ATOM      9  C   UNL     1      -5.282 -10.699  10.986  0.00  0.00    +0.039 C 
ATOM     10  C   UNL     1      -3.998 -10.835  11.815  0.00  0.00    +0.098 C 
ATOM     12  C   UNL     1      -3.627  -9.217  10.155  0.00  0.00    -0.021 C 
ATOM     13  C   UNL     1      -3.023  -9.996  11.057  0.00  0.00    -0.009 C 
ENDROOT
BRANCH   8  11
ATOM      4  N   UNL     1      -6.961  -9.116   7.013  0.00  0.00    -0.236 N 
ATOM      5  N   UNL     1      -6.243 -10.203   6.685  0.00  0.00    -0.171 NA
ATOM     11  C   UNL     1      -5.754  -9.480   8.796  0.00  0.00    +0.003 A 
ATOM     14  C   UNL     1      -6.706  -8.643   8.266  0.00  0.00    +0.046 A 
ATOM     15  C   UNL     1      -5.507 -10.421   7.778  0.00  0.00    +0.064 A 
ATOM     16  C   UNL     1      -7.378  -7.459   8.839  0.00  0.00    +0.066 C 
ATOM     17  C   UNL     1      -4.567 -11.556   7.806  0.00  0.00    +0.068 C 
BRANCH   4  18
ATOM      1 CL   UNL     1      -7.865  -7.605   2.222  0.00  0.00    -0.083 Cl
ATOM     18  C   UNL     1      -7.866  -8.582   6.094  0.00  0.00    +0.067 A 
ATOM     20  C   UNL     1      -7.476  -8.378   4.769  0.00  0.00    +0.048 A 
ATOM     21  C   UNL     1      -9.158  -8.252   6.500  0.00  0.00    +0.028 A 
ATOM     22  C   UNL     1      -8.381  -7.843   3.852  0.00  0.00    +0.046 A 
ATOM     23  C   UNL     1     -10.062  -7.716   5.581  0.00  0.00    +0.007 A 
ATOM     24  C   UNL     1      -9.673  -7.512   4.258  0.00  0.00    -0.032 A 
ATOM     26  C   UNL     1     -10.670  -6.936   3.305  0.00  0.00    +0.045 C 
ENDBRANCH   4  18
ENDBRANCH   8  11
BRANCH  10   3
ATOM      2  O   UNL     1      -4.476 -12.340  14.207  0.00  0.00    -0.252 OA
ATOM      3  N   UNL     1      -4.139 -10.311  13.148  0.00  0.00    -0.293 N 
ATOM      6  N   UNL     1      -4.462 -10.334  15.425  0.00  0.00    -0.269 N 
ATOM     19  C   UNL     1      -4.372 -11.117  14.272  0.00  0.00    +0.304 C 
ATOM     33  H   UNL     1      -4.114  -9.305  13.282  0.00  0.00    +0.151 HD
ATOM     34  H   UNL     1      -4.352  -9.330  15.305  0.00  0.00    +0.156 HD
BRANCH   6  25
ATOM     25  C   UNL     1      -4.690 -10.767  16.753  0.00  0.00    +0.036 A 
ATOM     27  C   UNL     1      -5.957 -10.639  17.321  0.00  0.00    +0.042 A 
ATOM     28  C   UNL     1      -3.647 -11.322  17.493  0.00  0.00    +0.023 A 
ATOM     29  C   UNL     1      -6.182 -11.066  18.630  0.00  0.00    +0.054 A 
ATOM     30  C   UNL     1      -3.871 -11.749  18.802  0.00  0.00    +0.003 A 
ATOM     31  C   UNL     1      -5.138 -11.621  19.371  0.00  0.00    +0.019 A 
BRANCH  29  32
ATOM      7  N   UNL     1      -8.535 -10.828  19.684  0.00  0.00    -0.191 NA
ATOM     32  C   UNL     1      -7.480 -10.935  19.212  0.00  0.00    +0.099 C 
ENDBRANCH  29  32
ENDBRANCH   6  25
ENDBRANCH  10   3
TORSDOF 5
ENDMDL
MODEL 4
REMARK VINA RESULT:      -7.2     23.641     25.433
REMARK  Name = 25390052
REMARK  8 active torsions:
REMARK  status: ('A' for Active; 'I' for Inactive)
REMARK    1  A    between atoms: N_3  and  C_10
REMARK    2  A    between atoms: N_4  and  C_18
REMARK    3  A    between atoms: N_6  and  C_25
REMARK    4  A    between atoms: C_8  and  C_11
REMARK    5  A    between atoms: C_14  and  C_16
REMARK    6  A    between atoms: C_15  and  C_17
REMARK    7  A    between atoms: C_24  and  C_26
REMARK    8  A    between atoms: C_29  and  C_32
REMARK                            x       y       z     vdW  Elec       q    Type
REMARK                         _______ _______ _______ _____ _____    ______ ____
ROOT
ATOM      8  C   UNL     1      12.867   5.003   0.011  0.00  0.00    +0.047 C 
ATOM      9  C   UNL     1      11.518   4.736   0.710  0.00  0.00    +0.039 C 
ATOM     10  C   UNL     1      11.851   3.919   1.965  0.00  0.00    +0.098 C 
ATOM     12  C   UNL     1      13.739   3.914   0.567  0.00  0.00    -0.021 C 
ATOM     13  C   UNL     1      13.183   3.330   1.632  0.00  0.00    -0.009 C 
ENDROOT
BRANCH   8  11
ATOM      4  N   UNL     1      12.439   4.498  -3.592  0.00  0.00    -0.236 N 
ATOM      5  N   UNL     1      12.855   5.774  -3.653  0.00  0.00    -0.171 NA
ATOM     11  C   UNL     1      12.764   5.023  -1.497  0.00  0.00    +0.003 A 
ATOM     14  C   UNL     1      12.366   4.001  -2.324  0.00  0.00    +0.046 A 
ATOM     15  C   UNL     1      13.053   6.090  -2.370  0.00  0.00    +0.064 A 
ATOM     16  C   UNL     1      11.933   2.622  -2.018  0.00  0.00    +0.066 C 
ATOM     17  C   UNL     1      13.524   7.441  -2.020  0.00  0.00    +0.068 C 
BRANCH   4  18
ATOM      1 CL   UNL     1      14.076   1.621  -7.478  0.00  0.00    -0.083 Cl
ATOM     18  C   UNL     1      12.128   3.816  -4.769  0.00  0.00    +0.067 A 
ATOM     20  C   UNL     1      13.127   3.135  -5.466  0.00  0.00    +0.048 A 
ATOM     21  C   UNL     1      10.819   3.816  -5.249  0.00  0.00    +0.028 A 
ATOM     22  C   UNL     1      12.815   2.453  -6.643  0.00  0.00    +0.046 A 
ATOM     23  C   UNL     1      10.508   3.135  -6.427  0.00  0.00    +0.007 A 
ATOM     24  C   UNL     1      11.506   2.454  -7.124  0.00  0.00    -0.032 A 
ATOM     26  C   UNL     1      11.133   1.738  -8.381  0.00  0.00    +0.045 C 
ENDBRANCH   4  18
ENDBRANCH   8  11
BRANCH  10   3
ATOM      2  O   UNL     1       9.787   4.517   3.859  0.00  0.00    -0.252 OA
ATOM      3  N   UNL     1      11.976   4.734   3.143  0.00  0.00    -0.293 N 
ATOM      6  N   UNL     1      11.329   5.802   5.075  0.00  0.00    -0.269 N 
ATOM     19  C   UNL     1      10.913   4.980   4.025  0.00  0.00    +0.304 C 
ATOM     33  H   UNL     1      12.862   5.195   3.327  0.00  0.00    +0.151 HD
ATOM     34  H   UNL     1      12.301   6.100   5.064  0.00  0.00    +0.156 HD
BRANCH   6  25
ATOM     25  C   UNL     1      10.559   6.277   6.164  0.00  0.00    +0.036 A 
ATOM     27  C   UNL     1      10.293   5.441   7.248  0.00  0.00    +0.042 A 
ATOM     28  C   UNL     1      10.067   7.582   6.152  0.00  0.00    +0.023 A 
ATOM     29  C   UNL     1       9.535   5.909   8.321  0.00  0.00    +0.054 A 
ATOM     30  C   UNL     1       9.308   8.051   7.225  0.00  0.00    +0.003 A 
ATOM     31  C   UNL     1       9.042   7.215   8.309  0.00  0.00    +0.019 A 
BRANCH  29  32
ATOM      7  N   UNL     1       9.042   4.358  10.334  0.00  0.00    -0.191 NA
ATOM     32  C   UNL     1       9.263   5.053   9.431  0.00  0.00    +0.099 C 
ENDBRANCH  29  32
ENDBRANCH   6  25
ENDBRANCH  10   3
TORSDOF 5
ENDMDL
MODEL 5
REMARK VINA RESULT:      -7.0     29.652     31.922
REMARK  Name = 25390052
REMARK  8 active torsions:
REMARK  status: ('A' for Active; 'I' for Inactive)
REMARK    1  A    between atoms: N_3  and  C_10
REMARK    2  A    between atoms: N_4  and  C_18
REMARK    3  A    between atoms: N_6  and  C_25
REMARK    4  A    between atoms: C_8  and  C_11
REMARK    5  A    between atoms: C_14  and  C_16
REMARK    6  A    between atoms: C_15  and  C_17
REMARK    7  A    between atoms: C_24  and  C_26
REMARK    8  A    between atoms: C_29  and  C_32
REMARK                            x       y       z     vdW  Elec       q    Type
REMARK                         _______ _______ _______ _____ _____    ______ ____
ROOT
ATOM      8  C   UNL     1      15.863   7.684  19.842  0.00  0.00    +0.047 C 
ATOM      9  C   UNL     1      17.136   8.287  20.470  0.00  0.00    +0.039 C 
ATOM     10  C   UNL     1      17.755   7.169  21.319  0.00  0.00    +0.098 C 
ATOM     12  C   UNL     1      15.563   6.536  20.763  0.00  0.00    -0.021 C 
ATOM     13  C   UNL     1      16.597   6.258  21.562  0.00  0.00    -0.009 C 
ENDROOT
BRANCH   8  11
ATOM      4  N   UNL     1      13.276  10.270  20.019  0.00  0.00    -0.236 N 
ATOM      5  N   UNL     1      13.011   9.857  18.768  0.00  0.00    -0.171 NA
ATOM     11  C   UNL     1      14.741   8.684  19.691  0.00  0.00    +0.003 A 
ATOM     14  C   UNL     1      14.303   9.601  20.616  0.00  0.00    +0.046 A 
ATOM     15  C   UNL     1      13.909   8.888  18.573  0.00  0.00    +0.064 A 
ATOM     16  C   UNL     1      14.769   9.886  21.988  0.00  0.00    +0.066 C 
ATOM     17  C   UNL     1      13.936   8.174  17.284  0.00  0.00    +0.068 C 
BRANCH   4  18
ATOM      1 CL   UNL     1      11.954  15.200  19.939  0.00  0.00    -0.083 Cl
ATOM     18  C   UNL     1      12.520  11.299  20.582  0.00  0.00    +0.067 A 
ATOM     20  C   UNL     1      12.594  12.589  20.054  0.00  0.00    +0.048 A 
ATOM     21  C   UNL     1      11.691  11.039  21.672  0.00  0.00    +0.028 A 
ATOM     22  C   UNL     1      11.838  13.618  20.618  0.00  0.00    +0.046 A 
ATOM     23  C   UNL     1      10.936  12.068  22.237  0.00  0.00    +0.007 A 
ATOM     24  C   UNL     1      11.010  13.357  21.709  0.00  0.00    -0.032 A 
ATOM     26  C   UNL     1      10.186  14.432  22.342  0.00  0.00    +0.045 C 
ENDBRANCH   4  18
ENDBRANCH   8  11
BRANCH  10   3
ATOM      2  O   UNL     1      20.080   5.956  22.475  0.00  0.00    -0.252 OA
ATOM      3  N   UNL     1      18.786   6.448  20.621  0.00  0.00    -0.293 N 
ATOM      6  N   UNL     1      20.726   5.245  20.334  0.00  0.00    -0.269 N 
ATOM     19  C   UNL     1      19.898   5.881  21.262  0.00  0.00    +0.304 C 
ATOM     33  H   UNL     1      18.737   6.381  19.609  0.00  0.00    +0.151 HD
ATOM     34  H   UNL     1      20.429   5.274  19.362  0.00  0.00    +0.156 HD
BRANCH   6  25
ATOM     25  C   UNL     1      21.939   4.558  20.580  0.00  0.00    +0.036 A 
ATOM     27  C   UNL     1      23.152   5.124  20.193  0.00  0.00    +0.042 A 
ATOM     28  C   UNL     1      21.919   3.314  21.211  0.00  0.00    +0.023 A 
ATOM     29  C   UNL     1      24.348   4.447  20.436  0.00  0.00    +0.054 A 
ATOM     30  C   UNL     1      23.114   2.636  21.454  0.00  0.00    +0.003 A 
ATOM     31  C   UNL     1      24.329   3.203  21.066  0.00  0.00    +0.019 A 
BRANCH  29  32
ATOM      7  N   UNL     1      26.602   5.499  19.717  0.00  0.00    -0.191 NA
ATOM     32  C   UNL     1      25.591   5.027  20.039  0.00  0.00    +0.099 C 
ENDBRANCH  29  32
ENDBRANCH   6  25
ENDBRANCH  10   3
TORSDOF 5
ENDMDL
MODEL 6
REMARK VINA RESULT:      -6.9      5.168      7.054
REMARK  Name = 25390052
REMARK  8 active torsions:
REMARK  status: ('A' for Active; 'I' for Inactive)
REMARK    1  A    between atoms: N_3  and  C_10
REMARK    2  A    between atoms: N_4  and  C_18
REMARK    3  A    between atoms: N_6  and  C_25
REMARK    4  A    between atoms: C_8  and  C_11
REMARK    5  A    between atoms: C_14  and  C_16
REMARK    6  A    between atoms: C_15  and  C_17
REMARK    7  A    between atoms: C_24  and  C_26
REMARK    8  A    between atoms: C_29  and  C_32
REMARK                            x       y       z     vdW  Elec       q    Type
REMARK                         _______ _______ _______ _____ _____    ______ ____
ROOT
ATOM      8  C   UNL     1      -9.924  -6.192   8.408  0.00  0.00    +0.047 C 
ATOM      9  C   UNL     1      -9.685  -7.527   9.143  0.00  0.00    +0.039 C 
ATOM     10  C   UNL     1      -8.625  -8.273   8.322  0.00  0.00    +0.098 C 
ATOM     12  C   UNL     1      -9.443  -6.498   7.019  0.00  0.00    -0.021 C 
ATOM     13  C   UNL     1      -8.734  -7.630   6.978  0.00  0.00    -0.009 C 
ENDROOT
BRANCH   8  11
ATOM      4  N   UNL     1     -13.168  -4.548   8.850  0.00  0.00    -0.236 N 
ATOM      5  N   UNL     1     -13.630  -5.678   8.289  0.00  0.00    -0.171 NA
ATOM     11  C   UNL     1     -11.355  -5.712   8.491  0.00  0.00    +0.003 A 
ATOM     14  C   UNL     1     -11.812  -4.518   8.993  0.00  0.00    +0.046 A 
ATOM     15  C   UNL     1     -12.518  -6.386   8.072  0.00  0.00    +0.064 A 
ATOM     16  C   UNL     1     -11.084  -3.376   9.584  0.00  0.00    +0.066 C 
ATOM     17  C   UNL     1     -12.616  -7.719   7.452  0.00  0.00    +0.068 C 
BRANCH   4  18
ATOM      1 CL   UNL     1     -15.738  -0.342   7.525  0.00  0.00    -0.083 Cl
ATOM     18  C   UNL     1     -14.063  -3.545   9.223  0.00  0.00    +0.067 A 
ATOM     20  C   UNL     1     -14.421  -2.554   8.308  0.00  0.00    +0.048 A 
ATOM     21  C   UNL     1     -14.598  -3.533  10.510  0.00  0.00    +0.028 A 
ATOM     22  C   UNL     1     -15.316  -1.551   8.683  0.00  0.00    +0.046 A 
ATOM     23  C   UNL     1     -15.492  -2.529  10.884  0.00  0.00    +0.007 A 
ATOM     24  C   UNL     1     -15.851  -1.538   9.970  0.00  0.00    -0.032 A 
ATOM     26  C   UNL     1     -16.811  -0.480  10.410  0.00  0.00    +0.045 C 
ENDBRANCH   4  18
ENDBRANCH   8  11
BRANCH  10   3
ATOM      2  O   UNL     1      -7.152 -10.086   9.982  0.00  0.00    -0.252 OA
ATOM      3  N   UNL     1      -7.293  -8.084   8.831  0.00  0.00    -0.293 N 
ATOM      6  N   UNL     1      -5.360  -8.569   9.980  0.00  0.00    -0.269 N 
ATOM     19  C   UNL     1      -6.638  -9.023   9.641  0.00  0.00    +0.304 C 
ATOM     33  H   UNL     1      -6.815  -7.209   8.635  0.00  0.00    +0.151 HD
ATOM     34  H   UNL     1      -5.086  -7.662   9.613  0.00  0.00    +0.156 HD
BRANCH   6  25
ATOM     25  C   UNL     1      -4.391  -9.222  10.779  0.00  0.00    +0.036 A 
ATOM     27  C   UNL     1      -4.760  -9.792  11.997  0.00  0.00    +0.042 A 
ATOM     28  C   UNL     1      -3.067  -9.294  10.347  0.00  0.00    +0.023 A 
ATOM     29  C   UNL     1      -3.805 -10.436  12.784  0.00  0.00    +0.054 A 
ATOM     30  C   UNL     1      -2.111  -9.938  11.134  0.00  0.00    +0.003 A 
ATOM     31  C   UNL     1      -2.480 -10.508  12.352  0.00  0.00    +0.019 A 
BRANCH  29  32
ATOM      7  N   UNL     1      -4.488 -11.495  15.045  0.00  0.00    -0.191 NA
ATOM     32  C   UNL     1      -4.182 -11.020  14.032  0.00  0.00    +0.099 C 
ENDBRANCH  29  32
ENDBRANCH   6  25
ENDBRANCH  10   3
TORSDOF 5
ENDMDL
MODEL 7
REMARK VINA RESULT:      -6.8     25.434     27.462
REMARK  Name = 25390052
REMARK  8 active torsions:
REMARK  status: ('A' for Active; 'I' for Inactive)
REMARK    1  A    between atoms: N_3  and  C_10
REMARK    2  A    between atoms: N_4  and  C_18
REMARK    3  A    between atoms: N_6  and  C_25
REMARK    4  A    between atoms: C_8  and  C_11
REMARK    5  A    between atoms: C_14  and  C_16
REMARK    6  A    between atoms: C_15  and  C_17
REMARK    7  A    between atoms: C_24  and  C_26
REMARK    8  A    between atoms: C_29  and  C_32
REMARK                            x       y       z     vdW  Elec       q    Type
REMARK                         _______ _______ _______ _____ _____    ______ ____
ROOT
ATOM      8  C   UNL     1      14.091   4.700   0.555  0.00  0.00    +0.047 C 
ATOM      9  C   UNL     1      12.669   5.279   0.696  0.00  0.00    +0.039 C 
ATOM     10  C   UNL     1      11.979   4.438   1.778  0.00  0.00    +0.098 C 
ATOM     12  C   UNL     1      13.931   3.314   1.112  0.00  0.00    -0.021 C 
ATOM     13  C   UNL     1      12.781   3.178   1.779  0.00  0.00    -0.009 C 
ENDROOT
BRANCH   8  11
ATOM      4  N   UNL     1      15.826   5.126  -2.643  0.00  0.00    -0.236 N 
ATOM      5  N   UNL     1      14.765   4.452  -3.119  0.00  0.00    -0.171 NA
ATOM     11  C   UNL     1      14.621   4.756  -0.859  0.00  0.00    +0.003 A 
ATOM     14  C   UNL     1      15.789   5.333  -1.295  0.00  0.00    +0.046 A 
ATOM     15  C   UNL     1      14.032   4.229  -2.025  0.00  0.00    +0.064 A 
ATOM     16  C   UNL     1      16.848   6.049  -0.556  0.00  0.00    +0.066 C 
ATOM     17  C   UNL     1      12.758   3.498  -2.142  0.00  0.00    +0.068 C 
BRANCH   4  18
ATOM      1 CL   UNL     1      20.252   4.054  -4.949  0.00  0.00    -0.083 Cl
ATOM     18  C   UNL     1      16.832   5.538  -3.517  0.00  0.00    +0.067 A 
ATOM     20  C   UNL     1      17.918   4.702  -3.777  0.00  0.00    +0.048 A 
ATOM     21  C   UNL     1      16.752   6.788  -4.131  0.00  0.00    +0.028 A 
ATOM     22  C   UNL     1      18.924   5.116  -4.651  0.00  0.00    +0.046 A 
ATOM     23  C   UNL     1      17.759   7.202  -5.004  0.00  0.00    +0.007 A 
ATOM     24  C   UNL     1      18.845   6.366  -5.264  0.00  0.00    -0.032 A 
ATOM     26  C   UNL     1      19.902   6.846  -6.204  0.00  0.00    +0.045 C 
ENDBRANCH   4  18
ENDBRANCH   8  11
BRANCH  10   3
ATOM      2  O   UNL     1       9.798   4.848   3.591  0.00  0.00    -0.252 OA
ATOM      3  N   UNL     1      12.046   5.044   3.081  0.00  0.00    -0.293 N 
ATOM      6  N   UNL     1      11.297   5.824   5.111  0.00  0.00    -0.269 N 
ATOM     19  C   UNL     1      10.929   5.209   3.912  0.00  0.00    +0.304 C 
ATOM     33  H   UNL     1      12.936   5.413   3.402  0.00  0.00    +0.151 HD
ATOM     34  H   UNL     1      12.280   6.059   5.220  0.00  0.00    +0.156 HD
BRANCH   6  25
ATOM     25  C   UNL     1      10.465   6.163   6.205  0.00  0.00    +0.036 A 
ATOM     27  C   UNL     1      10.537   5.430   7.389  0.00  0.00    +0.042 A 
ATOM     28  C   UNL     1       9.575   7.230   6.097  0.00  0.00    +0.023 A 
ATOM     29  C   UNL     1       9.717   5.765   8.467  0.00  0.00    +0.054 A 
ATOM     30  C   UNL     1       8.754   7.565   7.175  0.00  0.00    +0.003 A 
ATOM     31  C   UNL     1       8.825   6.833   8.360  0.00  0.00    +0.019 A 
BRANCH  29  32
ATOM      7  N   UNL     1       9.848   4.404  10.666  0.00  0.00    -0.191 NA
ATOM     32  C   UNL     1       9.790   5.014   9.681  0.00  0.00    +0.099 C 
ENDBRANCH  29  32
ENDBRANCH   6  25
ENDBRANCH  10   3
TORSDOF 5
ENDMDL
MODEL 8
REMARK VINA RESULT:      -6.8      2.043      2.723
REMARK  Name = 25390052
REMARK  8 active torsions:
REMARK  status: ('A' for Active; 'I' for Inactive)
REMARK    1  A    between atoms: N_3  and  C_10
REMARK    2  A    between atoms: N_4  and  C_18
REMARK    3  A    between atoms: N_6  and  C_25
REMARK    4  A    between atoms: C_8  and  C_11
REMARK    5  A    between atoms: C_14  and  C_16
REMARK    6  A    between atoms: C_15  and  C_17
REMARK    7  A    between atoms: C_24  and  C_26
REMARK    8  A    between atoms: C_29  and  C_32
REMARK                            x       y       z     vdW  Elec       q    Type
REMARK                         _______ _______ _______ _____ _____    ______ ____
ROOT
ATOM      8  C   UNL     1      -6.365  -8.569   9.700  0.00  0.00    +0.047 C 
ATOM      9  C   UNL     1      -6.690  -9.813  10.551  0.00  0.00    +0.039 C 
ATOM     10  C   UNL     1      -5.398 -10.155  11.304  0.00  0.00    +0.098 C 
ATOM     12  C   UNL     1      -4.868  -8.631   9.597  0.00  0.00    -0.021 C 
ATOM     13  C   UNL     1      -4.346  -9.493  10.475  0.00  0.00    -0.009 C 
ENDROOT
BRANCH   8  11
ATOM      4  N   UNL     1      -7.922  -9.061   6.421  0.00  0.00    -0.236 N 
ATOM      5  N   UNL     1      -8.353  -7.804   6.621  0.00  0.00    -0.171 NA
ATOM     11  C   UNL     1      -7.089  -8.547   8.374  0.00  0.00    +0.003 A 
ATOM     14  C   UNL     1      -7.163  -9.553   7.441  0.00  0.00    +0.046 A 
ATOM     15  C   UNL     1      -7.841  -7.495   7.816  0.00  0.00    +0.064 A 
ATOM     16  C   UNL     1      -6.583 -10.912   7.438  0.00  0.00    +0.066 C 
ATOM     17  C   UNL     1      -8.099  -6.165   8.393  0.00  0.00    +0.068 C 
BRANCH   4  18
ATOM      1 CL   UNL     1     -11.136 -12.240   4.050  0.00  0.00    -0.083 Cl
ATOM     18  C   UNL     1      -8.269  -9.732   5.247  0.00  0.00    +0.067 A 
ATOM     20  C   UNL     1      -9.393 -10.558   5.221  0.00  0.00    +0.048 A 
ATOM     21  C   UNL     1      -7.490  -9.577   4.101  0.00  0.00    +0.028 A 
ATOM     22  C   UNL     1      -9.738 -11.228   4.047  0.00  0.00    +0.046 A 
ATOM     23  C   UNL     1      -7.835 -10.249   2.928  0.00  0.00    +0.007 A 
ATOM     24  C   UNL     1      -8.959 -11.074   2.901  0.00  0.00    -0.032 A 
ATOM     26  C   UNL     1      -9.294 -11.777   1.625  0.00  0.00    +0.045 C 
ENDBRANCH   4  18
ENDBRANCH   8  11
BRANCH  10   3
ATOM      2  O   UNL     1      -6.093 -11.508  13.733  0.00  0.00    -0.252 OA
ATOM      3  N   UNL     1      -5.367  -9.606  12.634  0.00  0.00    -0.293 N 
ATOM      6  N   UNL     1      -5.595  -9.546  14.922  0.00  0.00    -0.269 N 
ATOM     19  C   UNL     1      -5.723 -10.336  13.777  0.00  0.00    +0.304 C 
ATOM     33  H   UNL     1      -5.119  -8.628  12.753  0.00  0.00    +0.151 HD
ATOM     34  H   UNL     1      -5.274  -8.591  14.784  0.00  0.00    +0.156 HD
BRANCH   6  25
ATOM     25  C   UNL     1      -5.857  -9.913  16.264  0.00  0.00    +0.036 A 
ATOM     27  C   UNL     1      -4.884 -10.577  17.008  0.00  0.00    +0.042 A 
ATOM     28  C   UNL     1      -7.089  -9.607  16.840  0.00  0.00    +0.023 A 
ATOM     29  C   UNL     1      -5.142 -10.938  18.331  0.00  0.00    +0.054 A 
ATOM     30  C   UNL     1      -7.349  -9.968  18.163  0.00  0.00    +0.003 A 
ATOM     31  C   UNL     1      -6.375 -10.633  18.909  0.00  0.00    +0.019 A 
BRANCH  29  32
ATOM      7  N   UNL     1      -3.334 -12.172  19.714  0.00  0.00    -0.191 NA
ATOM     32  C   UNL     1      -4.145 -11.619  19.094  0.00  0.00    +0.099 C 
ENDBRANCH  29  32
ENDBRANCH   6  25
ENDBRANCH  10   3
TORSDOF 5
ENDMDL
MODEL 9
REMARK VINA RESULT:      -6.8      6.769      8.111
REMARK  Name = 25390052
REMARK  8 active torsions:
REMARK  status: ('A' for Active; 'I' for Inactive)
REMARK    1  A    between atoms: N_3  and  C_10
REMARK    2  A    between atoms: N_4  and  C_18
REMARK    3  A    between atoms: N_6  and  C_25
REMARK    4  A    between atoms: C_8  and  C_11
REMARK    5  A    between atoms: C_14  and  C_16
REMARK    6  A    between atoms: C_15  and  C_17
REMARK    7  A    between atoms: C_24  and  C_26
REMARK    8  A    between atoms: C_29  and  C_32
REMARK                            x       y       z     vdW  Elec       q    Type
REMARK                         _______ _______ _______ _____ _____    ______ ____
ROOT
ATOM      8  C   UNL     1     -12.317  -6.635  13.642  0.00  0.00    +0.047 C 
ATOM      9  C   UNL     1     -11.583  -5.989  14.835  0.00  0.00    +0.039 C 
ATOM     10  C   UNL     1     -11.269  -7.135  15.804  0.00  0.00    +0.098 C 
ATOM     12  C   UNL     1     -12.837  -7.912  14.237  0.00  0.00    -0.021 C 
ATOM     13  C   UNL     1     -12.261  -8.181  15.413  0.00  0.00    -0.009 C 
ENDROOT
BRANCH   8  11
ATOM      4  N   UNL     1     -14.466  -4.304  11.806  0.00  0.00    -0.236 N 
ATOM      5  N   UNL     1     -15.390  -4.720  12.689  0.00  0.00    -0.171 NA
ATOM     11  C   UNL     1     -13.376  -5.742  13.038  0.00  0.00    +0.003 A 
ATOM     14  C   UNL     1     -13.243  -4.886  11.971  0.00  0.00    +0.046 A 
ATOM     15  C   UNL     1     -14.719  -5.598  13.439  0.00  0.00    +0.064 A 
ATOM     16  C   UNL     1     -12.078  -4.581  11.116  0.00  0.00    +0.066 C 
ATOM     17  C   UNL     1     -15.410  -6.286  14.543  0.00  0.00    +0.068 C 
BRANCH   4  18
ATOM      1 CL   UNL     1     -16.841   0.076  10.698  0.00  0.00    -0.083 Cl
ATOM     18  C   UNL     1     -14.810  -3.360  10.838  0.00  0.00    +0.067 A 
ATOM     20  C   UNL     1     -15.564  -2.240  11.192  0.00  0.00    +0.048 A 
ATOM     21  C   UNL     1     -14.402  -3.536   9.517  0.00  0.00    +0.028 A 
ATOM     22  C   UNL     1     -15.909  -1.297  10.224  0.00  0.00    +0.046 A 
ATOM     23  C   UNL     1     -14.748  -2.593   8.548  0.00  0.00    +0.007 A 
ATOM     24  C   UNL     1     -15.501  -1.474   8.902  0.00  0.00    -0.032 A 
ATOM     26  C   UNL     1     -15.851  -0.487   7.835  0.00  0.00    +0.045 C 
ENDBRANCH   4  18
ENDBRANCH   8  11
BRANCH  10   3
ATOM      2  O   UNL     1      -9.744  -8.592  17.744  0.00  0.00    -0.252 OA
ATOM      3  N   UNL     1      -9.940  -7.658  15.637  0.00  0.00    -0.293 N 
ATOM      6  N   UNL     1      -7.991  -8.747  16.192  0.00  0.00    -0.269 N 
ATOM     19  C   UNL     1      -9.258  -8.364  16.639  0.00  0.00    +0.304 C 
ATOM     33  H   UNL     1      -9.447  -7.471  14.768  0.00  0.00    +0.151 HD
ATOM     34  H   UNL     1      -7.740  -8.477  15.243  0.00  0.00    +0.156 HD
BRANCH   6  25
ATOM     25  C   UNL     1      -7.002  -9.470  16.900  0.00  0.00    +0.036 A 
ATOM     27  C   UNL     1      -5.743  -9.668  16.334  0.00  0.00    +0.042 A 
ATOM     28  C   UNL     1      -7.287  -9.984  18.164  0.00  0.00    +0.023 A 
ATOM     29  C   UNL     1      -4.768 -10.380  17.032  0.00  0.00    +0.054 A 
ATOM     30  C   UNL     1      -6.312 -10.697  18.863  0.00  0.00    +0.003 A 
ATOM     31  C   UNL     1      -5.052 -10.896  18.297  0.00  0.00    +0.019 A 
BRANCH  29  32
ATOM      7  N   UNL     1      -2.430 -10.747  15.982  0.00  0.00    -0.191 NA
ATOM     32  C   UNL     1      -3.477 -10.583  16.453  0.00  0.00    +0.099 C 
ENDBRANCH  29  32
ENDBRANCH   6  25
ENDBRANCH  10   3
TORSDOF 5
ENDMDL
MODEL 10
REMARK VINA RESULT:      -6.8     22.550     24.246
REMARK  Name = 25390052
REMARK  8 active torsions:
REMARK  status: ('A' for Active; 'I' for Inactive)
REMARK    1  A    between atoms: N_3  and  C_10
REMARK    2  A    between atoms: N_4  and  C_18
REMARK    3  A    between atoms: N_6  and  C_25
REMARK    4  A    between atoms: C_8  and  C_11
REMARK    5  A    between atoms: C_14  and  C_16
REMARK    6  A    between atoms: C_15  and  C_17
REMARK    7  A    between atoms: C_24  and  C_26
REMARK    8  A    between atoms: C_29  and  C_32
REMARK                            x       y       z     vdW  Elec       q    Type
REMARK                         _______ _______ _______ _____ _____    ______ ____
ROOT
ATOM      8  C   UNL     1      11.161   5.297  -0.129  0.00  0.00    +0.047 C 
ATOM      9  C   UNL     1      10.603   4.400   0.995  0.00  0.00    +0.039 C 
ATOM     10  C   UNL     1      11.782   4.128   1.938  0.00  0.00    +0.098 C 
ATOM     12  C   UNL     1      12.635   5.020  -0.061  0.00  0.00    -0.021 C 
ATOM     13  C   UNL     1      12.969   4.386   1.067  0.00  0.00    -0.009 C 
ENDROOT
BRANCH   8  11
ATOM      4  N   UNL     1       9.363   5.162  -3.318  0.00  0.00    -0.236 N 
ATOM      5  N   UNL     1      10.000   3.985  -3.437  0.00  0.00    -0.171 NA
ATOM     11  C   UNL     1      10.528   5.029  -1.475  0.00  0.00    +0.003 A 
ATOM     14  C   UNL     1       9.646   5.828  -2.161  0.00  0.00    +0.046 A 
ATOM     15  C   UNL     1      10.710   3.909  -2.309  0.00  0.00    +0.064 A 
ATOM     16  C   UNL     1       9.061   7.140  -1.817  0.00  0.00    +0.066 C 
ATOM     17  C   UNL     1      11.561   2.731  -2.066  0.00  0.00    +0.068 C 
BRANCH   4  18
ATOM      1 CL   UNL     1       4.596   5.433  -5.122  0.00  0.00    -0.083 Cl
ATOM     18  C   UNL     1       8.507   5.592  -4.333  0.00  0.00    +0.067 A 
ATOM     20  C   UNL     1       7.138   5.336  -4.247  0.00  0.00    +0.048 A 
ATOM     21  C   UNL     1       9.021   6.275  -5.435  0.00  0.00    +0.028 A 
ATOM     22  C   UNL     1       6.284   5.765  -5.263  0.00  0.00    +0.046 A 
ATOM     23  C   UNL     1       8.166   6.703  -6.451  0.00  0.00    +0.007 A 
ATOM     24  C   UNL     1       6.798   6.448  -6.365  0.00  0.00    -0.032 A 
ATOM     26  C   UNL     1       5.916   6.922  -7.474  0.00  0.00    +0.045 C 
ENDBRANCH   4  18
ENDBRANCH   8  11
BRANCH  10   3
ATOM      2  O   UNL     1       9.837   4.323   4.033  0.00  0.00    -0.252 OA
ATOM      3  N   UNL     1      11.815   5.026   3.061  0.00  0.00    -0.293 N 
ATOM      6  N   UNL     1      11.119   6.028   5.011  0.00  0.00    -0.269 N 
ATOM     19  C   UNL     1      10.820   5.060   4.049  0.00  0.00    +0.304 C 
ATOM     33  H   UNL     1      12.570   5.703   3.124  0.00  0.00    +0.151 HD
ATOM     34  H   UNL     1      11.978   6.556   4.877  0.00  0.00    +0.156 HD
BRANCH   6  25
ATOM     25  C   UNL     1      10.369   6.370   6.162  0.00  0.00    +0.036 A 
ATOM     27  C   UNL     1      10.459   5.586   7.312  0.00  0.00    +0.042 A 
ATOM     28  C   UNL     1       9.540   7.491   6.145  0.00  0.00    +0.023 A 
ATOM     29  C   UNL     1       9.720   5.923   8.446  0.00  0.00    +0.054 A 
ATOM     30  C   UNL     1       8.800   7.828   7.279  0.00  0.00    +0.003 A 
ATOM     31  C   UNL     1       8.890   7.045   8.430  0.00  0.00    +0.019 A 
BRANCH  29  32
ATOM      7  N   UNL     1       9.887   4.469  10.582  0.00  0.00    -0.191 NA
ATOM     32  C   UNL     1       9.813   5.120   9.624  0.00  0.00    +0.099 C 
ENDBRANCH  29  32
ENDBRANCH   6  25
ENDBRANCH  10   3
TORSDOF 5
ENDMDL
