MODEL 1
REMARK VINA RESULT:      -6.5      0.000      0.000
REMARK  Name = 75536913
REMARK  4 active torsions:
REMARK  status: ('A' for Active; 'I' for Inactive)
REMARK    1  A    between atoms: O_2  and  C_6
REMARK    2  A    between atoms: O_2  and  C_12
REMARK    3  A    between atoms: N_3  and  C_10
REMARK    4  A    between atoms: C_10  and  C_11
REMARK                            x       y       z     vdW  Elec       q    Type
REMARK                         _______ _______ _______ _____ _____    ______ ____
ROOT
ATOM      1  O   UNL     1      -1.013  -2.226  23.815  0.00  0.00    -0.375 OA
ATOM      3  N   UNL     1      -3.402  -0.708  24.335  0.00  0.00    -0.291 NA
ATOM      5  C   UNL     1      -2.482  -0.028  25.246  0.00  0.00    +0.131 C 
ATOM      6  C   UNL     1      -1.087   0.104  24.619  0.00  0.00    +0.213 C 
ATOM      7  C   UNL     1      -3.377  -2.172  24.426  0.00  0.00    +0.113 C 
ATOM      8  C   UNL     1      -0.300  -1.197  24.489  0.00  0.00    +0.205 C 
ATOM      9  C   UNL     1      -2.011  -2.820  24.638  0.00  0.00    +0.175 C 
ENDROOT
BRANCH   6   2
ATOM      2  O   UNL     1      -0.330   1.013  25.419  0.00  0.00    -0.485 OA
BRANCH   2  12
ATOM     12  C   UNL     1      -0.604   2.343  25.257  0.00  0.00    +0.121 A 
ATOM     14  C   UNL     1      -0.082   3.035  24.165  0.00  0.00    +0.045 A 
ATOM     15  C   UNL     1      -1.407   3.006  26.186  0.00  0.00    +0.045 A 
ATOM     19  C   UNL     1      -0.363   4.392  24.000  0.00  0.00    +0.004 A 
ATOM     20  C   UNL     1      -1.687   4.362  26.021  0.00  0.00    +0.004 A 
ATOM     21  C   UNL     1      -1.165   5.055  24.928  0.00  0.00    +0.000 A 
ENDBRANCH   2  12
ENDBRANCH   6   2
BRANCH   3  10
ATOM     10  C   UNL     1      -4.773  -0.220  24.496  0.00  0.00    +0.140 C 
BRANCH  10  11
ATOM      4  N   UNL     1      -5.517   1.751  25.713  0.00  0.00    -0.259 NA
ATOM     11  C   UNL     1      -4.820   1.276  24.656  0.00  0.00    +0.055 A 
ATOM     13  C   UNL     1      -4.163   2.078  23.737  0.00  0.00    +0.024 A 
ATOM     16  C   UNL     1      -4.224   3.456  23.914  0.00  0.00    +0.003 A 
ATOM     17  C   UNL     1      -5.555   3.095  25.852  0.00  0.00    +0.111 A 
ATOM     18  C   UNL     1      -4.932   3.981  24.989  0.00  0.00    +0.020 A 
ENDBRANCH  10  11
ENDBRANCH   3  10
TORSDOF 4
ENDMDL
MODEL 2
REMARK VINA RESULT:      -6.4     16.537     18.980
REMARK  Name = 75536913
REMARK  4 active torsions:
REMARK  status: ('A' for Active; 'I' for Inactive)
REMARK    1  A    between atoms: O_2  and  C_6
REMARK    2  A    between atoms: O_2  and  C_12
REMARK    3  A    between atoms: N_3  and  C_10
REMARK    4  A    between atoms: C_10  and  C_11
REMARK                            x       y       z     vdW  Elec       q    Type
REMARK                         _______ _______ _______ _____ _____    ______ ____
ROOT
ATOM      1  O   UNL     1      13.309   8.782  17.318  0.00  0.00    -0.375 OA
ATOM      3  N   UNL     1      12.437   8.178  19.994  0.00  0.00    -0.291 NA
ATOM      5  C   UNL     1      13.288   7.015  19.750  0.00  0.00    +0.131 C 
ATOM      6  C   UNL     1      14.540   7.407  18.955  0.00  0.00    +0.213 C 
ATOM      7  C   UNL     1      11.487   8.474  18.916  0.00  0.00    +0.113 C 
ATOM      8  C   UNL     1      14.301   7.778  17.493  0.00  0.00    +0.205 C 
ATOM      9  C   UNL     1      11.991   8.274  17.488  0.00  0.00    +0.175 C 
ENDROOT
BRANCH   6   2
ATOM      2  O   UNL     1      15.453   6.309  18.999  0.00  0.00    -0.485 OA
BRANCH   2  12
ATOM     12  C   UNL     1      16.624   6.516  19.673  0.00  0.00    +0.121 A 
ATOM     14  C   UNL     1      16.709   7.525  20.632  0.00  0.00    +0.045 A 
ATOM     15  C   UNL     1      17.735   5.716  19.401  0.00  0.00    +0.045 A 
ATOM     19  C   UNL     1      17.905   7.735  21.319  0.00  0.00    +0.004 A 
ATOM     20  C   UNL     1      18.930   5.927  20.088  0.00  0.00    +0.004 A 
ATOM     21  C   UNL     1      19.015   6.936  21.047  0.00  0.00    +0.000 A 
ENDBRANCH   2  12
ENDBRANCH   6   2
BRANCH   3  10
ATOM     10  C   UNL     1      11.727   8.064  21.269  0.00  0.00    +0.140 C 
BRANCH  10  11
ATOM      4  N   UNL     1      13.086   9.907  22.090  0.00  0.00    -0.259 NA
ATOM     11  C   UNL     1      11.875   9.306  22.106  0.00  0.00    +0.055 A 
ATOM     13  C   UNL     1      10.790   9.767  22.835  0.00  0.00    +0.024 A 
ATOM     16  C   UNL     1      10.959  10.918  23.597  0.00  0.00    +0.003 A 
ATOM     17  C   UNL     1      13.212  11.023  22.843  0.00  0.00    +0.111 A 
ATOM     18  C   UNL     1      12.191  11.563  23.606  0.00  0.00    +0.020 A 
ENDBRANCH  10  11
ENDBRANCH   3  10
TORSDOF 4
ENDMDL
MODEL 3
REMARK VINA RESULT:      -5.9      2.497      6.239
REMARK  Name = 75536913
REMARK  4 active torsions:
REMARK  status: ('A' for Active; 'I' for Inactive)
REMARK    1  A    between atoms: O_2  and  C_6
REMARK    2  A    between atoms: O_2  and  C_12
REMARK    3  A    between atoms: N_3  and  C_10
REMARK    4  A    between atoms: C_10  and  C_11
REMARK                            x       y       z     vdW  Elec       q    Type
REMARK                         _______ _______ _______ _____ _____    ______ ____
ROOT
ATOM      1  O   UNL     1      -3.699   4.370  24.299  0.00  0.00    -0.375 OA
ATOM      3  N   UNL     1      -1.339   2.879  25.001  0.00  0.00    -0.291 NA
ATOM      5  C   UNL     1      -2.347   2.068  25.682  0.00  0.00    +0.131 C 
ATOM      6  C   UNL     1      -3.628   1.965  24.842  0.00  0.00    +0.213 C 
ATOM      7  C   UNL     1      -1.450   4.321  25.249  0.00  0.00    +0.113 C 
ATOM      8  C   UNL     1      -4.451   3.246  24.740  0.00  0.00    +0.205 C 
ATOM      9  C   UNL     1      -2.862   4.895  25.323  0.00  0.00    +0.175 C 
ENDROOT
BRANCH   6   2
ATOM      2  O   UNL     1      -4.447   0.944  25.413  0.00  0.00    -0.485 OA
BRANCH   2  12
ATOM     12  C   UNL     1      -4.118  -0.347  25.107  0.00  0.00    +0.121 A 
ATOM     14  C   UNL     1      -3.427  -1.130  26.032  0.00  0.00    +0.045 A 
ATOM     15  C   UNL     1      -4.473  -0.881  23.868  0.00  0.00    +0.045 A 
ATOM     19  C   UNL     1      -3.092  -2.447  25.719  0.00  0.00    +0.004 A 
ATOM     20  C   UNL     1      -4.137  -2.198  23.555  0.00  0.00    +0.004 A 
ATOM     21  C   UNL     1      -3.446  -2.981  24.480  0.00  0.00    +0.000 A 
ENDBRANCH   2  12
ENDBRANCH   6   2
BRANCH   3  10
ATOM     10  C   UNL     1       0.016   2.421  25.311  0.00  0.00    +0.140 C 
BRANCH  10  11
ATOM      4  N   UNL     1       1.699   1.589  23.763  0.00  0.00    -0.259 NA
ATOM     11  C   UNL     1       0.492   1.379  24.334  0.00  0.00    +0.055 A 
ATOM     13  C   UNL     1      -0.308   0.278  24.072  0.00  0.00    +0.024 A 
ATOM     16  C   UNL     1       0.160  -0.667  23.167  0.00  0.00    +0.003 A 
ATOM     17  C   UNL     1       2.121   0.649  22.888  0.00  0.00    +0.111 A 
ATOM     18  C   UNL     1       1.397  -0.484  22.558  0.00  0.00    +0.020 A 
ENDBRANCH  10  11
ENDBRANCH   3  10
TORSDOF 4
ENDMDL
MODEL 4
REMARK VINA RESULT:      -5.7     16.301     18.724
REMARK  Name = 75536913
REMARK  4 active torsions:
REMARK  status: ('A' for Active; 'I' for Inactive)
REMARK    1  A    between atoms: O_2  and  C_6
REMARK    2  A    between atoms: O_2  and  C_12
REMARK    3  A    between atoms: N_3  and  C_10
REMARK    4  A    between atoms: C_10  and  C_11
REMARK                            x       y       z     vdW  Elec       q    Type
REMARK                         _______ _______ _______ _____ _____    ______ ____
ROOT
ATOM      1  O   UNL     1      13.924  11.412  16.021  0.00  0.00    -0.375 OA
ATOM      3  N   UNL     1      13.201   8.989  17.395  0.00  0.00    -0.291 NA
ATOM      5  C   UNL     1      13.935   9.663  18.466  0.00  0.00    +0.131 C 
ATOM      6  C   UNL     1      13.651  11.171  18.461  0.00  0.00    +0.213 C 
ATOM      7  C   UNL     1      13.892   8.972  16.102  0.00  0.00    +0.113 C 
ATOM      8  C   UNL     1      14.257  11.949  17.295  0.00  0.00    +0.205 C 
ATOM      9  C   UNL     1      14.663  10.234  15.721  0.00  0.00    +0.175 C 
ENDROOT
BRANCH   6   2
ATOM      2  O   UNL     1      14.155  11.718  19.680  0.00  0.00    -0.485 OA
BRANCH   2  12
ATOM     12  C   UNL     1      13.365  11.572  20.787  0.00  0.00    +0.121 A 
ATOM     14  C   UNL     1      13.826  10.841  21.882  0.00  0.00    +0.045 A 
ATOM     15  C   UNL     1      12.099  12.156  20.820  0.00  0.00    +0.045 A 
ATOM     19  C   UNL     1      13.020  10.694  23.011  0.00  0.00    +0.004 A 
ATOM     20  C   UNL     1      11.293  12.008  21.949  0.00  0.00    +0.004 A 
ATOM     21  C   UNL     1      11.753  11.276  23.044  0.00  0.00    +0.000 A 
ENDBRANCH   2  12
ENDBRANCH   6   2
BRANCH   3  10
ATOM     10  C   UNL     1      12.823   7.628  17.779  0.00  0.00    +0.140 C 
BRANCH  10  11
ATOM      4  N   UNL     1      12.659   6.601  19.979  0.00  0.00    -0.259 NA
ATOM     11  C   UNL     1      12.220   7.581  19.157  0.00  0.00    +0.055 A 
ATOM     13  C   UNL     1      11.267   8.522  19.513  0.00  0.00    +0.024 A 
ATOM     16  C   UNL     1      10.730   8.453  20.794  0.00  0.00    +0.003 A 
ATOM     17  C   UNL     1      12.114   6.566  21.215  0.00  0.00    +0.111 A 
ATOM     18  C   UNL     1      11.156   7.458  21.667  0.00  0.00    +0.020 A 
ENDBRANCH  10  11
ENDBRANCH   3  10
TORSDOF 4
ENDMDL
MODEL 5
REMARK VINA RESULT:      -5.5     17.124     19.312
REMARK  Name = 75536913
REMARK  4 active torsions:
REMARK  status: ('A' for Active; 'I' for Inactive)
REMARK    1  A    between atoms: O_2  and  C_6
REMARK    2  A    between atoms: O_2  and  C_12
REMARK    3  A    between atoms: N_3  and  C_10
REMARK    4  A    between atoms: C_10  and  C_11
REMARK                            x       y       z     vdW  Elec       q    Type
REMARK                         _______ _______ _______ _____ _____    ______ ____
ROOT
ATOM      1  O   UNL     1      14.616  10.900  19.431  0.00  0.00    -0.375 OA
ATOM      3  N   UNL     1      12.605  10.220  21.373  0.00  0.00    -0.291 NA
ATOM      5  C   UNL     1      12.842   8.896  20.800  0.00  0.00    +0.131 C 
ATOM      6  C   UNL     1      14.331   8.691  20.490  0.00  0.00    +0.213 C 
ATOM      7  C   UNL     1      12.401  11.284  20.385  0.00  0.00    +0.113 C 
ATOM      8  C   UNL     1      14.877   9.506  19.321  0.00  0.00    +0.205 C 
ATOM      9  C   UNL     1      13.264  11.222  19.127  0.00  0.00    +0.175 C 
ENDROOT
BRANCH   6   2
ATOM      2  O   UNL     1      14.535   7.305  20.209  0.00  0.00    -0.485 OA
BRANCH   2  12
ATOM     12  C   UNL     1      15.832   6.872  20.185  0.00  0.00    +0.121 A 
ATOM     14  C   UNL     1      16.664   7.099  21.281  0.00  0.00    +0.045 A 
ATOM     15  C   UNL     1      16.321   6.202  19.063  0.00  0.00    +0.045 A 
ATOM     19  C   UNL     1      17.987   6.656  21.255  0.00  0.00    +0.004 A 
ATOM     20  C   UNL     1      17.643   5.759  19.038  0.00  0.00    +0.004 A 
ATOM     21  C   UNL     1      18.477   5.987  20.134  0.00  0.00    +0.000 A 
ENDBRANCH   2  12
ENDBRANCH   6   2
BRANCH   3  10
ATOM     10  C   UNL     1      11.491  10.200  22.324  0.00  0.00    +0.140 C 
BRANCH  10  11
ATOM      4  N   UNL     1      10.641  11.520  24.182  0.00  0.00    -0.259 NA
ATOM     11  C   UNL     1      11.731  11.124  23.487  0.00  0.00    +0.055 A 
ATOM     13  C   UNL     1      13.026  11.517  23.787  0.00  0.00    +0.024 A 
ATOM     16  C   UNL     1      13.214  12.370  24.868  0.00  0.00    +0.003 A 
ATOM     17  C   UNL     1      10.863  12.350  25.226  0.00  0.00    +0.111 A 
ATOM     18  C   UNL     1      12.116  12.799  25.606  0.00  0.00    +0.020 A 
ENDBRANCH  10  11
ENDBRANCH   3  10
TORSDOF 4
ENDMDL
MODEL 6
REMARK VINA RESULT:      -5.5     12.318     14.810
REMARK  Name = 75536913
REMARK  4 active torsions:
REMARK  status: ('A' for Active; 'I' for Inactive)
REMARK    1  A    between atoms: O_2  and  C_6
REMARK    2  A    between atoms: O_2  and  C_12
REMARK    3  A    between atoms: N_3  and  C_10
REMARK    4  A    between atoms: C_10  and  C_11
REMARK                            x       y       z     vdW  Elec       q    Type
REMARK                         _______ _______ _______ _____ _____    ______ ____
ROOT
ATOM      1  O   UNL     1     -10.869  11.386  18.421  0.00  0.00    -0.375 OA
ATOM      3  N   UNL     1     -10.933   9.431  16.311  0.00  0.00    -0.291 NA
ATOM      5  C   UNL     1     -10.514   8.574  17.419  0.00  0.00    +0.131 C 
ATOM      6  C   UNL     1     -11.234   8.964  18.717  0.00  0.00    +0.213 C 
ATOM      7  C   UNL     1     -10.176  10.681  16.188  0.00  0.00    +0.113 C 
ATOM      8  C   UNL     1     -10.805  10.294  19.331  0.00  0.00    +0.205 C 
ATOM      9  C   UNL     1      -9.792  11.378  17.492  0.00  0.00    +0.175 C 
ENDROOT
BRANCH   6   2
ATOM      2  O   UNL     1     -11.006   7.929  19.675  0.00  0.00    -0.485 OA
BRANCH   2  12
ATOM     12  C   UNL     1     -12.117   7.349  20.222  0.00  0.00    +0.121 A 
ATOM     14  C   UNL     1     -11.980   6.359  21.195  0.00  0.00    +0.045 A 
ATOM     15  C   UNL     1     -13.388   7.749  19.807  0.00  0.00    +0.045 A 
ATOM     19  C   UNL     1     -13.114   5.768  21.753  0.00  0.00    +0.004 A 
ATOM     20  C   UNL     1     -14.521   7.157  20.364  0.00  0.00    +0.004 A 
ATOM     21  C   UNL     1     -14.384   6.166  21.337  0.00  0.00    +0.000 A 
ENDBRANCH   2  12
ENDBRANCH   6   2
BRANCH   3  10
ATOM     10  C   UNL     1     -10.914   8.707  15.038  0.00  0.00    +0.140 C 
BRANCH  10  11
ATOM      4  N   UNL     1     -13.279   8.442  15.538  0.00  0.00    -0.259 NA
ATOM     11  C   UNL     1     -12.276   8.186  14.669  0.00  0.00    +0.055 A 
ATOM     13  C   UNL     1     -12.437   7.485  13.484  0.00  0.00    +0.024 A 
ATOM     16  C   UNL     1     -13.708   7.018  13.171  0.00  0.00    +0.003 A 
ATOM     17  C   UNL     1     -14.501   7.972  15.200  0.00  0.00    +0.111 A 
ATOM     18  C   UNL     1     -14.765   7.261  14.041  0.00  0.00    +0.020 A 
ENDBRANCH  10  11
ENDBRANCH   3  10
TORSDOF 4
ENDMDL
MODEL 7
REMARK VINA RESULT:      -5.4     14.908     17.188
REMARK  Name = 75536913
REMARK  4 active torsions:
REMARK  status: ('A' for Active; 'I' for Inactive)
REMARK    1  A    between atoms: O_2  and  C_6
REMARK    2  A    between atoms: O_2  and  C_12
REMARK    3  A    between atoms: N_3  and  C_10
REMARK    4  A    between atoms: C_10  and  C_11
REMARK                            x       y       z     vdW  Elec       q    Type
REMARK                         _______ _______ _______ _____ _____    ______ ____
ROOT
ATOM      1  O   UNL     1      -3.044 -13.244  12.403  0.00  0.00    -0.375 OA
ATOM      3  N   UNL     1      -2.857 -11.371  14.581  0.00  0.00    -0.291 NA
ATOM      5  C   UNL     1      -2.514 -10.484  13.471  0.00  0.00    +0.131 C 
ATOM      6  C   UNL     1      -3.359 -10.803  12.231  0.00  0.00    +0.213 C 
ATOM      7  C   UNL     1      -2.131 -12.646  14.588  0.00  0.00    +0.113 C 
ATOM      8  C   UNL     1      -3.029 -12.120  11.532  0.00  0.00    +0.205 C 
ATOM      9  C   UNL     1      -1.888 -13.302  13.231  0.00  0.00    +0.175 C 
ENDROOT
BRANCH   6   2
ATOM      2  O   UNL     1      -3.187  -9.739  11.294  0.00  0.00    -0.485 OA
BRANCH   2  12
ATOM     12  C   UNL     1      -4.254  -9.457  10.487  0.00  0.00    +0.121 A 
ATOM     14  C   UNL     1      -4.146  -9.619   9.106  0.00  0.00    +0.045 A 
ATOM     15  C   UNL     1      -5.451  -9.009  11.047  0.00  0.00    +0.045 A 
ATOM     19  C   UNL     1      -5.236  -9.331   8.283  0.00  0.00    +0.004 A 
ATOM     20  C   UNL     1      -6.540  -8.721  10.224  0.00  0.00    +0.004 A 
ATOM     21  C   UNL     1      -6.432  -8.882   8.842  0.00  0.00    +0.000 A 
ENDBRANCH   2  12
ENDBRANCH   6   2
BRANCH   3  10
ATOM     10  C   UNL     1      -2.701 -10.699  15.872  0.00  0.00    +0.140 C 
BRANCH  10  11
ATOM      4  N   UNL     1      -5.013  -9.969  16.063  0.00  0.00    -0.259 NA
ATOM     11  C   UNL     1      -3.996 -10.648  16.638  0.00  0.00    +0.055 A 
ATOM     13  C   UNL     1      -4.084 -11.285  17.865  0.00  0.00    +0.024 A 
ATOM     16  C   UNL     1      -5.294 -11.220  18.547  0.00  0.00    +0.003 A 
ATOM     17  C   UNL     1      -6.174  -9.927  16.755  0.00  0.00    +0.111 A 
ATOM     18  C   UNL     1      -6.364 -10.530  17.988  0.00  0.00    +0.020 A 
ENDBRANCH  10  11
ENDBRANCH   3  10
TORSDOF 4
ENDMDL
MODEL 8
REMARK VINA RESULT:      -5.2     12.518     14.769
REMARK  Name = 75536913
REMARK  4 active torsions:
REMARK  status: ('A' for Active; 'I' for Inactive)
REMARK    1  A    between atoms: O_2  and  C_6
REMARK    2  A    between atoms: O_2  and  C_12
REMARK    3  A    between atoms: N_3  and  C_10
REMARK    4  A    between atoms: C_10  and  C_11
REMARK                            x       y       z     vdW  Elec       q    Type
REMARK                         _______ _______ _______ _____ _____    ______ ____
ROOT
ATOM      1  O   UNL     1      -9.630  10.877  16.666  0.00  0.00    -0.375 OA
ATOM      3  N   UNL     1     -11.502  11.835  18.629  0.00  0.00    -0.291 NA
ATOM      5  C   UNL     1     -12.203  10.626  18.200  0.00  0.00    +0.131 C 
ATOM      6  C   UNL     1     -11.214   9.481  17.941  0.00  0.00    +0.213 C 
ATOM      7  C   UNL     1     -11.025  12.684  17.533  0.00  0.00    +0.113 C 
ATOM      8  C   UNL     1     -10.333   9.642  16.704  0.00  0.00    +0.205 C 
ATOM      9  C   UNL     1     -10.471  11.966  16.304  0.00  0.00    +0.175 C 
ENDROOT
BRANCH   6   2
ATOM      2  O   UNL     1     -11.964   8.273  17.808  0.00  0.00    -0.485 OA
BRANCH   2  12
ATOM     12  C   UNL     1     -12.443   7.722  18.965  0.00  0.00    +0.121 A 
ATOM     14  C   UNL     1     -11.561   7.160  19.887  0.00  0.00    +0.045 A 
ATOM     15  C   UNL     1     -13.814   7.724  19.222  0.00  0.00    +0.045 A 
ATOM     19  C   UNL     1     -12.050   6.598  21.067  0.00  0.00    +0.004 A 
ATOM     20  C   UNL     1     -14.303   7.163  20.401  0.00  0.00    +0.004 A 
ATOM     21  C   UNL     1     -13.421   6.599  21.323  0.00  0.00    +0.000 A 
ENDBRANCH   2  12
ENDBRANCH   6   2
BRANCH   3  10
ATOM     10  C   UNL     1     -12.316  12.625  19.556  0.00  0.00    +0.140 C 
BRANCH  10  11
ATOM      4  N   UNL     1     -14.300  11.836  20.721  0.00  0.00    -0.259 NA
ATOM     11  C   UNL     1     -12.955  11.766  20.613  0.00  0.00    +0.055 A 
ATOM     13  C   UNL     1     -12.154  10.960  21.408  0.00  0.00    +0.024 A 
ATOM     16  C   UNL     1     -12.775  10.177  22.375  0.00  0.00    +0.003 A 
ATOM     17  C   UNL     1     -14.868  11.061  21.673  0.00  0.00    +0.111 A 
ATOM     18  C   UNL     1     -14.157  10.224  22.516  0.00  0.00    +0.020 A 
ENDBRANCH  10  11
ENDBRANCH   3  10
TORSDOF 4
ENDMDL
MODEL 9
REMARK VINA RESULT:      -5.2     23.209     25.221
REMARK  Name = 75536913
REMARK  4 active torsions:
REMARK  status: ('A' for Active; 'I' for Inactive)
REMARK    1  A    between atoms: O_2  and  C_6
REMARK    2  A    between atoms: O_2  and  C_12
REMARK    3  A    between atoms: N_3  and  C_10
REMARK    4  A    between atoms: C_10  and  C_11
REMARK                            x       y       z     vdW  Elec       q    Type
REMARK                         _______ _______ _______ _____ _____    ______ ____
ROOT
ATOM      1  O   UNL     1      12.232   3.617   2.111  0.00  0.00    -0.375 OA
ATOM      3  N   UNL     1      12.632   6.331   2.982  0.00  0.00    -0.291 NA
ATOM      5  C   UNL     1      11.203   6.197   3.262  0.00  0.00    +0.131 C 
ATOM      6  C   UNL     1      10.878   4.798   3.802  0.00  0.00    +0.213 C 
ATOM      7  C   UNL     1      13.036   5.876   1.647  0.00  0.00    +0.113 C 
ATOM      8  C   UNL     1      10.982   3.662   2.787  0.00  0.00    +0.205 C 
ATOM      9  C   UNL     1      12.343   4.625   1.113  0.00  0.00    +0.175 C 
ENDROOT
BRANCH   6   2
ATOM      2  O   UNL     1       9.547   4.823   4.318  0.00  0.00    -0.485 OA
BRANCH   2  12
ATOM     12  C   UNL     1       9.334   5.605   5.420  0.00  0.00    +0.121 A 
ATOM     14  C   UNL     1      10.046   5.363   6.595  0.00  0.00    +0.045 A 
ATOM     15  C   UNL     1       8.407   6.645   5.367  0.00  0.00    +0.045 A 
ATOM     19  C   UNL     1       9.829   6.161   7.718  0.00  0.00    +0.004 A 
ATOM     20  C   UNL     1       8.190   7.443   6.490  0.00  0.00    +0.004 A 
ATOM     21  C   UNL     1       8.901   7.201   7.666  0.00  0.00    +0.000 A 
ENDBRANCH   2  12
ENDBRANCH   6   2
BRANCH   3  10
ATOM     10  C   UNL     1      13.095   7.702   3.205  0.00  0.00    +0.140 C 
BRANCH  10  11
ATOM      4  N   UNL     1      13.412   7.638   5.616  0.00  0.00    -0.259 NA
ATOM     11  C   UNL     1      12.742   8.196   4.583  0.00  0.00    +0.055 A 
ATOM     13  C   UNL     1      11.772   9.175   4.725  0.00  0.00    +0.024 A 
ATOM     16  C   UNL     1      11.470   9.610   6.011  0.00  0.00    +0.003 A 
ATOM     17  C   UNL     1      13.091   8.086   6.851  0.00  0.00    +0.111 A 
ATOM     18  C   UNL     1      12.138   9.060   7.099  0.00  0.00    +0.020 A 
ENDBRANCH  10  11
ENDBRANCH   3  10
TORSDOF 4
ENDMDL
MODEL 10
REMARK VINA RESULT:      -5.2     20.606     23.193
REMARK  Name = 75536913
REMARK  4 active torsions:
REMARK  status: ('A' for Active; 'I' for Inactive)
REMARK    1  A    between atoms: O_2  and  C_6
REMARK    2  A    between atoms: O_2  and  C_12
REMARK    3  A    between atoms: N_3  and  C_10
REMARK    4  A    between atoms: C_10  and  C_11
REMARK                            x       y       z     vdW  Elec       q    Type
REMARK                         _______ _______ _______ _____ _____    ______ ____
ROOT
ATOM      1  O   UNL     1      22.644  -1.036  25.657  0.00  0.00    -0.375 OA
ATOM      3  N   UNL     1      21.550  -3.684  25.384  0.00  0.00    -0.291 NA
ATOM      5  C   UNL     1      20.335  -2.958  25.751  0.00  0.00    +0.131 C 
ATOM      6  C   UNL     1      20.303  -1.572  25.095  0.00  0.00    +0.213 C 
ATOM      7  C   UNL     1      22.707  -3.407  26.241  0.00  0.00    +0.113 C 
ATOM      8  C   UNL     1      21.304  -0.560  25.647  0.00  0.00    +0.205 C 
ATOM      9  C   UNL     1      22.881  -1.964  26.710  0.00  0.00    +0.175 C 
ENDROOT
BRANCH   6   2
ATOM      2  O   UNL     1      18.988  -1.039  25.254  0.00  0.00    -0.485 OA
BRANCH   2  12
ATOM     12  C   UNL     1      17.995  -1.639  24.530  0.00  0.00    +0.121 A 
ATOM     14  C   UNL     1      16.879  -2.168  25.180  0.00  0.00    +0.045 A 
ATOM     15  C   UNL     1      18.098  -1.721  23.141  0.00  0.00    +0.045 A 
ATOM     19  C   UNL     1      15.866  -2.779  24.440  0.00  0.00    +0.004 A 
ATOM     20  C   UNL     1      17.085  -2.333  22.403  0.00  0.00    +0.004 A 
ATOM     21  C   UNL     1      15.969  -2.862  23.052  0.00  0.00    +0.000 A 
ENDBRANCH   2  12
ENDBRANCH   6   2
BRANCH   3  10
ATOM     10  C   UNL     1      21.312  -5.127  25.315  0.00  0.00    +0.140 C 
BRANCH  10  11
ATOM      4  N   UNL     1      20.994  -5.715  22.976  0.00  0.00    -0.259 NA
ATOM     11  C   UNL     1      20.404  -5.491  24.171  0.00  0.00    +0.055 A 
ATOM     13  C   UNL     1      19.039  -5.580  24.390  0.00  0.00    +0.024 A 
ATOM     16  C   UNL     1      18.227  -5.920  23.313  0.00  0.00    +0.003 A 
ATOM     17  C   UNL     1      20.174  -6.043  21.953  0.00  0.00    +0.111 A 
ATOM     18  C   UNL     1      18.798  -6.157  22.068  0.00  0.00    +0.020 A 
ENDBRANCH  10  11
ENDBRANCH   3  10
TORSDOF 4
ENDMDL
