MODEL 1
REMARK VINA RESULT:      -6.5      0.000      0.000
REMARK  Name = 7135391
REMARK  9 active torsions:
REMARK  status: ('A' for Active; 'I' for Inactive)
REMARK    1  A    between atoms: O_2  and  C_16
REMARK    2  A    between atoms: O_2  and  C_22
REMARK    3  A    between atoms: N_4  and  C_20
REMARK    4  A    between atoms: C_5  and  C_8
REMARK    5  A    between atoms: C_8  and  C_14
REMARK    6  A    between atoms: C_8  and  C_15
REMARK    7  A    between atoms: C_12  and  C_18
REMARK    8  A    between atoms: C_13  and  C_19
REMARK    9  A    between atoms: C_20  and  C_21
REMARK                            x       y       z     vdW  Elec       q    Type
REMARK                         _______ _______ _______ _____ _____    ______ ____
ROOT
ATOM      5  C   UNL     1     -16.029   3.197  27.416  0.00  0.00    +0.005 C 
ATOM      6  C   UNL     1     -16.458   1.742  27.623  0.00  0.00    +0.009 C 
ATOM      7  C   UNL     1     -16.358   4.019  28.672  0.00  0.00    +0.040 C 
ATOM      9  C   UNL     1     -15.679   1.112  28.778  0.00  0.00    +0.036 C 
ATOM     10  C   UNL     1     -15.920   3.355  29.955  0.00  0.00    -0.037 A 
ATOM     11  C   UNL     1     -15.640   1.978  30.012  0.00  0.00    -0.041 A 
ATOM     12  C   UNL     1     -15.848   4.123  31.128  0.00  0.00    -0.005 A 
ATOM     13  C   UNL     1     -15.256   1.404  31.234  0.00  0.00    -0.044 A 
ATOM     16  C   UNL     1     -15.476   3.538  32.337  0.00  0.00    +0.124 A 
ATOM     17  C   UNL     1     -15.179   2.180  32.390  0.00  0.00    +0.049 A 
ATOM     18  C   UNL     1     -16.178   5.584  31.110  0.00  0.00    +0.048 C 
ATOM     19  C   UNL     1     -14.911  -0.048  31.342  0.00  0.00    +0.044 C 
ENDROOT
BRANCH  16   2
ATOM      2  O   UNL     1     -15.401   4.278  33.479  0.00  0.00    -0.495 OA
ATOM     22  C   UNL     1     -14.097   4.562  33.983  0.00  0.00    +0.277 C 
ENDBRANCH  16   2
BRANCH   5   8
ATOM      8  C   UNL     1     -16.710   3.797  26.187  0.00  0.00    +0.075 C 
ATOM     14  C   UNL     1     -18.119   3.230  26.028  0.00  0.00    +0.017 C 
BRANCH   8  15
ATOM      3  O   UNL     1     -15.972   2.490  24.284  0.00  0.00    -0.276 OA
ATOM      4  N   UNL     1     -15.068   4.603  24.595  0.00  0.00    -0.310 N 
ATOM     15  C   UNL     1     -15.892   3.536  24.924  0.00  0.00    +0.216 C 
ATOM     26  H   UNL     1     -15.056   5.435  25.176  0.00  0.00    +0.149 HD
BRANCH   4  20
ATOM     20  C   UNL     1     -14.202   4.594  23.439  0.00  0.00    +0.146 C 
BRANCH  20  21
ATOM      1  S   UNL     1     -15.702   6.862  22.973  0.00  0.00    -0.100 S 
ATOM     21  C   UNL     1     -14.368   5.860  22.645  0.00  0.00    +0.007 A 
ATOM     23  C   UNL     1     -13.559   6.336  21.657  0.00  0.00    +0.013 A 
ATOM     24  C   UNL     1     -14.046   7.572  21.141  0.00  0.00    +0.008 A 
ATOM     25  C   UNL     1     -15.205   7.972  21.768  0.00  0.00    +0.045 A 
ENDBRANCH  20  21
ENDBRANCH   4  20
ENDBRANCH   8  15
ENDBRANCH   5   8
TORSDOF 5
ENDMDL
MODEL 2
REMARK VINA RESULT:      -6.5     31.107     33.623
REMARK  Name = 7135391
REMARK  9 active torsions:
REMARK  status: ('A' for Active; 'I' for Inactive)
REMARK    1  A    between atoms: O_2  and  C_16
REMARK    2  A    between atoms: O_2  and  C_22
REMARK    3  A    between atoms: N_4  and  C_20
REMARK    4  A    between atoms: C_5  and  C_8
REMARK    5  A    between atoms: C_8  and  C_14
REMARK    6  A    between atoms: C_8  and  C_15
REMARK    7  A    between atoms: C_12  and  C_18
REMARK    8  A    between atoms: C_13  and  C_19
REMARK    9  A    between atoms: C_20  and  C_21
REMARK                            x       y       z     vdW  Elec       q    Type
REMARK                         _______ _______ _______ _____ _____    ______ ____
ROOT
ATOM      5  C   UNL     1      16.725   7.131  21.096  0.00  0.00    +0.005 C 
ATOM      6  C   UNL     1      16.679   8.561  20.550  0.00  0.00    +0.009 C 
ATOM      7  C   UNL     1      18.185   6.670  21.220  0.00  0.00    +0.040 C 
ATOM      9  C   UNL     1      17.366   9.527  21.515  0.00  0.00    +0.036 C 
ATOM     10  C   UNL     1      19.081   7.685  21.888  0.00  0.00    -0.037 A 
ATOM     11  C   UNL     1      18.710   9.038  21.991  0.00  0.00    -0.041 A 
ATOM     12  C   UNL     1      20.336   7.276  22.366  0.00  0.00    -0.005 A 
ATOM     13  C   UNL     1      19.587   9.947  22.603  0.00  0.00    -0.044 A 
ATOM     16  C   UNL     1      21.201   8.191  22.963  0.00  0.00    +0.124 A 
ATOM     17  C   UNL     1      20.827   9.525  23.083  0.00  0.00    +0.049 A 
ATOM     18  C   UNL     1      20.777   5.850  22.238  0.00  0.00    +0.048 C 
ATOM     19  C   UNL     1      19.227  11.389  22.771  0.00  0.00    +0.044 C 
ENDROOT
BRANCH  16   2
ATOM      2  O   UNL     1      22.419   7.799  23.432  0.00  0.00    -0.495 OA
ATOM     22  C   UNL     1      22.593   7.778  24.848  0.00  0.00    +0.277 C 
ENDBRANCH  16   2
BRANCH   5   8
ATOM      8  C   UNL     1      15.934   6.178  20.202  0.00  0.00    +0.075 C 
ATOM     14  C   UNL     1      16.609   6.045  18.838  0.00  0.00    +0.017 C 
BRANCH   8  15
ATOM      3  O   UNL     1      14.059   7.098  18.970  0.00  0.00    -0.276 OA
ATOM      4  N   UNL     1      13.750   6.524  21.196  0.00  0.00    -0.310 N 
ATOM     15  C   UNL     1      14.493   6.655  20.031  0.00  0.00    +0.216 C 
ATOM     26  H   UNL     1      14.180   6.150  22.036  0.00  0.00    +0.149 HD
BRANCH   4  20
ATOM     20  C   UNL     1      12.359   6.904  21.283  0.00  0.00    +0.146 C 
BRANCH  20  21
ATOM      1  S   UNL     1      10.691   8.842  22.318  0.00  0.00    -0.100 S 
ATOM     21  C   UNL     1      12.225   8.299  21.826  0.00  0.00    +0.007 A 
ATOM     23  C   UNL     1      13.208   9.229  21.986  0.00  0.00    +0.013 A 
ATOM     24  C   UNL     1      12.691  10.438  22.534  0.00  0.00    +0.008 A 
ATOM     25  C   UNL     1      11.335  10.364  22.762  0.00  0.00    +0.045 A 
ENDBRANCH  20  21
ENDBRANCH   4  20
ENDBRANCH   8  15
ENDBRANCH   5   8
TORSDOF 5
ENDMDL
MODEL 3
REMARK VINA RESULT:      -6.4     19.221     22.147
REMARK  Name = 7135391
REMARK  9 active torsions:
REMARK  status: ('A' for Active; 'I' for Inactive)
REMARK    1  A    between atoms: O_2  and  C_16
REMARK    2  A    between atoms: O_2  and  C_22
REMARK    3  A    between atoms: N_4  and  C_20
REMARK    4  A    between atoms: C_5  and  C_8
REMARK    5  A    between atoms: C_8  and  C_14
REMARK    6  A    between atoms: C_8  and  C_15
REMARK    7  A    between atoms: C_12  and  C_18
REMARK    8  A    between atoms: C_13  and  C_19
REMARK    9  A    between atoms: C_20  and  C_21
REMARK                            x       y       z     vdW  Elec       q    Type
REMARK                         _______ _______ _______ _____ _____    ______ ____
ROOT
ATOM      5  C   UNL     1      -4.429 -11.373  16.788  0.00  0.00    +0.005 C 
ATOM      6  C   UNL     1      -3.007 -10.850  16.567  0.00  0.00    +0.009 C 
ATOM      7  C   UNL     1      -5.410 -10.606  15.888  0.00  0.00    +0.040 C 
ATOM      9  C   UNL     1      -2.564 -11.093  15.124  0.00  0.00    +0.036 C 
ATOM     10  C   UNL     1      -4.942 -10.485  14.458  0.00  0.00    -0.037 A 
ATOM     11  C   UNL     1      -3.594 -10.676  14.106  0.00  0.00    -0.041 A 
ATOM     12  C   UNL     1      -5.868 -10.118  13.468  0.00  0.00    -0.005 A 
ATOM     13  C   UNL     1      -3.206 -10.531  12.765  0.00  0.00    -0.044 A 
ATOM     16  C   UNL     1      -5.467  -9.968  12.142  0.00  0.00    +0.124 A 
ATOM     17  C   UNL     1      -4.137 -10.176  11.790  0.00  0.00    +0.049 A 
ATOM     18  C   UNL     1      -7.304  -9.870  13.815  0.00  0.00    +0.048 C 
ATOM     19  C   UNL     1      -1.792 -10.759  12.331  0.00  0.00    +0.044 C 
ENDROOT
BRANCH  16   2
ATOM      2  O   UNL     1      -6.361  -9.615  11.176  0.00  0.00    -0.495 OA
ATOM     22  C   UNL     1      -5.905  -8.714  10.168  0.00  0.00    +0.277 C 
ENDBRANCH  16   2
BRANCH   5   8
ATOM      8  C   UNL     1      -4.835 -11.247  18.255  0.00  0.00    +0.075 C 
ATOM     14  C   UNL     1      -3.892 -12.059  19.140  0.00  0.00    +0.017 C 
BRANCH   8  15
ATOM      3  O   UNL     1      -6.636 -12.869  18.314  0.00  0.00    -0.276 OA
ATOM      4  N   UNL     1      -7.113 -10.663  18.849  0.00  0.00    -0.310 N 
ATOM     15  C   UNL     1      -6.278 -11.704  18.467  0.00  0.00    +0.216 C 
ATOM     26  H   UNL     1      -6.742  -9.724  18.952  0.00  0.00    +0.149 HD
BRANCH   4  20
ATOM     20  C   UNL     1      -8.521 -10.848  19.112  0.00  0.00    +0.146 C 
BRANCH  20  21
ATOM      1  S   UNL     1     -11.025  -9.849  18.525  0.00  0.00    -0.100 S 
ATOM     21  C   UNL     1      -9.341  -9.892  18.291  0.00  0.00    +0.007 A 
ATOM     23  C   UNL     1      -8.901  -9.018  17.344  0.00  0.00    +0.013 A 
ATOM     24  C   UNL     1      -9.981  -8.277  16.782  0.00  0.00    +0.008 A 
ATOM     25  C   UNL     1     -11.192  -8.631  17.335  0.00  0.00    +0.045 A 
ENDBRANCH  20  21
ENDBRANCH   4  20
ENDBRANCH   8  15
ENDBRANCH   5   8
TORSDOF 5
ENDMDL
MODEL 4
REMARK VINA RESULT:      -6.4     20.213     22.467
REMARK  Name = 7135391
REMARK  9 active torsions:
REMARK  status: ('A' for Active; 'I' for Inactive)
REMARK    1  A    between atoms: O_2  and  C_16
REMARK    2  A    between atoms: O_2  and  C_22
REMARK    3  A    between atoms: N_4  and  C_20
REMARK    4  A    between atoms: C_5  and  C_8
REMARK    5  A    between atoms: C_8  and  C_14
REMARK    6  A    between atoms: C_8  and  C_15
REMARK    7  A    between atoms: C_12  and  C_18
REMARK    8  A    between atoms: C_13  and  C_19
REMARK    9  A    between atoms: C_20  and  C_21
REMARK                            x       y       z     vdW  Elec       q    Type
REMARK                         _______ _______ _______ _____ _____    ______ ____
ROOT
ATOM      5  C   UNL     1      -3.286 -10.569  16.377  0.00  0.00    +0.005 C 
ATOM      6  C   UNL     1      -3.678 -11.479  17.545  0.00  0.00    +0.009 C 
ATOM      7  C   UNL     1      -4.405 -10.567  15.324  0.00  0.00    +0.040 C 
ATOM      9  C   UNL     1      -4.935 -10.953  18.237  0.00  0.00    +0.036 C 
ATOM     10  C   UNL     1      -5.781 -10.370  15.911  0.00  0.00    -0.037 A 
ATOM     11  C   UNL     1      -6.038 -10.591  17.276  0.00  0.00    -0.041 A 
ATOM     12  C   UNL     1      -6.839 -10.012  15.060  0.00  0.00    -0.005 A 
ATOM     13  C   UNL     1      -7.340 -10.414  17.769  0.00  0.00    -0.044 A 
ATOM     16  C   UNL     1      -8.130  -9.850  15.560  0.00  0.00    +0.124 A 
ATOM     17  C   UNL     1      -8.379 -10.049  16.915  0.00  0.00    +0.049 A 
ATOM     18  C   UNL     1      -6.608  -9.807  13.594  0.00  0.00    +0.048 C 
ATOM     19  C   UNL     1      -7.659 -10.600  19.219  0.00  0.00    +0.044 C 
ENDROOT
BRANCH  16   2
ATOM      2  O   UNL     1      -9.160  -9.500  14.740  0.00  0.00    -0.495 OA
ATOM     22  C   UNL     1      -9.967  -8.397  15.148  0.00  0.00    +0.277 C 
ENDBRANCH  16   2
BRANCH   5   8
ATOM      8  C   UNL     1      -1.964 -11.015  15.756  0.00  0.00    +0.075 C 
ATOM     14  C   UNL     1      -1.098  -9.803  15.421  0.00  0.00    +0.017 C 
BRANCH   8  15
ATOM      3  O   UNL     1      -2.506 -13.045  14.546  0.00  0.00    -0.276 OA
ATOM      4  N   UNL     1      -2.037 -11.123  13.335  0.00  0.00    -0.310 N 
ATOM     15  C   UNL     1      -2.201 -11.855  14.502  0.00  0.00    +0.216 C 
ATOM     26  H   UNL     1      -1.782 -10.142  13.381  0.00  0.00    +0.149 HD
BRANCH   4  20
ATOM     20  C   UNL     1      -2.212 -11.697  12.021  0.00  0.00    +0.146 C 
BRANCH  20  21
ATOM      1  S   UNL     1      -4.599 -11.298  10.697  0.00  0.00    -0.100 S 
ATOM     21  C   UNL     1      -3.042 -10.791  11.155  0.00  0.00    +0.007 A 
ATOM     23  C   UNL     1      -2.702  -9.566  10.666  0.00  0.00    +0.013 A 
ATOM     24  C   UNL     1      -3.756  -9.012   9.883  0.00  0.00    +0.008 A 
ATOM     25  C   UNL     1      -4.846  -9.850   9.817  0.00  0.00    +0.045 A 
ENDBRANCH  20  21
ENDBRANCH   4  20
ENDBRANCH   8  15
ENDBRANCH   5   8
TORSDOF 5
ENDMDL
MODEL 5
REMARK VINA RESULT:      -6.4     19.100     21.922
REMARK  Name = 7135391
REMARK  9 active torsions:
REMARK  status: ('A' for Active; 'I' for Inactive)
REMARK    1  A    between atoms: O_2  and  C_16
REMARK    2  A    between atoms: O_2  and  C_22
REMARK    3  A    between atoms: N_4  and  C_20
REMARK    4  A    between atoms: C_5  and  C_8
REMARK    5  A    between atoms: C_8  and  C_14
REMARK    6  A    between atoms: C_8  and  C_15
REMARK    7  A    between atoms: C_12  and  C_18
REMARK    8  A    between atoms: C_13  and  C_19
REMARK    9  A    between atoms: C_20  and  C_21
REMARK                            x       y       z     vdW  Elec       q    Type
REMARK                         _______ _______ _______ _____ _____    ______ ____
ROOT
ATOM      5  C   UNL     1      -5.396 -10.402  17.379  0.00  0.00    +0.005 C 
ATOM      6  C   UNL     1      -6.573 -10.960  16.574  0.00  0.00    +0.009 C 
ATOM      7  C   UNL     1      -4.072 -10.842  16.736  0.00  0.00    +0.040 C 
ATOM      9  C   UNL     1      -6.565 -10.396  15.153  0.00  0.00    +0.036 C 
ATOM     10  C   UNL     1      -4.035 -10.635  15.241  0.00  0.00    -0.037 A 
ATOM     11  C   UNL     1      -5.212 -10.466  14.492  0.00  0.00    -0.041 A 
ATOM     12  C   UNL     1      -2.796 -10.671  14.581  0.00  0.00    -0.005 A 
ATOM     13  C   UNL     1      -5.125 -10.298  13.101  0.00  0.00    -0.044 A 
ATOM     16  C   UNL     1      -2.724 -10.513  13.198  0.00  0.00    +0.124 A 
ATOM     17  C   UNL     1      -3.888 -10.325  12.458  0.00  0.00    +0.049 A 
ATOM     18  C   UNL     1      -1.526 -10.889  15.344  0.00  0.00    +0.048 C 
ATOM     19  C   UNL     1      -6.343 -10.077  12.262  0.00  0.00    +0.044 C 
ENDROOT
BRANCH  16   2
ATOM      2  O   UNL     1      -1.525 -10.544  12.551  0.00  0.00    -0.495 OA
ATOM     22  C   UNL     1      -1.351  -9.637  11.464  0.00  0.00    +0.277 C 
ENDBRANCH  16   2
BRANCH   5   8
ATOM      8  C   UNL     1      -5.465 -10.861  18.835  0.00  0.00    +0.075 C 
ATOM     14  C   UNL     1      -4.337 -11.845  19.137  0.00  0.00    +0.017 C 
BRANCH   8  15
ATOM      3  O   UNL     1      -6.988 -12.715  19.178  0.00  0.00    -0.276 OA
ATOM      4  N   UNL     1      -7.806 -10.555  19.388  0.00  0.00    -0.310 N 
ATOM     15  C   UNL     1      -6.818 -11.499  19.146  0.00  0.00    +0.216 C 
ATOM     26  H   UNL     1      -7.588  -9.565  19.341  0.00  0.00    +0.149 HD
BRANCH   4  20
ATOM     20  C   UNL     1      -9.168 -10.914  19.708  0.00  0.00    +0.146 C 
BRANCH  20  21
ATOM      1  S   UNL     1     -11.781 -10.152  19.258  0.00  0.00    -0.100 S 
ATOM     21  C   UNL     1     -10.133 -10.158  18.839  0.00  0.00    +0.007 A 
ATOM     23  C   UNL     1      -9.856  -9.443  17.712  0.00  0.00    +0.013 A 
ATOM     24  C   UNL     1     -11.036  -8.865  17.164  0.00  0.00    +0.008 A 
ATOM     25  C   UNL     1     -12.155  -9.172  17.906  0.00  0.00    +0.045 A 
ENDBRANCH  20  21
ENDBRANCH   4  20
ENDBRANCH   8  15
ENDBRANCH   5   8
TORSDOF 5
ENDMDL
MODEL 6
REMARK VINA RESULT:      -6.3     18.460     21.285
REMARK  Name = 7135391
REMARK  9 active torsions:
REMARK  status: ('A' for Active; 'I' for Inactive)
REMARK    1  A    between atoms: O_2  and  C_16
REMARK    2  A    between atoms: O_2  and  C_22
REMARK    3  A    between atoms: N_4  and  C_20
REMARK    4  A    between atoms: C_5  and  C_8
REMARK    5  A    between atoms: C_8  and  C_14
REMARK    6  A    between atoms: C_8  and  C_15
REMARK    7  A    between atoms: C_12  and  C_18
REMARK    8  A    between atoms: C_13  and  C_19
REMARK    9  A    between atoms: C_20  and  C_21
REMARK                            x       y       z     vdW  Elec       q    Type
REMARK                         _______ _______ _______ _____ _____    ______ ____
ROOT
ATOM      5  C   UNL     1      -6.046 -10.626  17.118  0.00  0.00    +0.005 C 
ATOM      6  C   UNL     1      -4.586 -10.468  17.554  0.00  0.00    +0.009 C 
ATOM      7  C   UNL     1      -6.258  -9.946  15.757  0.00  0.00    +0.040 C 
ATOM      9  C   UNL     1      -3.652 -11.163  16.564  0.00  0.00    +0.036 C 
ATOM     10  C   UNL     1      -5.199 -10.299  14.740  0.00  0.00    -0.037 A 
ATOM     11  C   UNL     1      -3.958 -10.835  15.125  0.00  0.00    -0.041 A 
ATOM     12  C   UNL     1      -5.444 -10.030  13.383  0.00  0.00    -0.005 A 
ATOM     13  C   UNL     1      -2.999 -11.126  14.142  0.00  0.00    -0.044 A 
ATOM     16  C   UNL     1      -4.479 -10.315  12.418  0.00  0.00    +0.124 A 
ATOM     17  C   UNL     1      -3.258 -10.864  12.797  0.00  0.00    +0.049 A 
ATOM     18  C   UNL     1      -6.741  -9.424  12.943  0.00  0.00    +0.048 C 
ATOM     19  C   UNL     1      -1.677 -11.731  14.494  0.00  0.00    +0.044 C 
ENDROOT
BRANCH  16   2
ATOM      2  O   UNL     1      -4.711 -10.060  11.100  0.00  0.00    -0.495 OA
ATOM     22  C   UNL     1      -3.721  -9.307  10.401  0.00  0.00    +0.277 C 
ENDBRANCH  16   2
BRANCH   5   8
ATOM      8  C   UNL     1      -6.994 -10.043  18.164  0.00  0.00    +0.075 C 
ATOM     14  C   UNL     1      -6.608 -10.525  19.561  0.00  0.00    +0.017 C 
BRANCH   8  15
ATOM      3  O   UNL     1      -8.781 -11.548  17.515  0.00  0.00    -0.276 OA
ATOM      4  N   UNL     1      -9.314  -9.349  18.024  0.00  0.00    -0.310 N 
ATOM     15  C   UNL     1      -8.444 -10.418  17.860  0.00  0.00    +0.216 C 
ATOM     26  H   UNL     1      -8.959  -8.443  18.312  0.00  0.00    +0.149 HD
BRANCH   4  20
ATOM     20  C   UNL     1     -10.737  -9.458  17.800  0.00  0.00    +0.146 C 
BRANCH  20  21
ATOM      1  S   UNL     1     -12.808  -8.301  16.394  0.00  0.00    -0.100 S 
ATOM     21  C   UNL     1     -11.252  -8.246  17.077  0.00  0.00    +0.007 A 
ATOM     23  C   UNL     1     -10.615  -7.057  16.886  0.00  0.00    +0.013 A 
ATOM     24  C   UNL     1     -11.429  -6.147  16.150  0.00  0.00    +0.008 A 
ATOM     25  C   UNL     1     -12.648  -6.696  15.819  0.00  0.00    +0.045 A 
ENDBRANCH  20  21
ENDBRANCH   4  20
ENDBRANCH   8  15
ENDBRANCH   5   8
TORSDOF 5
ENDMDL
MODEL 7
REMARK VINA RESULT:      -6.3     32.681     36.968
REMARK  Name = 7135391
REMARK  9 active torsions:
REMARK  status: ('A' for Active; 'I' for Inactive)
REMARK    1  A    between atoms: O_2  and  C_16
REMARK    2  A    between atoms: O_2  and  C_22
REMARK    3  A    between atoms: N_4  and  C_20
REMARK    4  A    between atoms: C_5  and  C_8
REMARK    5  A    between atoms: C_8  and  C_14
REMARK    6  A    between atoms: C_8  and  C_15
REMARK    7  A    between atoms: C_12  and  C_18
REMARK    8  A    between atoms: C_13  and  C_19
REMARK    9  A    between atoms: C_20  and  C_21
REMARK                            x       y       z     vdW  Elec       q    Type
REMARK                         _______ _______ _______ _____ _____    ______ ____
ROOT
ATOM      5  C   UNL     1      11.113   4.534   1.422  0.00  0.00    +0.005 C 
ATOM      6  C   UNL     1      11.307   5.936   0.839  0.00  0.00    +0.009 C 
ATOM      7  C   UNL     1      10.973   4.622   2.949  0.00  0.00    +0.040 C 
ATOM      9  C   UNL     1      10.084   6.809   1.120  0.00  0.00    +0.036 C 
ATOM     10  C   UNL     1      10.006   5.689   3.402  0.00  0.00    -0.037 A 
ATOM     11  C   UNL     1       9.620   6.741   2.552  0.00  0.00    -0.041 A 
ATOM     12  C   UNL     1       9.529   5.659   4.722  0.00  0.00    -0.005 A 
ATOM     13  C   UNL     1       8.735   7.721   3.028  0.00  0.00    -0.044 A 
ATOM     16  C   UNL     1       8.658   6.644   5.185  0.00  0.00    +0.124 A 
ATOM     17  C   UNL     1       8.260   7.673   4.338  0.00  0.00    +0.049 A 
ATOM     18  C   UNL     1       9.951   4.574   5.666  0.00  0.00    +0.048 C 
ATOM     19  C   UNL     1       8.263   8.839   2.154  0.00  0.00    +0.044 C 
ENDROOT
BRANCH  16   2
ATOM      2  O   UNL     1       8.189   6.619   6.464  0.00  0.00    -0.495 OA
ATOM     22  C   UNL     1       8.644   7.647   7.342  0.00  0.00    +0.277 C 
ENDBRANCH  16   2
BRANCH   5   8
ATOM      8  C   UNL     1      12.274   3.617   1.041  0.00  0.00    +0.075 C 
ATOM     14  C   UNL     1      13.582   4.141   1.631  0.00  0.00    +0.017 C 
BRANCH   8  15
ATOM      3  O   UNL     1      13.472   3.555  -1.066  0.00  0.00    -0.276 OA
ATOM      4  N   UNL     1      11.168   3.288  -1.092  0.00  0.00    -0.310 N 
ATOM     15  C   UNL     1      12.396   3.489  -0.477  0.00  0.00    +0.216 C 
ATOM     26  H   UNL     1      10.320   3.246  -0.537  0.00  0.00    +0.149 HD
BRANCH   4  20
ATOM     20  C   UNL     1      11.027   3.132  -2.522  0.00  0.00    +0.146 C 
BRANCH  20  21
ATOM      1  S   UNL     1       9.299   3.733  -4.586  0.00  0.00    -0.100 S 
ATOM     21  C   UNL     1       9.957   4.046  -3.049  0.00  0.00    +0.007 A 
ATOM     23  C   UNL     1       9.417   5.137  -2.438  0.00  0.00    +0.013 A 
ATOM     24  C   UNL     1       8.423   5.748  -3.255  0.00  0.00    +0.008 A 
ATOM     25  C   UNL     1       8.259   5.086  -4.451  0.00  0.00    +0.045 A 
ENDBRANCH  20  21
ENDBRANCH   4  20
ENDBRANCH   8  15
ENDBRANCH   5   8
TORSDOF 5
ENDMDL
MODEL 8
REMARK VINA RESULT:      -6.3     30.204     32.661
REMARK  Name = 7135391
REMARK  9 active torsions:
REMARK  status: ('A' for Active; 'I' for Inactive)
REMARK    1  A    between atoms: O_2  and  C_16
REMARK    2  A    between atoms: O_2  and  C_22
REMARK    3  A    between atoms: N_4  and  C_20
REMARK    4  A    between atoms: C_5  and  C_8
REMARK    5  A    between atoms: C_8  and  C_14
REMARK    6  A    between atoms: C_8  and  C_15
REMARK    7  A    between atoms: C_12  and  C_18
REMARK    8  A    between atoms: C_13  and  C_19
REMARK    9  A    between atoms: C_20  and  C_21
REMARK                            x       y       z     vdW  Elec       q    Type
REMARK                         _______ _______ _______ _____ _____    ______ ____
ROOT
ATOM      5  C   UNL     1      15.395   7.692  21.039  0.00  0.00    +0.005 C 
ATOM      6  C   UNL     1      14.297   6.967  20.257  0.00  0.00    +0.009 C 
ATOM      7  C   UNL     1      14.964   9.140  21.318  0.00  0.00    +0.040 C 
ATOM      9  C   UNL     1      13.012   6.892  21.082  0.00  0.00    +0.036 C 
ATOM     10  C   UNL     1      13.557   9.253  21.854  0.00  0.00    -0.037 A 
ATOM     11  C   UNL     1      12.627   8.209  21.706  0.00  0.00    -0.041 A 
ATOM     12  C   UNL     1      13.155  10.453  22.462  0.00  0.00    -0.005 A 
ATOM     13  C   UNL     1      11.325   8.372  22.204  0.00  0.00    -0.044 A 
ATOM     16  C   UNL     1      11.856  10.606  22.943  0.00  0.00    +0.124 A 
ATOM     17  C   UNL     1      10.941   9.565  22.815  0.00  0.00    +0.049 A 
ATOM     18  C   UNL     1      14.110  11.600  22.601  0.00  0.00    +0.048 C 
ATOM     19  C   UNL     1      10.308   7.279  22.106  0.00  0.00    +0.044 C 
ENDROOT
BRANCH  16   2
ATOM      2  O   UNL     1      11.461  11.767  23.537  0.00  0.00    -0.495 OA
ATOM     22  C   UNL     1      11.039  11.687  24.898  0.00  0.00    +0.277 C 
ENDBRANCH  16   2
BRANCH   5   8
ATOM      8  C   UNL     1      16.718   7.664  20.276  0.00  0.00    +0.075 C 
ATOM     14  C   UNL     1      16.876   6.338  19.533  0.00  0.00    +0.017 C 
BRANCH   8  15
ATOM      3  O   UNL     1      18.313   8.999  21.521  0.00  0.00    -0.276 OA
ATOM      4  N   UNL     1      18.437   6.688  21.681  0.00  0.00    -0.310 N 
ATOM     15  C   UNL     1      17.901   7.882  21.218  0.00  0.00    +0.216 C 
ATOM     26  H   UNL     1      18.041   5.802  21.383  0.00  0.00    +0.149 HD
BRANCH   4  20
ATOM     20  C   UNL     1      19.560   6.636  22.589  0.00  0.00    +0.146 C 
BRANCH  20  21
ATOM      1  S   UNL     1      22.284   6.913  22.259  0.00  0.00    -0.100 S 
ATOM     21  C   UNL     1      20.799   6.183  21.869  0.00  0.00    +0.007 A 
ATOM     23  C   UNL     1      20.900   5.224  20.907  0.00  0.00    +0.013 A 
ATOM     24  C   UNL     1      22.246   5.075  20.465  0.00  0.00    +0.008 A 
ATOM     25  C   UNL     1      23.102   5.934  21.118  0.00  0.00    +0.045 A 
ENDBRANCH  20  21
ENDBRANCH   4  20
ENDBRANCH   8  15
ENDBRANCH   5   8
TORSDOF 5
ENDMDL
MODEL 9
REMARK VINA RESULT:      -6.3     32.427     36.486
REMARK  Name = 7135391
REMARK  9 active torsions:
REMARK  status: ('A' for Active; 'I' for Inactive)
REMARK    1  A    between atoms: O_2  and  C_16
REMARK    2  A    between atoms: O_2  and  C_22
REMARK    3  A    between atoms: N_4  and  C_20
REMARK    4  A    between atoms: C_5  and  C_8
REMARK    5  A    between atoms: C_8  and  C_14
REMARK    6  A    between atoms: C_8  and  C_15
REMARK    7  A    between atoms: C_12  and  C_18
REMARK    8  A    between atoms: C_13  and  C_19
REMARK    9  A    between atoms: C_20  and  C_21
REMARK                            x       y       z     vdW  Elec       q    Type
REMARK                         _______ _______ _______ _____ _____    ______ ____
ROOT
ATOM      5  C   UNL     1       9.923   6.449   5.066  0.00  0.00    +0.005 C 
ATOM      6  C   UNL     1       8.742   7.215   4.464  0.00  0.00    +0.009 C 
ATOM      7  C   UNL     1      10.245   5.225   4.196  0.00  0.00    +0.040 C 
ATOM      9  C   UNL     1       9.097   7.744   3.075  0.00  0.00    +0.036 C 
ATOM     10  C   UNL     1      10.317   5.540   2.721  0.00  0.00    -0.037 A 
ATOM     11  C   UNL     1       9.741   6.707   2.189  0.00  0.00    -0.041 A 
ATOM     12  C   UNL     1      10.924   4.615   1.856  0.00  0.00    -0.005 A 
ATOM     13  C   UNL     1       9.816   6.944   0.808  0.00  0.00    -0.044 A 
ATOM     16  C   UNL     1      10.983   4.858   0.485  0.00  0.00    +0.124 A 
ATOM     17  C   UNL     1      10.431   6.023  -0.039  0.00  0.00    +0.049 A 
ATOM     18  C   UNL     1      11.514   3.344   2.385  0.00  0.00    +0.048 C 
ATOM     19  C   UNL     1       9.252   8.188   0.196  0.00  0.00    +0.044 C 
ENDROOT
BRANCH  16   2
ATOM      2  O   UNL     1      11.574   3.966  -0.359  0.00  0.00    -0.495 OA
ATOM     22  C   UNL     1      11.188   4.019  -1.731  0.00  0.00    +0.277 C 
ENDBRANCH  16   2
BRANCH   5   8
ATOM      8  C   UNL     1       9.623   6.023   6.502  0.00  0.00    +0.075 C 
ATOM     14  C   UNL     1       8.640   6.995   7.151  0.00  0.00    +0.017 C 
BRANCH   8  15
ATOM      3  O   UNL     1      10.950   5.404   8.434  0.00  0.00    -0.276 OA
ATOM      4  N   UNL     1      11.986   6.532   6.692  0.00  0.00    -0.310 N 
ATOM     15  C   UNL     1      10.904   5.941   7.330  0.00  0.00    +0.216 C 
ATOM     26  H   UNL     1      11.868   6.959   5.778  0.00  0.00    +0.149 HD
BRANCH   4  20
ATOM     20  C   UNL     1      13.307   6.576   7.274  0.00  0.00    +0.146 C 
BRANCH  20  21
ATOM      1  S   UNL     1      13.315   9.277   6.714  0.00  0.00    -0.100 S 
ATOM     21  C   UNL     1      14.076   7.757   6.750  0.00  0.00    +0.007 A 
ATOM     23  C   UNL     1      15.355   7.778   6.281  0.00  0.00    +0.013 A 
ATOM     24  C   UNL     1      15.735   9.089   5.873  0.00  0.00    +0.008 A 
ATOM     25  C   UNL     1      14.719  10.001   6.054  0.00  0.00    +0.045 A 
ENDBRANCH  20  21
ENDBRANCH   4  20
ENDBRANCH   8  15
ENDBRANCH   5   8
TORSDOF 5
ENDMDL
MODEL 10
REMARK VINA RESULT:      -6.3     32.113     36.109
REMARK  Name = 7135391
REMARK  9 active torsions:
REMARK  status: ('A' for Active; 'I' for Inactive)
REMARK    1  A    between atoms: O_2  and  C_16
REMARK    2  A    between atoms: O_2  and  C_22
REMARK    3  A    between atoms: N_4  and  C_20
REMARK    4  A    between atoms: C_5  and  C_8
REMARK    5  A    between atoms: C_8  and  C_14
REMARK    6  A    between atoms: C_8  and  C_15
REMARK    7  A    between atoms: C_12  and  C_18
REMARK    8  A    between atoms: C_13  and  C_19
REMARK    9  A    between atoms: C_20  and  C_21
REMARK                            x       y       z     vdW  Elec       q    Type
REMARK                         _______ _______ _______ _____ _____    ______ ____
ROOT
ATOM      5  C   UNL     1      10.985   5.653   4.052  0.00  0.00    +0.005 C 
ATOM      6  C   UNL     1      10.042   4.630   4.690  0.00  0.00    +0.009 C 
ATOM      7  C   UNL     1      10.439   7.071   4.275  0.00  0.00    +0.040 C 
ATOM      9  C   UNL     1       9.965   4.840   6.202  0.00  0.00    +0.036 C 
ATOM     10  C   UNL     1      10.012   7.333   5.699  0.00  0.00    -0.037 A 
ATOM     11  C   UNL     1       9.751   6.280   6.594  0.00  0.00    -0.041 A 
ATOM     12  C   UNL     1       9.818   8.659   6.118  0.00  0.00    -0.005 A 
ATOM     13  C   UNL     1       9.336   6.575   7.901  0.00  0.00    -0.044 A 
ATOM     16  C   UNL     1       9.396   8.938   7.417  0.00  0.00    +0.124 A 
ATOM     17  C   UNL     1       9.156   7.897   8.309  0.00  0.00    +0.049 A 
ATOM     18  C   UNL     1      10.050   9.802   5.179  0.00  0.00    +0.048 C 
ATOM     19  C   UNL     1       9.080   5.494   8.904  0.00  0.00    +0.044 C 
ENDROOT
BRANCH  16   2
ATOM      2  O   UNL     1       9.208  10.222   7.831  0.00  0.00    -0.495 OA
ATOM     22  C   UNL     1      10.042  10.690   8.890  0.00  0.00    +0.277 C 
ENDBRANCH  16   2
BRANCH   5   8
ATOM      8  C   UNL     1      11.165   5.374   2.561  0.00  0.00    +0.075 C 
ATOM     14  C   UNL     1      10.426   4.097   2.165  0.00  0.00    +0.017 C 
BRANCH   8  15
ATOM      3  O   UNL     1      13.400   6.227   2.168  0.00  0.00    -0.276 OA
ATOM      4  N   UNL     1      13.021   3.953   1.918  0.00  0.00    -0.310 N 
ATOM     15  C   UNL     1      12.645   5.259   2.198  0.00  0.00    +0.216 C 
ATOM     26  H   UNL     1      12.338   3.204   1.963  0.00  0.00    +0.149 HD
BRANCH   4  20
ATOM     20  C   UNL     1      14.372   3.590   1.554  0.00  0.00    +0.146 C 
BRANCH  20  21
ATOM      1  S   UNL     1      16.160   4.577  -0.301  0.00  0.00    -0.100 S 
ATOM     21  C   UNL     1      14.641   3.935   0.116  0.00  0.00    +0.007 A 
ATOM     23  C   UNL     1      13.799   3.797  -0.946  0.00  0.00    +0.013 A 
ATOM     24  C   UNL     1      14.415   4.232  -2.155  0.00  0.00    +0.008 A 
ATOM     25  C   UNL     1      15.700   4.681  -1.947  0.00  0.00    +0.045 A 
ENDBRANCH  20  21
ENDBRANCH   4  20
ENDBRANCH   8  15
ENDBRANCH   5   8
TORSDOF 5
ENDMDL
