REMARK  Name = 45784200
REMARK  5 active torsions:
REMARK  status: ('A' for Active; 'I' for Inactive)
REMARK    1  A    between atoms: N_2  and  C_8
REMARK    2  A    between atoms: C_4  and  C_9
REMARK    3  A    between atoms: C_8  and  C_10
REMARK    4  A    between atoms: C_8  and  C_11
REMARK    5  A    between atoms: C_16  and  C_18
REMARK                            x       y       z     vdW  Elec       q    Type
REMARK                         _______ _______ _______ _____ _____    ______ ____
ROOT
ATOM      1  O   UNL     1       1.011  -1.499  -0.365  0.00  0.00    -0.439 OA
ATOM      3  N   UNL     1       0.662   0.582   0.463  0.00  0.00    -0.213 NA
ATOM      9  C   UNL     1       0.134  -0.569   0.107  0.00  0.00    +0.201 A 
ATOM     12  C   UNL     1       2.001   0.408   0.208  0.00  0.00    +0.110 A 
ATOM     13  C   UNL     1       2.218  -0.864  -0.299  0.00  0.00    +0.155 A 
ATOM     14  C   UNL     1       3.096   1.268   0.375  0.00  0.00    +0.035 A 
ATOM     15  C   UNL     1       3.460  -1.369  -0.664  0.00  0.00    +0.049 A 
ATOM     16  C   UNL     1       4.366   0.794   0.017  0.00  0.00    -0.048 A 
ATOM     17  C   UNL     1       4.542  -0.499  -0.492  0.00  0.00    +0.007 A 
ATOM     18  C   UNL     1       5.553   1.686   0.182  0.00  0.00    +0.044 C 
ENDROOT
BRANCH   9   4
ATOM      2  N   UNL     1      -3.507  -0.171   0.005  0.00  0.00    -0.299 NA
ATOM      4  C   UNL     1      -1.316  -0.993   0.155  0.00  0.00    +0.090 C 
ATOM      5  C   UNL     1      -2.227  -0.105  -0.704  0.00  0.00    +0.097 C 
ATOM      6  C   UNL     1      -1.952  -0.965   1.556  0.00  0.00    +0.029 C 
ATOM      7  C   UNL     1      -3.161  -0.049   1.421  0.00  0.00    +0.085 C 
BRANCH   2   8
ATOM      8  C   UNL     1      -4.436   0.861  -0.430  0.00  0.00    +0.050 C 
ATOM     10  C   UNL     1      -5.725   0.790   0.384  0.00  0.00    +0.024 C 
ATOM     11  C   UNL     1      -4.719   0.694  -1.919  0.00  0.00    +0.024 C 
ENDBRANCH   2   8
ENDBRANCH   9   4
TORSDOF 2
