MODEL 1
REMARK VINA RESULT:      -7.3      0.000      0.000
REMARK  Name = 56775047
REMARK  6 active torsions:
REMARK  status: ('A' for Active; 'I' for Inactive)
REMARK    1  A    between atoms: O_4  and  C_28
REMARK    2  A    between atoms: N_6  and  C_12
REMARK    3  A    between atoms: N_7  and  C_15
REMARK    4  A    between atoms: C_12  and  C_16
REMARK    5  A    between atoms: C_15  and  C_17
REMARK    6  A    between atoms: C_24  and  C_28
REMARK                            x       y       z     vdW  Elec       q    Type
REMARK                         _______ _______ _______ _____ _____    ______ ____
ROOT
ATOM      2  O   UNL     1     -18.169   4.634  23.348  0.00  0.00    -0.364 OA
ATOM      3  O   UNL     1     -16.176   5.025  20.470  0.00  0.00    -0.273 OA
ATOM      6  N   UNL     1     -16.448   3.596  25.959  0.00  0.00    -0.294 NA
ATOM      7  N   UNL     1     -15.511   4.946  22.698  0.00  0.00    -0.288 N 
ATOM      8  C   UNL     1     -15.889   4.860  24.106  0.00  0.00    +0.120 C 
ATOM      9  C   UNL     1     -17.357   5.154  24.398  0.00  0.00    +0.154 C 
ATOM     10  C   UNL     1     -15.720   3.463  24.698  0.00  0.00    +0.110 C 
ATOM     11  C   UNL     1     -17.670   4.358  25.669  0.00  0.00    +0.118 C 
ATOM     13  C   UNL     1     -16.445   5.043  21.671  0.00  0.00    +0.242 C 
ATOM     14  C   UNL     1     -17.873   5.262  22.123  0.00  0.00    +0.256 C 
ENDROOT
BRANCH   6  12
ATOM     12  C   UNL     1     -16.716   2.315  26.592  0.00  0.00    +0.119 C 
BRANCH  12  16
ATOM     16  C   UNL     1     -16.067   2.212  27.947  0.00  0.00    -0.033 A 
ATOM     18  C   UNL     1     -15.456   3.331  28.514  0.00  0.00    +0.006 A 
ATOM     19  C   UNL     1     -16.078   0.999  28.635  0.00  0.00    +0.006 A 
ATOM     22  C   UNL     1     -14.855   3.236  29.769  0.00  0.00    +0.015 A 
ATOM     23  C   UNL     1     -15.477   0.905  29.891  0.00  0.00    +0.015 A 
ATOM     24  C   UNL     1     -14.866   2.023  30.457  0.00  0.00    +0.059 A 
BRANCH  24  28
ATOM      5  O   UNL     1     -14.758   1.424  32.771  0.00  0.00    -0.245 OA
ATOM     28  C   UNL     1     -14.240   1.924  31.767  0.00  0.00    +0.337 C 
BRANCH  28   4
ATOM      4  O   UNL     1     -12.985   2.450  31.786  0.00  0.00    -0.477 OA
ATOM     29  H   UNL     1     -12.298   1.758  31.693  0.00  0.00    +0.295 HD
ENDBRANCH  28   4
ENDBRANCH  24  28
ENDBRANCH  12  16
ENDBRANCH   6  12
BRANCH   7  15
ATOM     15  C   UNL     1     -14.092   4.829  22.386  0.00  0.00    +0.143 C 
BRANCH  15  17
ATOM      1  F   UNL     1     -11.911   9.729  20.661  0.00  0.00    -0.205 F 
ATOM     17  C   UNL     1     -13.509   6.138  21.925  0.00  0.00    -0.030 A 
ATOM     20  C   UNL     1     -12.329   6.152  21.180  0.00  0.00    +0.008 A 
ATOM     21  C   UNL     1     -14.149   7.337  22.242  0.00  0.00    +0.008 A 
ATOM     25  C   UNL     1     -11.789   7.365  20.754  0.00  0.00    +0.038 A 
ATOM     26  C   UNL     1     -13.608   8.550  21.814  0.00  0.00    +0.038 A 
ATOM     27  C   UNL     1     -12.429   8.564  21.071  0.00  0.00    +0.123 A 
ENDBRANCH  15  17
ENDBRANCH   7  15
TORSDOF 6
ENDMDL
MODEL 2
REMARK VINA RESULT:      -7.0     31.240     34.851
REMARK  Name = 56775047
REMARK  6 active torsions:
REMARK  status: ('A' for Active; 'I' for Inactive)
REMARK    1  A    between atoms: O_4  and  C_28
REMARK    2  A    between atoms: N_6  and  C_12
REMARK    3  A    between atoms: N_7  and  C_15
REMARK    4  A    between atoms: C_12  and  C_16
REMARK    5  A    between atoms: C_15  and  C_17
REMARK    6  A    between atoms: C_24  and  C_28
REMARK                            x       y       z     vdW  Elec       q    Type
REMARK                         _______ _______ _______ _____ _____    ______ ____
ROOT
ATOM      2  O   UNL     1       9.304   7.923  -0.494  0.00  0.00    -0.364 OA
ATOM      3  O   UNL     1       9.294   4.700  -1.918  0.00  0.00    -0.273 OA
ATOM      6  N   UNL     1      10.371   7.936   2.623  0.00  0.00    -0.294 NA
ATOM      7  N   UNL     1      10.475   5.467  -0.065  0.00  0.00    -0.288 N 
ATOM      8  C   UNL     1      10.832   6.582   0.807  0.00  0.00    +0.120 C 
ATOM      9  C   UNL     1      10.523   7.965   0.243  0.00  0.00    +0.154 C 
ATOM     10  C   UNL     1      10.061   6.596   2.125  0.00  0.00    +0.110 C 
ATOM     11  C   UNL     1      10.294   8.848   1.474  0.00  0.00    +0.118 C 
ATOM     13  C   UNL     1       9.695   5.622  -1.207  0.00  0.00    +0.242 C 
ATOM     14  C   UNL     1       9.414   7.057  -1.600  0.00  0.00    +0.256 C 
ENDROOT
BRANCH   6  12
ATOM     12  C   UNL     1       9.511   8.339   3.725  0.00  0.00    +0.119 C 
BRANCH  12  16
ATOM     16  C   UNL     1       9.710   7.471   4.938  0.00  0.00    -0.033 A 
ATOM     18  C   UNL     1      10.952   7.434   5.572  0.00  0.00    +0.006 A 
ATOM     19  C   UNL     1       8.653   6.704   5.428  0.00  0.00    +0.006 A 
ATOM     22  C   UNL     1      11.138   6.629   6.697  0.00  0.00    +0.015 A 
ATOM     23  C   UNL     1       8.839   5.900   6.553  0.00  0.00    +0.015 A 
ATOM     24  C   UNL     1      10.081   5.863   7.187  0.00  0.00    +0.059 A 
BRANCH  24  28
ATOM      5  O   UNL     1      10.424   5.434   9.515  0.00  0.00    -0.245 OA
ATOM     28  C   UNL     1      10.273   5.024   8.360  0.00  0.00    +0.337 C 
BRANCH  28   4
ATOM      4  O   UNL     1      10.269   3.697   8.059  0.00  0.00    -0.477 OA
ATOM     29  H   UNL     1       9.657   3.193   8.635  0.00  0.00    +0.295 HD
ENDBRANCH  28   4
ENDBRANCH  24  28
ENDBRANCH  12  16
ENDBRANCH   6  12
BRANCH   7  15
ATOM     15  C   UNL     1      10.891   4.136   0.359  0.00  0.00    +0.143 C 
BRANCH  15  17
ATOM      1  F   UNL     1      16.500   3.602   0.382  0.00  0.00    -0.205 F 
ATOM     17  C   UNL     1      12.390   3.993   0.366  0.00  0.00    -0.030 A 
ATOM     20  C   UNL     1      13.114   4.192  -0.811  0.00  0.00    +0.008 A 
ATOM     21  C   UNL     1      13.055   3.663   1.547  0.00  0.00    +0.008 A 
ATOM     25  C   UNL     1      14.502   4.059  -0.805  0.00  0.00    +0.038 A 
ATOM     26  C   UNL     1      14.444   3.531   1.552  0.00  0.00    +0.038 A 
ATOM     27  C   UNL     1      15.167   3.729   0.376  0.00  0.00    +0.123 A 
ENDBRANCH  15  17
ENDBRANCH   7  15
TORSDOF 6
ENDMDL
MODEL 3
REMARK VINA RESULT:      -6.9     20.643     21.912
REMARK  Name = 56775047
REMARK  6 active torsions:
REMARK  status: ('A' for Active; 'I' for Inactive)
REMARK    1  A    between atoms: O_4  and  C_28
REMARK    2  A    between atoms: N_6  and  C_12
REMARK    3  A    between atoms: N_7  and  C_15
REMARK    4  A    between atoms: C_12  and  C_16
REMARK    5  A    between atoms: C_15  and  C_17
REMARK    6  A    between atoms: C_24  and  C_28
REMARK                            x       y       z     vdW  Elec       q    Type
REMARK                         _______ _______ _______ _____ _____    ______ ____
ROOT
ATOM      2  O   UNL     1      -3.864 -14.001  15.335  0.00  0.00    -0.364 OA
ATOM      3  O   UNL     1      -1.055 -14.178  13.216  0.00  0.00    -0.273 OA
ATOM      6  N   UNL     1      -5.000 -10.929  15.692  0.00  0.00    -0.294 NA
ATOM      7  N   UNL     1      -2.653 -12.493  13.374  0.00  0.00    -0.288 N 
ATOM      8  C   UNL     1      -3.892 -12.008  13.974  0.00  0.00    +0.120 C 
ATOM      9  C   UNL     1      -4.725 -13.072  14.682  0.00  0.00    +0.154 C 
ATOM     10  C   UNL     1      -3.670 -10.985  15.086  0.00  0.00    +0.110 C 
ATOM     11  C   UNL     1      -5.496 -12.309  15.763  0.00  0.00    +0.118 C 
ATOM     13  C   UNL     1      -2.138 -13.762  13.627  0.00  0.00    +0.242 C 
ATOM     14  C   UNL     1      -3.057 -14.681  14.403  0.00  0.00    +0.256 C 
ENDROOT
BRANCH   6  12
ATOM     12  C   UNL     1      -5.002 -10.258  16.983  0.00  0.00    +0.119 C 
BRANCH  12  16
ATOM     16  C   UNL     1      -6.323 -10.406  17.689  0.00  0.00    -0.033 A 
ATOM     18  C   UNL     1      -7.469  -9.817  17.154  0.00  0.00    +0.006 A 
ATOM     19  C   UNL     1      -6.400 -11.130  18.879  0.00  0.00    +0.006 A 
ATOM     22  C   UNL     1      -8.693  -9.954  17.809  0.00  0.00    +0.015 A 
ATOM     23  C   UNL     1      -7.625 -11.266  19.533  0.00  0.00    +0.015 A 
ATOM     24  C   UNL     1      -8.770 -10.678  18.998  0.00  0.00    +0.059 A 
BRANCH  24  28
ATOM      5  O   UNL     1     -10.976 -11.549  19.315  0.00  0.00    -0.245 OA
ATOM     28  C   UNL     1     -10.047 -10.821  19.681  0.00  0.00    +0.337 C 
BRANCH  28   4
ATOM      4  O   UNL     1     -10.128 -10.054  20.802  0.00  0.00    -0.477 OA
ATOM     29  H   UNL     1      -9.377  -9.427  20.870  0.00  0.00    +0.295 HD
ENDBRANCH  28   4
ENDBRANCH  24  28
ENDBRANCH  12  16
ENDBRANCH   6  12
BRANCH   7  15
ATOM     15  C   UNL     1      -1.900 -11.551  12.554  0.00  0.00    +0.143 C 
BRANCH  15  17
ATOM      1  F   UNL     1      -4.899  -9.758   8.134  0.00  0.00    -0.205 F 
ATOM     17  C   UNL     1      -2.702 -11.072  11.373  0.00  0.00    -0.030 A 
ATOM     20  C   UNL     1      -2.688  -9.721  11.023  0.00  0.00    +0.008 A 
ATOM     21  C   UNL     1      -3.457 -11.978  10.629  0.00  0.00    +0.008 A 
ATOM     25  C   UNL     1      -3.431  -9.277   9.929  0.00  0.00    +0.038 A 
ATOM     26  C   UNL     1      -4.200 -11.533   9.534  0.00  0.00    +0.038 A 
ATOM     27  C   UNL     1      -4.186 -10.183   9.185  0.00  0.00    +0.123 A 
ENDBRANCH  15  17
ENDBRANCH   7  15
TORSDOF 6
ENDMDL
MODEL 4
REMARK VINA RESULT:      -6.9      8.077     11.368
REMARK  Name = 56775047
REMARK  6 active torsions:
REMARK  status: ('A' for Active; 'I' for Inactive)
REMARK    1  A    between atoms: O_4  and  C_28
REMARK    2  A    between atoms: N_6  and  C_12
REMARK    3  A    between atoms: N_7  and  C_15
REMARK    4  A    between atoms: C_12  and  C_16
REMARK    5  A    between atoms: C_15  and  C_17
REMARK    6  A    between atoms: C_24  and  C_28
REMARK                            x       y       z     vdW  Elec       q    Type
REMARK                         _______ _______ _______ _____ _____    ______ ____
ROOT
ATOM      2  O   UNL     1     -16.031   7.451  33.444  0.00  0.00    -0.364 OA
ATOM      3  O   UNL     1     -17.252   4.146  33.450  0.00  0.00    -0.273 OA
ATOM      6  N   UNL     1     -12.991   7.689  34.693  0.00  0.00    -0.294 NA
ATOM      7  N   UNL     1     -15.048   4.882  33.589  0.00  0.00    -0.288 N 
ATOM      8  C   UNL     1     -14.108   5.999  33.580  0.00  0.00    +0.120 C 
ATOM      9  C   UNL     1     -14.671   7.310  33.042  0.00  0.00    +0.154 C 
ATOM     10  C   UNL     1     -13.631   6.404  34.972  0.00  0.00    +0.110 C 
ATOM     11  C   UNL     1     -13.860   8.402  33.747  0.00  0.00    +0.118 C 
ATOM     13  C   UNL     1     -16.412   5.042  33.362  0.00  0.00    +0.242 C 
ATOM     14  C   UNL     1     -16.826   6.423  32.900  0.00  0.00    +0.256 C 
ENDROOT
BRANCH   6  12
ATOM     12  C   UNL     1     -12.717   8.455  35.898  0.00  0.00    +0.119 C 
BRANCH  12  16
ATOM     16  C   UNL     1     -11.240   8.652  36.114  0.00  0.00    -0.033 A 
ATOM     18  C   UNL     1     -10.578   7.926  37.105  0.00  0.00    +0.006 A 
ATOM     19  C   UNL     1     -10.535   9.558  35.323  0.00  0.00    +0.006 A 
ATOM     22  C   UNL     1      -9.210   8.108  37.305  0.00  0.00    +0.015 A 
ATOM     23  C   UNL     1      -9.166   9.740  35.524  0.00  0.00    +0.015 A 
ATOM     24  C   UNL     1      -8.504   9.015  36.515  0.00  0.00    +0.059 A 
BRANCH  24  28
ATOM      5  O   UNL     1      -6.495   9.124  37.809  0.00  0.00    -0.245 OA
ATOM     28  C   UNL     1      -7.077   9.204  36.722  0.00  0.00    +0.337 C 
BRANCH  28   4
ATOM      4  O   UNL     1      -6.415   9.488  35.567  0.00  0.00    -0.477 OA
ATOM     29  H   UNL     1      -6.968  10.008  34.947  0.00  0.00    +0.295 HD
ENDBRANCH  28   4
ENDBRANCH  24  28
ENDBRANCH  12  16
ENDBRANCH   6  12
BRANCH   7  15
ATOM     15  C   UNL     1     -14.517   3.572  33.945  0.00  0.00    +0.143 C 
BRANCH  15  17
ATOM      1  F   UNL     1     -13.999   0.221  29.445  0.00  0.00    -0.205 F 
ATOM     17  C   UNL     1     -14.379   2.677  32.742  0.00  0.00    -0.030 A 
ATOM     20  C   UNL     1     -14.869   1.371  32.786  0.00  0.00    +0.008 A 
ATOM     21  C   UNL     1     -13.761   3.153  31.586  0.00  0.00    +0.008 A 
ATOM     25  C   UNL     1     -14.740   0.542  31.672  0.00  0.00    +0.038 A 
ATOM     26  C   UNL     1     -13.633   2.323  30.472  0.00  0.00    +0.038 A 
ATOM     27  C   UNL     1     -14.122   1.017  30.516  0.00  0.00    +0.123 A 
ENDBRANCH  15  17
ENDBRANCH   7  15
TORSDOF 6
ENDMDL
MODEL 5
REMARK VINA RESULT:      -6.7     28.571     31.735
REMARK  Name = 56775047
REMARK  6 active torsions:
REMARK  status: ('A' for Active; 'I' for Inactive)
REMARK    1  A    between atoms: O_4  and  C_28
REMARK    2  A    between atoms: N_6  and  C_12
REMARK    3  A    between atoms: N_7  and  C_15
REMARK    4  A    between atoms: C_12  and  C_16
REMARK    5  A    between atoms: C_15  and  C_17
REMARK    6  A    between atoms: C_24  and  C_28
REMARK                            x       y       z     vdW  Elec       q    Type
REMARK                         _______ _______ _______ _____ _____    ______ ____
ROOT
ATOM      2  O   UNL     1      13.012   6.339  20.787  0.00  0.00    -0.364 OA
ATOM      3  O   UNL     1      10.578   8.492  19.426  0.00  0.00    -0.273 OA
ATOM      6  N   UNL     1      16.087   7.403  20.269  0.00  0.00    -0.294 NA
ATOM      7  N   UNL     1      12.797   8.955  19.950  0.00  0.00    -0.288 N 
ATOM      8  C   UNL     1      14.064   8.494  20.512  0.00  0.00    +0.120 C 
ATOM      9  C   UNL     1      13.971   7.227  21.356  0.00  0.00    +0.154 C 
ATOM     10  C   UNL     1      15.091   8.098  19.454  0.00  0.00    +0.110 C 
ATOM     11  C   UNL     1      15.349   6.570  21.228  0.00  0.00    +0.118 C 
ATOM     13  C   UNL     1      11.639   8.182  19.967  0.00  0.00    +0.242 C 
ATOM     14  C   UNL     1      11.727   6.916  20.792  0.00  0.00    +0.256 C 
ENDROOT
BRANCH   6  12
ATOM     12  C   UNL     1      17.035   6.643  19.470  0.00  0.00    +0.119 C 
BRANCH  12  16
ATOM     16  C   UNL     1      18.281   6.308  20.246  0.00  0.00    -0.033 A 
ATOM     18  C   UNL     1      19.042   5.193  19.896  0.00  0.00    +0.006 A 
ATOM     19  C   UNL     1      18.674   7.114  21.315  0.00  0.00    +0.006 A 
ATOM     22  C   UNL     1      20.197   4.883  20.615  0.00  0.00    +0.015 A 
ATOM     23  C   UNL     1      19.829   6.803  22.033  0.00  0.00    +0.015 A 
ATOM     24  C   UNL     1      20.590   5.688  21.683  0.00  0.00    +0.059 A 
BRANCH  24  28
ATOM      5  O   UNL     1      21.985   4.323  23.067  0.00  0.00    -0.245 OA
ATOM     28  C   UNL     1      21.794   5.366  22.433  0.00  0.00    +0.337 C 
BRANCH  28   4
ATOM      4  O   UNL     1      22.728   6.354  22.369  0.00  0.00    -0.477 OA
ATOM     29  H   UNL     1      23.627   5.997  22.211  0.00  0.00    +0.295 HD
ENDBRANCH  28   4
ENDBRANCH  24  28
ENDBRANCH  12  16
ENDBRANCH   6  12
BRANCH   7  15
ATOM     15  C   UNL     1      12.805  10.243  19.268  0.00  0.00    +0.143 C 
BRANCH  15  17
ATOM      1  F   UNL     1      12.844  14.542  22.911  0.00  0.00    -0.205 F 
ATOM     17  C   UNL     1      12.816  11.392  20.242  0.00  0.00    -0.030 A 
ATOM     20  C   UNL     1      11.843  11.469  21.239  0.00  0.00    +0.008 A 
ATOM     21  C   UNL     1      13.798  12.378  20.146  0.00  0.00    +0.008 A 
ATOM     25  C   UNL     1      11.852  12.533  22.140  0.00  0.00    +0.038 A 
ATOM     26  C   UNL     1      13.807  13.443  21.048  0.00  0.00    +0.038 A 
ATOM     27  C   UNL     1      12.834  13.520  22.045  0.00  0.00    +0.123 A 
ENDBRANCH  15  17
ENDBRANCH   7  15
TORSDOF 6
ENDMDL
MODEL 6
REMARK VINA RESULT:      -6.6     17.661     19.607
REMARK  Name = 56775047
REMARK  6 active torsions:
REMARK  status: ('A' for Active; 'I' for Inactive)
REMARK    1  A    between atoms: O_4  and  C_28
REMARK    2  A    between atoms: N_6  and  C_12
REMARK    3  A    between atoms: N_7  and  C_15
REMARK    4  A    between atoms: C_12  and  C_16
REMARK    5  A    between atoms: C_15  and  C_17
REMARK    6  A    between atoms: C_24  and  C_28
REMARK                            x       y       z     vdW  Elec       q    Type
REMARK                         _______ _______ _______ _____ _____    ______ ____
ROOT
ATOM      2  O   UNL     1      -8.398 -12.409  17.596  0.00  0.00    -0.364 OA
ATOM      3  O   UNL     1      -5.010 -12.875  18.442  0.00  0.00    -0.273 OA
ATOM      6  N   UNL     1      -9.093  -9.292  16.787  0.00  0.00    -0.294 NA
ATOM      7  N   UNL     1      -5.978 -11.148  17.220  0.00  0.00    -0.288 N 
ATOM      8  C   UNL     1      -7.177 -10.573  16.615  0.00  0.00    +0.120 C 
ATOM      9  C   UNL     1      -8.351 -11.537  16.470  0.00  0.00    +0.154 C 
ATOM     10  C   UNL     1      -7.791  -9.443  17.437  0.00  0.00    +0.110 C 
ATOM     11  C   UNL     1      -9.596 -10.645  16.517  0.00  0.00    +0.118 C 
ATOM     13  C   UNL     1      -5.971 -12.394  17.841  0.00  0.00    +0.242 C 
ATOM     14  C   UNL     1      -7.237 -13.204  17.667  0.00  0.00    +0.256 C 
ENDROOT
BRANCH   6  12
ATOM     12  C   UNL     1     -10.021  -8.488  17.566  0.00  0.00    +0.119 C 
BRANCH  12  16
ATOM     16  C   UNL     1     -10.965  -7.711  16.688  0.00  0.00    -0.033 A 
ATOM     18  C   UNL     1     -12.305  -8.090  16.599  0.00  0.00    +0.006 A 
ATOM     19  C   UNL     1     -10.501  -6.614  15.963  0.00  0.00    +0.006 A 
ATOM     22  C   UNL     1     -13.180  -7.372  15.785  0.00  0.00    +0.015 A 
ATOM     23  C   UNL     1     -11.377  -5.895  15.149  0.00  0.00    +0.015 A 
ATOM     24  C   UNL     1     -12.716  -6.274  15.061  0.00  0.00    +0.059 A 
BRANCH  24  28
ATOM      5  O   UNL     1     -14.839  -5.742  14.094  0.00  0.00    -0.245 OA
ATOM     28  C   UNL     1     -13.628  -5.523  14.212  0.00  0.00    +0.337 C 
BRANCH  28   4
ATOM      4  O   UNL     1     -13.006  -4.519  13.536  0.00  0.00    -0.477 OA
ATOM     29  H   UNL     1     -13.524  -4.227  12.758  0.00  0.00    +0.295 HD
ENDBRANCH  28   4
ENDBRANCH  24  28
ENDBRANCH  12  16
ENDBRANCH   6  12
BRANCH   7  15
ATOM     15  C   UNL     1      -4.781 -10.316  17.237  0.00  0.00    +0.143 C 
BRANCH  15  17
ATOM      1  F   UNL     1      -1.556 -11.191  12.701  0.00  0.00    -0.205 F 
ATOM     17  C   UNL     1      -3.919 -10.549  16.025  0.00  0.00    -0.030 A 
ATOM     20  C   UNL     1      -4.494 -10.563  14.753  0.00  0.00    +0.008 A 
ATOM     21  C   UNL     1      -2.547 -10.752  16.174  0.00  0.00    +0.008 A 
ATOM     25  C   UNL     1      -3.695 -10.780  13.631  0.00  0.00    +0.038 A 
ATOM     26  C   UNL     1      -1.749 -10.969  15.050  0.00  0.00    +0.038 A 
ATOM     27  C   UNL     1      -2.323 -10.983  13.779  0.00  0.00    +0.123 A 
ENDBRANCH  15  17
ENDBRANCH   7  15
TORSDOF 6
ENDMDL
MODEL 7
REMARK VINA RESULT:      -6.5     41.197     44.387
REMARK  Name = 56775047
REMARK  6 active torsions:
REMARK  status: ('A' for Active; 'I' for Inactive)
REMARK    1  A    between atoms: O_4  and  C_28
REMARK    2  A    between atoms: N_6  and  C_12
REMARK    3  A    between atoms: N_7  and  C_15
REMARK    4  A    between atoms: C_12  and  C_16
REMARK    5  A    between atoms: C_15  and  C_17
REMARK    6  A    between atoms: C_24  and  C_28
REMARK                            x       y       z     vdW  Elec       q    Type
REMARK                         _______ _______ _______ _____ _____    ______ ____
ROOT
ATOM      2  O   UNL     1      20.152 -12.095  -0.972  0.00  0.00    -0.364 OA
ATOM      3  O   UNL     1      18.068 -14.742   0.059  0.00  0.00    -0.273 OA
ATOM      6  N   UNL     1      18.476  -9.338  -1.638  0.00  0.00    -0.294 NA
ATOM      7  N   UNL     1      17.623 -12.458   0.057  0.00  0.00    -0.288 N 
ATOM      8  C   UNL     1      18.097 -11.099  -0.190  0.00  0.00    +0.120 C 
ATOM      9  C   UNL     1      19.612 -10.957  -0.305  0.00  0.00    +0.154 C 
ATOM     10  C   UNL     1      17.621 -10.518  -1.518  0.00  0.00    +0.110 C 
ATOM     11  C   UNL     1      19.822  -9.740  -1.212  0.00  0.00    +0.118 C 
ATOM     13  C   UNL     1      18.446 -13.575  -0.049  0.00  0.00    +0.242 C 
ATOM     14  C   UNL     1      19.917 -13.270  -0.232  0.00  0.00    +0.256 C 
ENDROOT
BRANCH   6  12
ATOM     12  C   UNL     1      18.452  -8.759  -2.972  0.00  0.00    +0.119 C 
BRANCH  12  16
ATOM     16  C   UNL     1      17.184  -7.989  -3.228  0.00  0.00    -0.033 A 
ATOM     18  C   UNL     1      16.010  -8.668  -3.552  0.00  0.00    +0.006 A 
ATOM     19  C   UNL     1      17.184  -6.597  -3.140  0.00  0.00    +0.006 A 
ATOM     22  C   UNL     1      14.835  -7.955  -3.789  0.00  0.00    +0.015 A 
ATOM     23  C   UNL     1      16.009  -5.885  -3.377  0.00  0.00    +0.015 A 
ATOM     24  C   UNL     1      14.835  -6.563  -3.701  0.00  0.00    +0.059 A 
BRANCH  24  28
ATOM      5  O   UNL     1      13.326  -5.233  -4.998  0.00  0.00    -0.245 OA
ATOM     28  C   UNL     1      13.609  -5.819  -3.947  0.00  0.00    +0.337 C 
BRANCH  28   4
ATOM      4  O   UNL     1      12.770  -5.827  -2.876  0.00  0.00    -0.477 OA
ATOM     29  H   UNL     1      12.971  -6.564  -2.261  0.00  0.00    +0.295 HD
ENDBRANCH  28   4
ENDBRANCH  24  28
ENDBRANCH  12  16
ENDBRANCH   6  12
BRANCH   7  15
ATOM     15  C   UNL     1      16.200 -12.622   0.330  0.00  0.00    +0.143 C 
BRANCH  15  17
ATOM      1  F   UNL     1      15.089 -12.429   5.850  0.00  0.00    -0.205 F 
ATOM     17  C   UNL     1      15.904 -12.570   1.805  0.00  0.00    -0.030 A 
ATOM     20  C   UNL     1      15.317 -13.668   2.437  0.00  0.00    +0.008 A 
ATOM     21  C   UNL     1      16.214 -11.426   2.540  0.00  0.00    +0.008 A 
ATOM     25  C   UNL     1      15.042 -13.620   3.803  0.00  0.00    +0.038 A 
ATOM     26  C   UNL     1      15.939 -11.378   3.907  0.00  0.00    +0.038 A 
ATOM     27  C   UNL     1      15.352 -12.475   4.538  0.00  0.00    +0.123 A 
ENDBRANCH  15  17
ENDBRANCH   7  15
TORSDOF 6
ENDMDL
MODEL 8
REMARK VINA RESULT:      -6.2     19.601     21.773
REMARK  Name = 56775047
REMARK  6 active torsions:
REMARK  status: ('A' for Active; 'I' for Inactive)
REMARK    1  A    between atoms: O_4  and  C_28
REMARK    2  A    between atoms: N_6  and  C_12
REMARK    3  A    between atoms: N_7  and  C_15
REMARK    4  A    between atoms: C_12  and  C_16
REMARK    5  A    between atoms: C_15  and  C_17
REMARK    6  A    between atoms: C_24  and  C_28
REMARK                            x       y       z     vdW  Elec       q    Type
REMARK                         _______ _______ _______ _____ _____    ______ ____
ROOT
ATOM      2  O   UNL     1      -8.522  -9.869   7.352  0.00  0.00    -0.364 OA
ATOM      3  O   UNL     1     -10.176  -7.068   5.999  0.00  0.00    -0.273 OA
ATOM      6  N   UNL     1      -6.260  -9.049   9.603  0.00  0.00    -0.294 NA
ATOM      7  N   UNL     1      -8.985  -7.230   7.992  0.00  0.00    -0.288 N 
ATOM      8  C   UNL     1      -8.240  -8.065   8.930  0.00  0.00    +0.120 C 
ATOM      9  C   UNL     1      -8.423  -9.567   8.742  0.00  0.00    +0.154 C 
ATOM     10  C   UNL     1      -6.726  -7.911   8.812  0.00  0.00    +0.110 C 
ATOM     11  C   UNL     1      -7.123 -10.188   9.263  0.00  0.00    +0.118 C 
ATOM     13  C   UNL     1      -9.617  -7.744   6.863  0.00  0.00    +0.242 C 
ATOM     14  C   UNL     1      -9.655  -9.255   6.783  0.00  0.00    +0.256 C 
ENDROOT
BRANCH   6  12
ATOM     12  C   UNL     1      -4.847  -9.330   9.406  0.00  0.00    +0.119 C 
BRANCH  12  16
ATOM     16  C   UNL     1      -4.175  -9.752  10.685  0.00  0.00    -0.033 A 
ATOM     18  C   UNL     1      -4.934  -9.953  11.838  0.00  0.00    +0.006 A 
ATOM     19  C   UNL     1      -2.793  -9.941  10.717  0.00  0.00    +0.006 A 
ATOM     22  C   UNL     1      -4.312 -10.343  13.024  0.00  0.00    +0.015 A 
ATOM     23  C   UNL     1      -2.171 -10.332  11.904  0.00  0.00    +0.015 A 
ATOM     24  C   UNL     1      -2.930 -10.533  13.056  0.00  0.00    +0.059 A 
BRANCH  24  28
ATOM      5  O   UNL     1      -1.856 -12.075  14.536  0.00  0.00    -0.245 OA
ATOM     28  C   UNL     1      -2.281 -10.941  14.292  0.00  0.00    +0.337 C 
BRANCH  28   4
ATOM      4  O   UNL     1      -2.178  -9.921  15.188  0.00  0.00    -0.477 OA
ATOM     29  H   UNL     1      -1.743  -9.134  14.797  0.00  0.00    +0.295 HD
ENDBRANCH  28   4
ENDBRANCH  24  28
ENDBRANCH  12  16
ENDBRANCH   6  12
BRANCH   7  15
ATOM     15  C   UNL     1      -8.969  -5.792   8.228  0.00  0.00    +0.143 C 
BRANCH  15  17
ATOM      1  F   UNL     1     -13.514  -4.080  11.083  0.00  0.00    -0.205 F 
ATOM     17  C   UNL     1     -10.184  -5.335   8.991  0.00  0.00    -0.030 A 
ATOM     20  C   UNL     1     -10.459  -3.972   9.111  0.00  0.00    +0.008 A 
ATOM     21  C   UNL     1     -11.033  -6.273   9.577  0.00  0.00    +0.008 A 
ATOM     25  C   UNL     1     -11.584  -3.548   9.818  0.00  0.00    +0.038 A 
ATOM     26  C   UNL     1     -12.159  -5.848  10.284  0.00  0.00    +0.038 A 
ATOM     27  C   UNL     1     -12.433  -4.486  10.404  0.00  0.00    +0.123 A 
ENDBRANCH  15  17
ENDBRANCH   7  15
TORSDOF 6
ENDMDL
MODEL 9
REMARK VINA RESULT:      -6.1     20.194     21.613
REMARK  Name = 56775047
REMARK  6 active torsions:
REMARK  status: ('A' for Active; 'I' for Inactive)
REMARK    1  A    between atoms: O_4  and  C_28
REMARK    2  A    between atoms: N_6  and  C_12
REMARK    3  A    between atoms: N_7  and  C_15
REMARK    4  A    between atoms: C_12  and  C_16
REMARK    5  A    between atoms: C_15  and  C_17
REMARK    6  A    between atoms: C_24  and  C_28
REMARK                            x       y       z     vdW  Elec       q    Type
REMARK                         _______ _______ _______ _____ _____    ______ ____
ROOT
ATOM      2  O   UNL     1      -4.202 -12.192  10.533  0.00  0.00    -0.364 OA
ATOM      3  O   UNL     1      -4.707  -9.923   7.886  0.00  0.00    -0.273 OA
ATOM      6  N   UNL     1      -4.970 -10.915  13.472  0.00  0.00    -0.294 NA
ATOM      7  N   UNL     1      -5.613  -9.881  10.029  0.00  0.00    -0.288 N 
ATOM      8  C   UNL     1      -5.753 -10.525  11.332  0.00  0.00    +0.120 C 
ATOM      9  C   UNL     1      -5.335 -11.991  11.375  0.00  0.00    +0.154 C 
ATOM     10  C   UNL     1      -4.869  -9.910  12.414  0.00  0.00    +0.110 C 
ATOM     11  C   UNL     1      -4.891 -12.229  12.821  0.00  0.00    +0.118 C 
ATOM     13  C   UNL     1      -4.928 -10.467   8.968  0.00  0.00    +0.242 C 
ATOM     14  C   UNL     1      -4.515 -11.906   9.190  0.00  0.00    +0.256 C 
ENDROOT
BRANCH   6  12
ATOM     12  C   UNL     1      -3.971 -10.737  14.513  0.00  0.00    +0.119 C 
BRANCH  12  16
ATOM     16  C   UNL     1      -4.584 -10.757  15.888  0.00  0.00    -0.033 A 
ATOM     18  C   UNL     1      -5.925 -10.410  16.058  0.00  0.00    +0.006 A 
ATOM     19  C   UNL     1      -3.812 -11.122  16.991  0.00  0.00    +0.006 A 
ATOM     22  C   UNL     1      -6.493 -10.428  17.332  0.00  0.00    +0.015 A 
ATOM     23  C   UNL     1      -4.382 -11.140  18.264  0.00  0.00    +0.015 A 
ATOM     24  C   UNL     1      -5.721 -10.794  18.434  0.00  0.00    +0.059 A 
BRANCH  24  28
ATOM      5  O   UNL     1      -5.823 -11.357  20.757  0.00  0.00    -0.245 OA
ATOM     28  C   UNL     1      -6.314 -10.814  19.763  0.00  0.00    +0.337 C 
BRANCH  28   4
ATOM      4  O   UNL     1      -7.504 -10.154  19.813  0.00  0.00    -0.477 OA
ATOM     29  H   UNL     1      -8.258 -10.744  19.600  0.00  0.00    +0.295 HD
ENDBRANCH  28   4
ENDBRANCH  24  28
ENDBRANCH  12  16
ENDBRANCH   6  12
BRANCH   7  15
ATOM     15  C   UNL     1      -6.144  -8.530   9.898  0.00  0.00    +0.143 C 
BRANCH  15  17
ATOM      1  F   UNL     1     -11.320  -8.522   7.671  0.00  0.00    -0.205 F 
ATOM     17  C   UNL     1      -7.527  -8.527   9.302  0.00  0.00    -0.030 A 
ATOM     20  C   UNL     1      -8.620  -8.919  10.077  0.00  0.00    +0.008 A 
ATOM     21  C   UNL     1      -7.716  -8.134   7.978  0.00  0.00    +0.008 A 
ATOM     25  C   UNL     1      -9.901  -8.918   9.525  0.00  0.00    +0.038 A 
ATOM     26  C   UNL     1      -8.998  -8.132   7.427  0.00  0.00    +0.038 A 
ATOM     27  C   UNL     1     -10.089  -8.524   8.201  0.00  0.00    +0.123 A 
ENDBRANCH  15  17
ENDBRANCH   7  15
TORSDOF 6
ENDMDL
MODEL 10
REMARK VINA RESULT:      -6.1     20.655     23.387
REMARK  Name = 56775047
REMARK  6 active torsions:
REMARK  status: ('A' for Active; 'I' for Inactive)
REMARK    1  A    between atoms: O_4  and  C_28
REMARK    2  A    between atoms: N_6  and  C_12
REMARK    3  A    between atoms: N_7  and  C_15
REMARK    4  A    between atoms: C_12  and  C_16
REMARK    5  A    between atoms: C_15  and  C_17
REMARK    6  A    between atoms: C_24  and  C_28
REMARK                            x       y       z     vdW  Elec       q    Type
REMARK                         _______ _______ _______ _____ _____    ______ ____
ROOT
ATOM      2  O   UNL     1      -5.300 -13.002  12.705  0.00  0.00    -0.364 OA
ATOM      3  O   UNL     1      -7.837 -11.643  14.736  0.00  0.00    -0.273 OA
ATOM      6  N   UNL     1      -2.601 -11.114  12.602  0.00  0.00    -0.294 NA
ATOM      7  N   UNL     1      -5.560 -11.166  14.742  0.00  0.00    -0.288 N 
ATOM      8  C   UNL     1      -4.230 -11.447  14.209  0.00  0.00    +0.120 C 
ATOM      9  C   UNL     1      -4.106 -12.762  13.445  0.00  0.00    +0.154 C 
ATOM     10  C   UNL     1      -3.762 -10.430  13.170  0.00  0.00    +0.110 C 
ATOM     11  C   UNL     1      -2.973 -12.526  12.442  0.00  0.00    +0.118 C 
ATOM     13  C   UNL     1      -6.686 -11.901  14.384  0.00  0.00    +0.242 C 
ATOM     14  C   UNL     1      -6.406 -13.143  13.565  0.00  0.00    +0.256 C 
ENDROOT
BRANCH   6  12
ATOM     12  C   UNL     1      -2.139 -10.506  11.365  0.00  0.00    +0.119 C 
BRANCH  12  16
ATOM     16  C   UNL     1      -3.278 -10.209  10.427  0.00  0.00    -0.033 A 
ATOM     18  C   UNL     1      -3.704  -8.893  10.243  0.00  0.00    +0.006 A 
ATOM     19  C   UNL     1      -3.906 -11.248   9.742  0.00  0.00    +0.006 A 
ATOM     22  C   UNL     1      -4.760  -8.618   9.373  0.00  0.00    +0.015 A 
ATOM     23  C   UNL     1      -4.962 -10.972   8.872  0.00  0.00    +0.015 A 
ATOM     24  C   UNL     1      -5.388  -9.657   8.688  0.00  0.00    +0.059 A 
BRANCH  24  28
ATOM      5  O   UNL     1      -7.678  -9.287   8.102  0.00  0.00    -0.245 OA
ATOM     28  C   UNL     1      -6.488  -9.370   7.781  0.00  0.00    +0.337 C 
BRANCH  28   4
ATOM      4  O   UNL     1      -6.072  -9.193   6.497  0.00  0.00    -0.477 OA
ATOM     29  H   UNL     1      -6.718  -9.549   5.851  0.00  0.00    +0.295 HD
ENDBRANCH  28   4
ENDBRANCH  24  28
ENDBRANCH  12  16
ENDBRANCH   6  12
BRANCH   7  15
ATOM     15  C   UNL     1      -5.693 -10.002  15.610  0.00  0.00    +0.143 C 
BRANCH  15  17
ATOM      1  F   UNL     1      -5.847 -11.455  21.051  0.00  0.00    -0.205 F 
ATOM     17  C   UNL     1      -5.734 -10.390  17.064  0.00  0.00    -0.030 A 
ATOM     20  C   UNL     1      -4.642 -11.037  17.644  0.00  0.00    +0.008 A 
ATOM     21  C   UNL     1      -6.864 -10.104  17.831  0.00  0.00    +0.008 A 
ATOM     25  C   UNL     1      -4.680 -11.397  18.991  0.00  0.00    +0.038 A 
ATOM     26  C   UNL     1      -6.901 -10.464  19.178  0.00  0.00    +0.038 A 
ATOM     27  C   UNL     1      -5.810 -11.111  19.757  0.00  0.00    +0.123 A 
ENDBRANCH  15  17
ENDBRANCH   7  15
TORSDOF 6
ENDMDL
