REMARK  Name = 45783988
REMARK  11 active torsions:
REMARK  status: ('A' for Active; 'I' for Inactive)
REMARK    1  A    between atoms: N_4  and  C_14
REMARK    2  A    between atoms: N_5  and  C_26
REMARK    3  A    between atoms: N_8  and  C_33
REMARK    4  A    between atoms: C_9  and  C_13
REMARK    5  A    between atoms: C_10  and  C_14
REMARK    6  A    between atoms: C_12  and  C_17
REMARK    7  A    between atoms: C_13  and  C_18
REMARK    8  A    between atoms: C_13  and  C_19
REMARK    9  A    between atoms: C_16  and  C_22
REMARK   10  A    between atoms: C_17  and  C_25
REMARK   11  A    between atoms: C_27  and  C_28
REMARK                            x       y       z     vdW  Elec       q    Type
REMARK                         _______ _______ _______ _____ _____    ______ ____
ROOT
ATOM      9  C   UNL     1       2.555  -0.127   0.758  0.00  0.00    +0.000 C 
ATOM     10  C   UNL     1       3.451  -1.372   0.561  0.00  0.00    +0.029 C 
ATOM     11  C   UNL     1       1.496  -0.045  -0.350  0.00  0.00    +0.012 C 
ATOM     12  C   UNL     1       0.610  -1.305  -0.444  0.00  0.00    +0.024 C 
ATOM     15  C   UNL     1       2.659  -2.604   0.204  0.00  0.00    -0.023 C 
ATOM     16  C   UNL     1       1.387  -2.596  -0.235  0.00  0.00    -0.073 C 
ATOM     22  C   UNL     1       0.662  -3.891  -0.479  0.00  0.00    +0.039 C 
ENDROOT
BRANCH   9  13
ATOM     13  C   UNL     1       1.904  -0.121   2.149  0.00  0.00    -0.013 C 
ATOM     18  C   UNL     1       2.929   0.256   3.214  0.00  0.00    +0.007 C 
ATOM     19  C   UNL     1       0.718   0.837   2.176  0.00  0.00    +0.007 C 
ENDBRANCH   9  13
BRANCH  10  14
ATOM     14  C   UNL     1       4.522  -1.134  -0.508  0.00  0.00    +0.092 C 
BRANCH  14   4
ATOM      4  N   UNL     1       5.326   0.042  -0.181  0.00  0.00    -0.299 NA
ATOM      5  N   UNL     1       7.820   1.495  -0.026  0.00  0.00    -0.303 NA
ATOM     20  C   UNL     1       5.967   0.587  -1.384  0.00  0.00    +0.100 C 
ATOM     21  C   UNL     1       6.335  -0.283   0.835  0.00  0.00    +0.100 C 
ATOM     23  C   UNL     1       6.811   1.819  -1.041  0.00  0.00    +0.099 C 
ATOM     24  C   UNL     1       7.180   0.949   1.177  0.00  0.00    +0.099 C 
ATOM     26  C   UNL     1       8.622   2.672   0.302  0.00  0.00    +0.105 C 
ENDBRANCH  14   4
ENDBRANCH  10  14
BRANCH  12  17
ATOM     17  C   UNL     1      -0.146  -1.274  -1.778  0.00  0.00    +0.105 C 
BRANCH  17  25
ATOM      1  O   UNL     1      -2.385  -0.602  -1.077  0.00  0.00    -0.420 OA
ATOM      6  N   UNL     1      -1.311   0.929  -2.305  0.00  0.00    -0.112 NA
ATOM      7  N   UNL     1      -2.554   1.438  -1.980  0.00  0.00    -0.107 NA
ATOM     25  C   UNL     1      -1.255  -0.262  -1.757  0.00  0.00    +0.218 A 
ATOM     27  C   UNL     1      -3.146   0.511  -1.264  0.00  0.00    +0.248 A 
BRANCH  27  28
ATOM     28  C   UNL     1      -4.446   0.490  -0.659  0.00  0.00    +0.039 A 
ATOM     29  C   UNL     1      -5.297   1.587  -0.796  0.00  0.00    +0.015 A 
ATOM     30  C   UNL     1      -4.860  -0.627   0.067  0.00  0.00    +0.015 A 
ATOM     31  C   UNL     1      -6.562   1.567  -0.208  0.00  0.00    +0.033 A 
ATOM     32  C   UNL     1      -6.124  -0.647   0.655  0.00  0.00    +0.033 A 
ATOM     33  C   UNL     1      -6.975   0.449   0.518  0.00  0.00    +0.126 A 
BRANCH  33   8
ATOM      2  O   UNL     1      -9.014   1.424   0.978  0.00  0.00    -0.126 OA
ATOM      3  O   UNL     1      -8.616  -0.587   1.764  0.00  0.00    -0.126 OA
ATOM      8  N   UNL     1      -8.263   0.428   1.115  0.00  0.00    +0.056 N 
ENDBRANCH  33   8
ENDBRANCH  27  28
ENDBRANCH  17  25
ENDBRANCH  12  17
TORSDOF 7
