MODEL 1
REMARK VINA RESULT:      -7.4      0.000      0.000
REMARK  Name = 26744329
REMARK  6 active torsions:
REMARK  status: ('A' for Active; 'I' for Inactive)
REMARK    1  A    between atoms: O_1  and  C_12
REMARK    2  A    between atoms: N_5  and  C_14
REMARK    3  A    between atoms: N_9  and  C_25
REMARK    4  A    between atoms: C_10  and  C_15
REMARK    5  A    between atoms: C_14  and  C_16
REMARK    6  A    between atoms: C_17  and  C_20
REMARK                            x       y       z     vdW  Elec       q    Type
REMARK                         _______ _______ _______ _____ _____    ______ ____
ROOT
ATOM      5  N   UNL     1      12.740   8.546  18.773  0.00  0.00    -0.285 NA
ATOM     10  C   UNL     1      13.553   7.350  18.474  0.00  0.00    +0.149 C 
ATOM     11  C   UNL     1      14.048   7.562  17.031  0.00  0.00    +0.061 C 
ATOM     12  C   UNL     1      13.425   8.880  16.590  0.00  0.00    +0.130 C 
ATOM     13  C   UNL     1      12.216   9.021  17.494  0.00  0.00    +0.116 C 
ENDROOT
BRANCH  10  15
ATOM      2  O   UNL     1      14.361   6.578  20.648  0.00  0.00    -0.336 OA
ATOM      6  N   UNL     1      15.952   7.460  19.341  0.00  0.00    -0.190 NA
ATOM      7  N   UNL     1      15.552   6.503  21.379  0.00  0.00    -0.056 NA
ATOM     15  C   UNL     1      14.685   7.154  19.460  0.00  0.00    +0.245 A 
ATOM     17  C   UNL     1      16.444   7.043  20.543  0.00  0.00    +0.202 A 
BRANCH  17  20
ATOM     20  C   UNL     1      17.832   7.177  20.878  0.00  0.00    +0.025 A 
ATOM     23  C   UNL     1      18.737   6.181  20.512  0.00  0.00    +0.044 A 
ATOM     24  C   UNL     1      18.276   8.305  21.569  0.00  0.00    +0.012 A 
ATOM     25  C   UNL     1      20.088   6.313  20.836  0.00  0.00    +0.127 A 
ATOM     26  C   UNL     1      19.627   8.436  21.894  0.00  0.00    +0.003 A 
ATOM     27  C   UNL     1      20.533   7.440  21.527  0.00  0.00    +0.033 A 
BRANCH  25   9
ATOM      3  O   UNL     1      22.180   5.629  20.147  0.00  0.00    -0.126 OA
ATOM      4  O   UNL     1      20.633   4.103  20.464  0.00  0.00    -0.126 OA
ATOM      9  N   UNL     1      21.011   5.300  20.464  0.00  0.00    +0.056 N 
ENDBRANCH  25   9
ENDBRANCH  17  20
ENDBRANCH  10  15
BRANCH  12   1
ATOM      1  O   UNL     1      13.057   8.828  15.224  0.00  0.00    -0.390 OA
ATOM     28  H   UNL     1      12.085   8.802  15.184  0.00  0.00    +0.210 HD
ENDBRANCH  12   1
BRANCH   5  14
ATOM     14  C   UNL     1      11.679   8.293  19.740  0.00  0.00    +0.120 C 
BRANCH  14  16
ATOM      8  N   UNL     1      11.959  10.912  23.140  0.00  0.00    -0.263 NA
ATOM     16  C   UNL     1      11.777   9.210  20.930  0.00  0.00    -0.030 A 
ATOM     18  C   UNL     1      12.862  10.069  21.062  0.00  0.00    +0.024 A 
ATOM     19  C   UNL     1      10.782   9.201  21.903  0.00  0.00    +0.024 A 
ATOM     21  C   UNL     1      12.907  10.893  22.176  0.00  0.00    +0.111 A 
ATOM     22  C   UNL     1      10.920  10.064  22.978  0.00  0.00    +0.111 A 
ENDBRANCH  14  16
ENDBRANCH   5  14
TORSDOF 6
ENDMDL
MODEL 2
REMARK VINA RESULT:      -7.1      1.683      2.116
REMARK  Name = 26744329
REMARK  6 active torsions:
REMARK  status: ('A' for Active; 'I' for Inactive)
REMARK    1  A    between atoms: O_1  and  C_12
REMARK    2  A    between atoms: N_5  and  C_14
REMARK    3  A    between atoms: N_9  and  C_25
REMARK    4  A    between atoms: C_10  and  C_15
REMARK    5  A    between atoms: C_14  and  C_16
REMARK    6  A    between atoms: C_17  and  C_20
REMARK                            x       y       z     vdW  Elec       q    Type
REMARK                         _______ _______ _______ _____ _____    ______ ____
ROOT
ATOM      5  N   UNL     1      12.574   8.588  18.769  0.00  0.00    -0.285 NA
ATOM     10  C   UNL     1      13.349   7.373  18.449  0.00  0.00    +0.149 C 
ATOM     11  C   UNL     1      13.841   7.590  17.006  0.00  0.00    +0.061 C 
ATOM     12  C   UNL     1      13.255   8.932  16.586  0.00  0.00    +0.130 C 
ATOM     13  C   UNL     1      12.056   9.096  17.500  0.00  0.00    +0.116 C 
ENDROOT
BRANCH  10  15
ATOM      2  O   UNL     1      14.126   6.771  20.686  0.00  0.00    -0.336 OA
ATOM      6  N   UNL     1      15.773   7.217  19.235  0.00  0.00    -0.190 NA
ATOM      7  N   UNL     1      15.323   6.604  21.393  0.00  0.00    -0.056 NA
ATOM     15  C   UNL     1      14.481   7.131  19.425  0.00  0.00    +0.245 A 
ATOM     17  C   UNL     1      16.249   6.886  20.471  0.00  0.00    +0.202 A 
BRANCH  17  20
ATOM     20  C   UNL     1      17.655   6.843  20.751  0.00  0.00    +0.025 A 
ATOM     23  C   UNL     1      18.226   7.792  21.598  0.00  0.00    +0.044 A 
ATOM     24  C   UNL     1      18.450   5.851  20.175  0.00  0.00    +0.012 A 
ATOM     25  C   UNL     1      19.594   7.749  21.871  0.00  0.00    +0.127 A 
ATOM     26  C   UNL     1      19.818   5.809  20.448  0.00  0.00    +0.003 A 
ATOM     27  C   UNL     1      20.390   6.758  21.296  0.00  0.00    +0.033 A 
BRANCH  25   9
ATOM      3  O   UNL     1      20.623   9.779  22.241  0.00  0.00    -0.126 OA
ATOM      4  O   UNL     1      20.231   8.477  23.965  0.00  0.00    -0.126 OA
ATOM      9  N   UNL     1      20.178   8.714  22.734  0.00  0.00    +0.056 N 
ENDBRANCH  25   9
ENDBRANCH  17  20
ENDBRANCH  10  15
BRANCH  12   1
ATOM      1  O   UNL     1      12.878   8.909  15.222  0.00  0.00    -0.390 OA
ATOM     28  H   UNL     1      12.163   9.558  15.106  0.00  0.00    +0.210 HD
ENDBRANCH  12   1
BRANCH   5  14
ATOM     14  C   UNL     1      11.512   8.353  19.739  0.00  0.00    +0.120 C 
BRANCH  14  16
ATOM      8  N   UNL     1      11.799  11.019  23.102  0.00  0.00    -0.263 NA
ATOM     16  C   UNL     1      11.612   9.287  20.916  0.00  0.00    -0.030 A 
ATOM     18  C   UNL     1      10.794   9.102  22.025  0.00  0.00    +0.024 A 
ATOM     19  C   UNL     1      12.524  10.337  20.899  0.00  0.00    +0.024 A 
ATOM     21  C   UNL     1      10.925   9.988  23.083  0.00  0.00    +0.111 A 
ATOM     22  C   UNL     1      12.577  11.167  22.007  0.00  0.00    +0.111 A 
ENDBRANCH  14  16
ENDBRANCH   5  14
TORSDOF 6
ENDMDL
MODEL 3
REMARK VINA RESULT:      -6.6     16.477     20.557
REMARK  Name = 26744329
REMARK  6 active torsions:
REMARK  status: ('A' for Active; 'I' for Inactive)
REMARK    1  A    between atoms: O_1  and  C_12
REMARK    2  A    between atoms: N_5  and  C_14
REMARK    3  A    between atoms: N_9  and  C_25
REMARK    4  A    between atoms: C_10  and  C_15
REMARK    5  A    between atoms: C_14  and  C_16
REMARK    6  A    between atoms: C_17  and  C_20
REMARK                            x       y       z     vdW  Elec       q    Type
REMARK                         _______ _______ _______ _____ _____    ______ ____
ROOT
ATOM      5  N   UNL     1      13.483   3.919  -0.504  0.00  0.00    -0.285 NA
ATOM     10  C   UNL     1      13.716   3.649   0.930  0.00  0.00    +0.149 C 
ATOM     11  C   UNL     1      14.979   4.457   1.281  0.00  0.00    +0.061 C 
ATOM     12  C   UNL     1      15.407   5.109  -0.027  0.00  0.00    +0.130 C 
ATOM     13  C   UNL     1      14.789   4.217  -1.087  0.00  0.00    +0.116 C 
ENDROOT
BRANCH  10  15
ATOM      2  O   UNL     1      11.877   2.987   2.397  0.00  0.00    -0.336 OA
ATOM      6  N   UNL     1      12.019   5.195   2.048  0.00  0.00    -0.190 NA
ATOM      7  N   UNL     1      10.832   3.564   3.127  0.00  0.00    -0.056 NA
ATOM     15  C   UNL     1      12.527   4.016   1.792  0.00  0.00    +0.245 A 
ATOM     17  C   UNL     1      10.980   4.867   2.871  0.00  0.00    +0.202 A 
BRANCH  17  20
ATOM     20  C   UNL     1      10.111   5.866   3.423  0.00  0.00    +0.025 A 
ATOM     23  C   UNL     1       9.839   5.875   4.790  0.00  0.00    +0.044 A 
ATOM     24  C   UNL     1       9.539   6.828   2.590  0.00  0.00    +0.012 A 
ATOM     25  C   UNL     1       8.995   6.848   5.326  0.00  0.00    +0.127 A 
ATOM     26  C   UNL     1       8.694   7.801   3.126  0.00  0.00    +0.003 A 
ATOM     27  C   UNL     1       8.422   7.811   4.495  0.00  0.00    +0.033 A 
BRANCH  25   9
ATOM      3  O   UNL     1       8.052   7.810   7.199  0.00  0.00    -0.126 OA
ATOM      4  O   UNL     1       9.141   5.917   7.431  0.00  0.00    -0.126 OA
ATOM      9  N   UNL     1       8.716   6.859   6.719  0.00  0.00    +0.056 N 
ENDBRANCH  25   9
ENDBRANCH  17  20
ENDBRANCH  10  15
BRANCH  12   1
ATOM      1  O   UNL     1      16.819   5.147  -0.130  0.00  0.00    -0.390 OA
ATOM     28  H   UNL     1      17.051   4.923  -1.048  0.00  0.00    +0.210 HD
ENDBRANCH  12   1
BRANCH   5  14
ATOM     14  C   UNL     1      12.813   2.823  -1.193  0.00  0.00    +0.120 C 
BRANCH  14  16
ATOM      8  N   UNL     1       9.239   4.140  -3.190  0.00  0.00    -0.263 NA
ATOM     16  C   UNL     1      11.562   3.284  -1.892  0.00  0.00    -0.030 A 
ATOM     18  C   UNL     1      10.947   4.472  -1.512  0.00  0.00    +0.024 A 
ATOM     19  C   UNL     1      11.016   2.523  -2.921  0.00  0.00    +0.024 A 
ATOM     21  C   UNL     1       9.797   4.853  -2.186  0.00  0.00    +0.111 A 
ATOM     22  C   UNL     1       9.864   2.992  -3.531  0.00  0.00    +0.111 A 
ENDBRANCH  14  16
ENDBRANCH   5  14
TORSDOF 6
ENDMDL
MODEL 4
REMARK VINA RESULT:      -6.6     26.607     29.426
REMARK  Name = 26744329
REMARK  6 active torsions:
REMARK  status: ('A' for Active; 'I' for Inactive)
REMARK    1  A    between atoms: O_1  and  C_12
REMARK    2  A    between atoms: N_5  and  C_14
REMARK    3  A    between atoms: N_9  and  C_25
REMARK    4  A    between atoms: C_10  and  C_15
REMARK    5  A    between atoms: C_14  and  C_16
REMARK    6  A    between atoms: C_17  and  C_20
REMARK                            x       y       z     vdW  Elec       q    Type
REMARK                         _______ _______ _______ _____ _____    ______ ____
ROOT
ATOM      5  N   UNL     1      -3.159 -10.588  14.275  0.00  0.00    -0.285 NA
ATOM     10  C   UNL     1      -3.380 -11.326  15.535  0.00  0.00    +0.149 C 
ATOM     11  C   UNL     1      -2.190 -10.939  16.432  0.00  0.00    +0.061 C 
ATOM     12  C   UNL     1      -1.333 -10.017  15.574  0.00  0.00    +0.130 C 
ATOM     13  C   UNL     1      -1.715 -10.396  14.156  0.00  0.00    +0.116 C 
ENDROOT
BRANCH  10  15
ATOM      2  O   UNL     1      -5.320  -9.858  15.769  0.00  0.00    -0.336 OA
ATOM      6  N   UNL     1      -5.398 -11.688  17.057  0.00  0.00    -0.190 NA
ATOM      7  N   UNL     1      -6.524  -9.782  16.479  0.00  0.00    -0.056 NA
ATOM     15  C   UNL     1      -4.719 -11.010  16.168  0.00  0.00    +0.245 A 
ATOM     17  C   UNL     1      -6.498 -10.896  17.218  0.00  0.00    +0.202 A 
BRANCH  17  20
ATOM     20  C   UNL     1      -7.554 -11.247  18.122  0.00  0.00    +0.025 A 
ATOM     23  C   UNL     1      -8.674 -10.423  18.240  0.00  0.00    +0.044 A 
ATOM     24  C   UNL     1      -7.461 -12.412  18.883  0.00  0.00    +0.012 A 
ATOM     25  C   UNL     1      -9.702 -10.766  19.119  0.00  0.00    +0.127 A 
ATOM     26  C   UNL     1      -8.489 -12.754  19.763  0.00  0.00    +0.003 A 
ATOM     27  C   UNL     1      -9.609 -11.931  19.881  0.00  0.00    +0.033 A 
BRANCH  25   9
ATOM      3  O   UNL     1     -11.176  -9.211  18.266  0.00  0.00    -0.126 OA
ATOM      4  O   UNL     1     -11.486  -9.930  20.318  0.00  0.00    -0.126 OA
ATOM      9  N   UNL     1     -10.842  -9.929  19.240  0.00  0.00    +0.056 N 
ENDBRANCH  25   9
ENDBRANCH  17  20
ENDBRANCH  10  15
BRANCH  12   1
ATOM      1  O   UNL     1       0.043 -10.236  15.824  0.00  0.00    -0.390 OA
ATOM     28  H   UNL     1       0.139 -11.147  16.151  0.00  0.00    +0.210 HD
ENDBRANCH  12   1
BRANCH   5  14
ATOM     14  C   UNL     1      -3.720 -11.260  13.110  0.00  0.00    +0.120 C 
BRANCH  14  16
ATOM      8  N   UNL     1      -4.797  -8.467  10.021  0.00  0.00    -0.263 NA
ATOM     16  C   UNL     1      -4.097 -10.282  12.029  0.00  0.00    -0.030 A 
ATOM     18  C   UNL     1      -5.297  -9.583  12.106  0.00  0.00    +0.024 A 
ATOM     19  C   UNL     1      -3.247 -10.074  10.947  0.00  0.00    +0.024 A 
ATOM     21  C   UNL     1      -5.598  -8.695  11.086  0.00  0.00    +0.111 A 
ATOM     22  C   UNL     1      -3.640  -9.164   9.980  0.00  0.00    +0.111 A 
ENDBRANCH  14  16
ENDBRANCH   5  14
TORSDOF 6
ENDMDL
MODEL 5
REMARK VINA RESULT:      -6.5     26.222     29.168
REMARK  Name = 26744329
REMARK  6 active torsions:
REMARK  status: ('A' for Active; 'I' for Inactive)
REMARK    1  A    between atoms: O_1  and  C_12
REMARK    2  A    between atoms: N_5  and  C_14
REMARK    3  A    between atoms: N_9  and  C_25
REMARK    4  A    between atoms: C_10  and  C_15
REMARK    5  A    between atoms: C_14  and  C_16
REMARK    6  A    between atoms: C_17  and  C_20
REMARK                            x       y       z     vdW  Elec       q    Type
REMARK                         _______ _______ _______ _____ _____    ______ ____
ROOT
ATOM      5  N   UNL     1      -3.358 -10.618  14.639  0.00  0.00    -0.285 NA
ATOM     10  C   UNL     1      -3.452 -11.313  15.939  0.00  0.00    +0.149 C 
ATOM     11  C   UNL     1      -2.146 -10.955  16.672  0.00  0.00    +0.061 C 
ATOM     12  C   UNL     1      -1.364 -10.094  15.688  0.00  0.00    +0.130 C 
ATOM     13  C   UNL     1      -1.933 -10.492  14.340  0.00  0.00    +0.116 C 
ENDROOT
BRANCH  10  15
ATOM      2  O   UNL     1      -4.581 -10.940  18.074  0.00  0.00    -0.336 OA
ATOM      6  N   UNL     1      -5.868 -10.563  16.281  0.00  0.00    -0.190 NA
ATOM      7  N   UNL     1      -5.831 -10.548  18.568  0.00  0.00    -0.056 NA
ATOM     15  C   UNL     1      -4.689 -10.922  16.719  0.00  0.00    +0.245 A 
ATOM     17  C   UNL     1      -6.536 -10.344  17.451  0.00  0.00    +0.202 A 
BRANCH  17  20
ATOM     20  C   UNL     1      -7.906  -9.919  17.470  0.00  0.00    +0.025 A 
ATOM     23  C   UNL     1      -8.381  -9.054  16.484  0.00  0.00    +0.044 A 
ATOM     24  C   UNL     1      -8.762 -10.372  18.474  0.00  0.00    +0.012 A 
ATOM     25  C   UNL     1      -9.715  -8.643  16.502  0.00  0.00    +0.127 A 
ATOM     26  C   UNL     1     -10.095  -9.960  18.492  0.00  0.00    +0.003 A 
ATOM     27  C   UNL     1     -10.571  -9.095  17.506  0.00  0.00    +0.033 A 
BRANCH  25   9
ATOM      3  O   UNL     1     -10.727  -8.247  14.469  0.00  0.00    -0.126 OA
ATOM      4  O   UNL     1     -10.091  -6.524  15.673  0.00  0.00    -0.126 OA
ATOM      9  N   UNL     1     -10.201  -7.763  15.500  0.00  0.00    +0.056 N 
ENDBRANCH  25   9
ENDBRANCH  17  20
ENDBRANCH  10  15
BRANCH  12   1
ATOM      1  O   UNL     1       0.022 -10.366  15.776  0.00  0.00    -0.390 OA
ATOM     28  H   UNL     1       0.496  -9.572  15.473  0.00  0.00    +0.210 HD
ENDBRANCH  12   1
BRANCH   5  14
ATOM     14  C   UNL     1      -4.084 -11.294  13.572  0.00  0.00    +0.120 C 
BRANCH  14  16
ATOM      8  N   UNL     1      -5.631  -8.510  10.681  0.00  0.00    -0.263 NA
ATOM     16  C   UNL     1      -4.625 -10.319  12.560  0.00  0.00    -0.030 A 
ATOM     18  C   UNL     1      -5.865  -9.722  12.760  0.00  0.00    +0.024 A 
ATOM     19  C   UNL     1      -3.888 -10.013  11.421  0.00  0.00    +0.024 A 
ATOM     21  C   UNL     1      -6.320  -8.832  11.799  0.00  0.00    +0.111 A 
ATOM     22  C   UNL     1      -4.431  -9.110  10.521  0.00  0.00    +0.111 A 
ENDBRANCH  14  16
ENDBRANCH   5  14
TORSDOF 6
ENDMDL
MODEL 6
REMARK VINA RESULT:      -6.5      1.803      3.562
REMARK  Name = 26744329
REMARK  6 active torsions:
REMARK  status: ('A' for Active; 'I' for Inactive)
REMARK    1  A    between atoms: O_1  and  C_12
REMARK    2  A    between atoms: N_5  and  C_14
REMARK    3  A    between atoms: N_9  and  C_25
REMARK    4  A    between atoms: C_10  and  C_15
REMARK    5  A    between atoms: C_14  and  C_16
REMARK    6  A    between atoms: C_17  and  C_20
REMARK                            x       y       z     vdW  Elec       q    Type
REMARK                         _______ _______ _______ _____ _____    ______ ____
ROOT
ATOM      5  N   UNL     1      12.668   7.853  20.226  0.00  0.00    -0.285 NA
ATOM     10  C   UNL     1      13.824   8.766  20.116  0.00  0.00    +0.149 C 
ATOM     11  C   UNL     1      13.448   9.983  20.982  0.00  0.00    +0.061 C 
ATOM     12  C   UNL     1      12.047   9.682  21.499  0.00  0.00    +0.130 C 
ATOM     13  C   UNL     1      11.501   8.693  20.486  0.00  0.00    +0.116 C 
ENDROOT
BRANCH  10  15
ATOM      2  O   UNL     1      15.016   6.927  21.199  0.00  0.00    -0.336 OA
ATOM      6  N   UNL     1      16.352   8.533  20.391  0.00  0.00    -0.190 NA
ATOM      7  N   UNL     1      16.325   6.529  21.493  0.00  0.00    -0.056 NA
ATOM     15  C   UNL     1      15.121   8.117  20.549  0.00  0.00    +0.245 A 
ATOM     17  C   UNL     1      17.056   7.527  20.987  0.00  0.00    +0.202 A 
BRANCH  17  20
ATOM     20  C   UNL     1      18.488   7.548  21.057  0.00  0.00    +0.025 A 
ATOM     23  C   UNL     1      19.218   6.398  20.755  0.00  0.00    +0.044 A 
ATOM     24  C   UNL     1      19.150   8.719  21.428  0.00  0.00    +0.012 A 
ATOM     25  C   UNL     1      20.611   6.420  20.822  0.00  0.00    +0.127 A 
ATOM     26  C   UNL     1      20.544   8.739  21.496  0.00  0.00    +0.003 A 
ATOM     27  C   UNL     1      21.275   7.590  21.193  0.00  0.00    +0.033 A 
BRANCH  25   9
ATOM      3  O   UNL     1      22.596   5.346  20.347  0.00  0.00    -0.126 OA
ATOM      4  O   UNL     1      20.754   4.153  20.420  0.00  0.00    -0.126 OA
ATOM      9  N   UNL     1      21.356   5.251  20.515  0.00  0.00    +0.056 N 
ENDBRANCH  25   9
ENDBRANCH  17  20
ENDBRANCH  10  15
BRANCH  12   1
ATOM      1  O   UNL     1      11.268  10.863  21.554  0.00  0.00    -0.390 OA
ATOM     28  H   UNL     1      11.882  11.615  21.609  0.00  0.00    +0.210 HD
ENDBRANCH  12   1
BRANCH   5  14
ATOM     14  C   UNL     1      12.486   7.013  19.049  0.00  0.00    +0.120 C 
BRANCH  14  16
ATOM      8  N   UNL     1      12.956   9.245  15.403  0.00  0.00    -0.263 NA
ATOM     16  C   UNL     1      12.650   7.794  17.773  0.00  0.00    -0.030 A 
ATOM     18  C   UNL     1      13.870   7.790  17.104  0.00  0.00    +0.024 A 
ATOM     19  C   UNL     1      11.583   8.523  17.257  0.00  0.00    +0.024 A 
ATOM     21  C   UNL     1      13.971   8.525  15.934  0.00  0.00    +0.111 A 
ATOM     22  C   UNL     1      11.787   9.224  16.080  0.00  0.00    +0.111 A 
ENDBRANCH  14  16
ENDBRANCH   5  14
TORSDOF 6
ENDMDL
MODEL 7
REMARK VINA RESULT:      -6.4     26.563     29.417
REMARK  Name = 26744329
REMARK  6 active torsions:
REMARK  status: ('A' for Active; 'I' for Inactive)
REMARK    1  A    between atoms: O_1  and  C_12
REMARK    2  A    between atoms: N_5  and  C_14
REMARK    3  A    between atoms: N_9  and  C_25
REMARK    4  A    between atoms: C_10  and  C_15
REMARK    5  A    between atoms: C_14  and  C_16
REMARK    6  A    between atoms: C_17  and  C_20
REMARK                            x       y       z     vdW  Elec       q    Type
REMARK                         _______ _______ _______ _____ _____    ______ ____
ROOT
ATOM      5  N   UNL     1      -3.433 -10.672  14.767  0.00  0.00    -0.285 NA
ATOM     10  C   UNL     1      -3.463 -11.354  16.077  0.00  0.00    +0.149 C 
ATOM     11  C   UNL     1      -2.129 -10.978  16.747  0.00  0.00    +0.061 C 
ATOM     12  C   UNL     1      -1.399 -10.121  15.721  0.00  0.00    +0.130 C 
ATOM     13  C   UNL     1      -2.024 -10.538  14.403  0.00  0.00    +0.116 C 
ENDROOT
BRANCH  10  15
ATOM      2  O   UNL     1      -4.510 -11.004  18.257  0.00  0.00    -0.336 OA
ATOM      6  N   UNL     1      -5.859 -10.591  16.518  0.00  0.00    -0.190 NA
ATOM      7  N   UNL     1      -5.738 -10.610  18.802  0.00  0.00    -0.056 NA
ATOM     15  C   UNL     1      -4.667 -10.965  16.908  0.00  0.00    +0.245 A 
ATOM     17  C   UNL     1      -6.481 -10.384  17.715  0.00  0.00    +0.202 A 
BRANCH  17  20
ATOM     20  C   UNL     1      -7.846  -9.949  17.790  0.00  0.00    +0.025 A 
ATOM     23  C   UNL     1      -8.733 -10.584  18.659  0.00  0.00    +0.044 A 
ATOM     24  C   UNL     1      -8.285  -8.891  16.994  0.00  0.00    +0.012 A 
ATOM     25  C   UNL     1     -10.060 -10.160  18.733  0.00  0.00    +0.127 A 
ATOM     26  C   UNL     1      -9.613  -8.468  17.068  0.00  0.00    +0.003 A 
ATOM     27  C   UNL     1     -10.500  -9.102  17.937  0.00  0.00    +0.033 A 
BRANCH  25   9
ATOM      3  O   UNL     1     -10.545 -11.740  20.342  0.00  0.00    -0.126 OA
ATOM      4  O   UNL     1     -12.160 -10.422  19.651  0.00  0.00    -0.126 OA
ATOM      9  N   UNL     1     -10.965 -10.805  19.617  0.00  0.00    +0.056 N 
ENDBRANCH  25   9
ENDBRANCH  17  20
ENDBRANCH  10  15
BRANCH  12   1
ATOM      1  O   UNL     1      -0.008 -10.382  15.749  0.00  0.00    -0.390 OA
ATOM     28  H   UNL     1       0.124 -11.299  15.455  0.00  0.00    +0.210 HD
ENDBRANCH  12   1
BRANCH   5  14
ATOM     14  C   UNL     1      -4.200 -11.365  13.740  0.00  0.00    +0.120 C 
BRANCH  14  16
ATOM      8  N   UNL     1      -5.843  -8.629  10.856  0.00  0.00    -0.263 NA
ATOM     16  C   UNL     1      -4.775 -10.407  12.731  0.00  0.00    -0.030 A 
ATOM     18  C   UNL     1      -5.985  -9.770  12.983  0.00  0.00    +0.024 A 
ATOM     19  C   UNL     1      -4.098 -10.156  11.541  0.00  0.00    +0.024 A 
ATOM     21  C   UNL     1      -6.473  -8.898  12.022  0.00  0.00    +0.111 A 
ATOM     22  C   UNL     1      -4.671  -9.267  10.646  0.00  0.00    +0.111 A 
ENDBRANCH  14  16
ENDBRANCH   5  14
TORSDOF 6
ENDMDL
MODEL 8
REMARK VINA RESULT:      -6.3     26.897     29.122
REMARK  Name = 26744329
REMARK  6 active torsions:
REMARK  status: ('A' for Active; 'I' for Inactive)
REMARK    1  A    between atoms: O_1  and  C_12
REMARK    2  A    between atoms: N_5  and  C_14
REMARK    3  A    between atoms: N_9  and  C_25
REMARK    4  A    between atoms: C_10  and  C_15
REMARK    5  A    between atoms: C_14  and  C_16
REMARK    6  A    between atoms: C_17  and  C_20
REMARK                            x       y       z     vdW  Elec       q    Type
REMARK                         _______ _______ _______ _____ _____    ______ ____
ROOT
ATOM      5  N   UNL     1      -7.244 -10.724  17.558  0.00  0.00    -0.285 NA
ATOM     10  C   UNL     1      -5.873 -11.030  18.014  0.00  0.00    +0.149 C 
ATOM     11  C   UNL     1      -5.972 -12.431  18.645  0.00  0.00    +0.061 C 
ATOM     12  C   UNL     1      -7.443 -12.810  18.538  0.00  0.00    +0.130 C 
ATOM     13  C   UNL     1      -8.147 -11.470  18.433  0.00  0.00    +0.116 C 
ENDROOT
BRANCH  10  15
ATOM      2  O   UNL     1      -3.569 -11.233  17.225  0.00  0.00    -0.336 OA
ATOM      6  N   UNL     1      -5.037 -10.676  15.628  0.00  0.00    -0.190 NA
ATOM      7  N   UNL     1      -2.830 -11.110  16.042  0.00  0.00    -0.056 NA
ATOM     15  C   UNL     1      -4.859 -10.962  16.892  0.00  0.00    +0.245 A 
ATOM     17  C   UNL     1      -3.764 -10.779  15.146  0.00  0.00    +0.202 A 
BRANCH  17  20
ATOM     20  C   UNL     1      -3.460 -10.547  13.764  0.00  0.00    +0.025 A 
ATOM     23  C   UNL     1      -4.491 -10.343  12.847  0.00  0.00    +0.044 A 
ATOM     24  C   UNL     1      -2.131 -10.525  13.337  0.00  0.00    +0.012 A 
ATOM     25  C   UNL     1      -4.194 -10.115  11.503  0.00  0.00    +0.127 A 
ATOM     26  C   UNL     1      -1.835 -10.299  11.993  0.00  0.00    +0.003 A 
ATOM     27  C   UNL     1      -2.866 -10.094  11.075  0.00  0.00    +0.033 A 
BRANCH  25   9
ATOM      3  O   UNL     1      -5.708 -10.892   9.947  0.00  0.00    -0.126 OA
ATOM      4  O   UNL     1      -5.676  -8.742  10.391  0.00  0.00    -0.126 OA
ATOM      9  N   UNL     1      -5.242  -9.907  10.569  0.00  0.00    +0.056 N 
ENDBRANCH  25   9
ENDBRANCH  17  20
ENDBRANCH  10  15
BRANCH  12   1
ATOM      1  O   UNL     1      -7.859 -13.534  19.680  0.00  0.00    -0.390 OA
ATOM     28  H   UNL     1      -8.817 -13.683  19.599  0.00  0.00    +0.210 HD
ENDBRANCH  12   1
BRANCH   5  14
ATOM     14  C   UNL     1      -7.543  -9.297  17.552  0.00  0.00    +0.120 C 
BRANCH  14  16
ATOM      8  N   UNL     1     -10.776  -8.354  14.877  0.00  0.00    -0.263 NA
ATOM     16  C   UNL     1      -8.675  -8.967  16.616  0.00  0.00    -0.030 A 
ATOM     18  C   UNL     1      -8.699  -9.505  15.334  0.00  0.00    +0.024 A 
ATOM     19  C   UNL     1      -9.700  -8.123  17.029  0.00  0.00    +0.024 A 
ATOM     21  C   UNL     1      -9.762  -9.170  14.510  0.00  0.00    +0.111 A 
ATOM     22  C   UNL     1     -10.718  -7.851  16.129  0.00  0.00    +0.111 A 
ENDBRANCH  14  16
ENDBRANCH   5  14
TORSDOF 6
ENDMDL
MODEL 9
REMARK VINA RESULT:      -6.2      2.821      7.193
REMARK  Name = 26744329
REMARK  6 active torsions:
REMARK  status: ('A' for Active; 'I' for Inactive)
REMARK    1  A    between atoms: O_1  and  C_12
REMARK    2  A    between atoms: N_5  and  C_14
REMARK    3  A    between atoms: N_9  and  C_25
REMARK    4  A    between atoms: C_10  and  C_15
REMARK    5  A    between atoms: C_14  and  C_16
REMARK    6  A    between atoms: C_17  and  C_20
REMARK                            x       y       z     vdW  Elec       q    Type
REMARK                         _______ _______ _______ _____ _____    ______ ____
ROOT
ATOM      5  N   UNL     1      19.139   8.551  21.887  0.00  0.00    -0.285 NA
ATOM     10  C   UNL     1      19.100   7.375  20.994  0.00  0.00    +0.149 C 
ATOM     11  C   UNL     1      19.576   6.201  21.868  0.00  0.00    +0.061 C 
ATOM     12  C   UNL     1      19.903   6.822  23.220  0.00  0.00    +0.130 C 
ATOM     13  C   UNL     1      20.171   8.277  22.886  0.00  0.00    +0.116 C 
ENDROOT
BRANCH  10  15
ATOM      2  O   UNL     1      17.622   6.133  19.495  0.00  0.00    -0.336 OA
ATOM      6  N   UNL     1      16.606   7.780  20.622  0.00  0.00    -0.190 NA
ATOM      7  N   UNL     1      16.282   6.113  19.091  0.00  0.00    -0.056 NA
ATOM     15  C   UNL     1      17.728   7.144  20.398  0.00  0.00    +0.245 A 
ATOM     17  C   UNL     1      15.748   7.113  19.798  0.00  0.00    +0.202 A 
BRANCH  17  20
ATOM     20  C   UNL     1      14.361   7.469  19.705  0.00  0.00    +0.025 A 
ATOM     23  C   UNL     1      13.436   6.900  20.580  0.00  0.00    +0.044 A 
ATOM     24  C   UNL     1      13.940   8.384  18.740  0.00  0.00    +0.012 A 
ATOM     25  C   UNL     1      12.087   7.248  20.490  0.00  0.00    +0.127 A 
ATOM     26  C   UNL     1      12.591   8.730  18.650  0.00  0.00    +0.003 A 
ATOM     27  C   UNL     1      11.665   8.163  19.525  0.00  0.00    +0.033 A 
BRANCH  25   9
ATOM      3  O   UNL     1      10.949   5.432  21.340  0.00  0.00    -0.126 OA
ATOM      4  O   UNL     1      10.530   7.416  22.183  0.00  0.00    -0.126 OA
ATOM      9  N   UNL     1      11.144   6.671  21.380  0.00  0.00    +0.056 N 
ENDBRANCH  25   9
ENDBRANCH  17  20
ENDBRANCH  10  15
BRANCH  12   1
ATOM      1  O   UNL     1      21.034   6.198  23.798  0.00  0.00    -0.390 OA
ATOM     28  H   UNL     1      21.003   6.365  24.756  0.00  0.00    +0.210 HD
ENDBRANCH  12   1
BRANCH   5  14
ATOM     14  C   UNL     1      19.381   9.802  21.180  0.00  0.00    +0.120 C 
BRANCH  14  16
ATOM      8  N   UNL     1      16.274  12.682  21.923  0.00  0.00    -0.263 NA
ATOM     16  C   UNL     1      18.294  10.810  21.440  0.00  0.00    -0.030 A 
ATOM     18  C   UNL     1      17.430  11.185  20.417  0.00  0.00    +0.024 A 
ATOM     19  C   UNL     1      18.148  11.371  22.705  0.00  0.00    +0.024 A 
ATOM     21  C   UNL     1      16.446  12.117  20.707  0.00  0.00    +0.111 A 
ATOM     22  C   UNL     1      17.132  12.293  22.892  0.00  0.00    +0.111 A 
ENDBRANCH  14  16
ENDBRANCH   5  14
TORSDOF 6
ENDMDL
MODEL 10
REMARK VINA RESULT:      -6.2     27.823     29.105
REMARK  Name = 26744329
REMARK  6 active torsions:
REMARK  status: ('A' for Active; 'I' for Inactive)
REMARK    1  A    between atoms: O_1  and  C_12
REMARK    2  A    between atoms: N_5  and  C_14
REMARK    3  A    between atoms: N_9  and  C_25
REMARK    4  A    between atoms: C_10  and  C_15
REMARK    5  A    between atoms: C_14  and  C_16
REMARK    6  A    between atoms: C_17  and  C_20
REMARK                            x       y       z     vdW  Elec       q    Type
REMARK                         _______ _______ _______ _____ _____    ______ ____
ROOT
ATOM      5  N   UNL     1      -4.687  -9.890  10.081  0.00  0.00    -0.285 NA
ATOM     10  C   UNL     1      -5.396  -8.831  10.827  0.00  0.00    +0.149 C 
ATOM     11  C   UNL     1      -6.574  -8.431   9.919  0.00  0.00    +0.061 C 
ATOM     12  C   UNL     1      -6.417  -9.286   8.669  0.00  0.00    +0.130 C 
ATOM     13  C   UNL     1      -4.941  -9.639   8.664  0.00  0.00    +0.116 C 
ENDROOT
BRANCH  10  15
ATOM      2  O   UNL     1      -7.178  -9.470  12.373  0.00  0.00    -0.336 OA
ATOM      6  N   UNL     1      -5.126  -9.535  13.267  0.00  0.00    -0.190 NA
ATOM      7  N   UNL     1      -7.345  -9.884  13.700  0.00  0.00    -0.056 NA
ATOM     15  C   UNL     1      -5.843  -9.286  12.200  0.00  0.00    +0.245 A 
ATOM     17  C   UNL     1      -6.090  -9.897  14.161  0.00  0.00    +0.202 A 
BRANCH  17  20
ATOM     20  C   UNL     1      -5.768 -10.270  15.509  0.00  0.00    +0.025 A 
ATOM     23  C   UNL     1      -6.755 -10.246  16.494  0.00  0.00    +0.044 A 
ATOM     24  C   UNL     1      -4.466 -10.655  15.832  0.00  0.00    +0.012 A 
ATOM     25  C   UNL     1      -6.440 -10.610  17.804  0.00  0.00    +0.127 A 
ATOM     26  C   UNL     1      -4.153 -11.017  17.142  0.00  0.00    +0.003 A 
ATOM     27  C   UNL     1      -5.140 -10.995  18.128  0.00  0.00    +0.033 A 
BRANCH  25   9
ATOM      3  O   UNL     1      -8.650 -10.578  18.462  0.00  0.00    -0.126 OA
ATOM      4  O   UNL     1      -7.097 -10.580  20.014  0.00  0.00    -0.126 OA
ATOM      9  N   UNL     1      -7.444 -10.588  18.808  0.00  0.00    +0.056 N 
ENDBRANCH  25   9
ENDBRANCH  17  20
ENDBRANCH  10  15
BRANCH  12   1
ATOM      1  O   UNL     1      -6.787  -8.558   7.513  0.00  0.00    -0.390 OA
ATOM     28  H   UNL     1      -7.684  -8.840   7.264  0.00  0.00    +0.210 HD
ENDBRANCH  12   1
BRANCH   5  14
ATOM     14  C   UNL     1      -3.262  -9.949  10.380  0.00  0.00    +0.120 C 
BRANCH  14  16
ATOM      8  N   UNL     1      -2.271 -13.383  12.771  0.00  0.00    -0.263 NA
ATOM     16  C   UNL     1      -2.915 -11.151  11.217  0.00  0.00    -0.030 A 
ATOM     18  C   UNL     1      -2.059 -11.020  12.305  0.00  0.00    +0.024 A 
ATOM     19  C   UNL     1      -3.450 -12.397  10.905  0.00  0.00    +0.024 A 
ATOM     21  C   UNL     1      -1.770 -12.157  13.044  0.00  0.00    +0.111 A 
ATOM     22  C   UNL     1      -3.099 -13.471  11.707  0.00  0.00    +0.111 A 
ENDBRANCH  14  16
ENDBRANCH   5  14
TORSDOF 6
ENDMDL
