MODEL 1
REMARK VINA RESULT:      -6.9      0.000      0.000
REMARK  Name = 40777095
REMARK  9 active torsions:
REMARK  status: ('A' for Active; 'I' for Inactive)
REMARK    1  A    between atoms: O_3  and  C_28
REMARK    2  A    between atoms: N_6  and  C_16
REMARK    3  A    between atoms: C_10  and  C_17
REMARK    4  A    between atoms: C_11  and  C_16
REMARK    5  A    between atoms: C_19  and  C_23
REMARK    6  A    between atoms: C_20  and  C_22
REMARK    7  A    between atoms: C_21  and  C_24
REMARK    8  A    between atoms: C_22  and  C_25
REMARK    9  A    between atoms: C_25  and  C_28
REMARK                            x       y       z     vdW  Elec       q    Type
REMARK                         _______ _______ _______ _____ _____    ______ ____
ROOT
ATOM      5  N   UNL     1      -5.592 -10.204  17.402  0.00  0.00    -0.297 NA
ATOM      9  C   UNL     1      -5.025 -12.702  16.930  0.00  0.00    +0.002 C 
ATOM     10  C   UNL     1      -3.959 -11.771  16.289  0.00  0.00    +0.055 C 
ATOM     11  C   UNL     1      -6.790 -10.905  16.868  0.00  0.00    +0.074 C 
ATOM     12  C   UNL     1      -6.421 -12.326  16.389  0.00  0.00    +0.024 C 
ATOM     13  C   UNL     1      -5.027 -12.400  18.443  0.00  0.00    +0.019 C 
ATOM     14  C   UNL     1      -4.469 -10.309  16.437  0.00  0.00    +0.094 C 
ATOM     15  C   UNL     1      -5.189 -10.883  18.657  0.00  0.00    +0.085 C 
ENDROOT
BRANCH  10  17
ATOM      7  N   UNL     1      -2.707 -13.164  14.715  0.00  0.00    -0.237 NA
ATOM      8  N   UNL     1      -2.628 -12.683  12.356  0.00  0.00    -0.232 NA
ATOM     17  C   UNL     1      -3.494 -12.080  14.872  0.00  0.00    +0.050 A 
ATOM     18  C   UNL     1      -3.885 -11.260  13.834  0.00  0.00    +0.052 A 
ATOM     19  C   UNL     1      -3.418 -11.613  12.585  0.00  0.00    +0.076 A 
ATOM     21  C   UNL     1      -2.316 -13.404  13.449  0.00  0.00    +0.127 A 
ATOM     24  C   UNL     1      -1.442 -14.593  13.235  0.00  0.00    +0.088 C 
BRANCH  19  23
ATOM      1 BR   UNL     1      -6.143 -12.449  11.135  0.00  0.00    -0.050 Br
ATOM     23  C   UNL     1      -3.754 -10.836  11.415  0.00  0.00    +0.014 A 
ATOM     26  C   UNL     1      -4.910 -11.079  10.673  0.00  0.00    +0.027 A 
ATOM     27  C   UNL     1      -2.881  -9.819  11.034  0.00  0.00    +0.011 A 
ATOM     29  C   UNL     1      -5.193 -10.303   9.550  0.00  0.00    +0.016 A 
ATOM     30  C   UNL     1      -3.163  -9.042   9.910  0.00  0.00    +0.001 A 
ATOM     31  C   UNL     1      -4.319  -9.284   9.168  0.00  0.00    +0.001 A 
ENDBRANCH  19  23
ENDBRANCH  10  17
BRANCH  11  16
ATOM     16  C   UNL     1      -7.496 -10.101  15.775  0.00  0.00    +0.123 C 
BRANCH  16   6
ATOM      2  O   UNL     1     -10.309  -9.897  16.423  0.00  0.00    -0.276 OA
ATOM      6  N   UNL     1      -8.177  -8.972  16.332  0.00  0.00    -0.314 N 
ATOM     20  C   UNL     1      -9.543  -8.957  16.616  0.00  0.00    +0.214 C 
ATOM     32  H   UNL     1      -7.630  -8.137  16.524  0.00  0.00    +0.149 HD
BRANCH  20  22
ATOM     22  C   UNL     1      -9.990  -7.627  17.196  0.00  0.00    +0.107 C 
BRANCH  22  25
ATOM     25  C   UNL     1     -11.288  -7.126  16.573  0.00  0.00    +0.129 C 
BRANCH  25  28
ATOM      4  O   UNL     1     -11.900  -5.530  14.841  0.00  0.00    -0.251 OA
ATOM     28  C   UNL     1     -11.040  -6.061  15.530  0.00  0.00    +0.305 C 
BRANCH  28   3
ATOM      3  O   UNL     1      -9.721  -5.749  15.442  0.00  0.00    -0.481 OA
ATOM     33  H   UNL     1      -9.570  -4.780  15.488  0.00  0.00    +0.295 HD
ENDBRANCH  28   3
ENDBRANCH  25  28
ENDBRANCH  22  25
ENDBRANCH  20  22
ENDBRANCH  16   6
ENDBRANCH  11  16
TORSDOF 8
ENDMDL
MODEL 2
REMARK VINA RESULT:      -6.9     24.283     27.098
REMARK  Name = 40777095
REMARK  9 active torsions:
REMARK  status: ('A' for Active; 'I' for Inactive)
REMARK    1  A    between atoms: O_3  and  C_28
REMARK    2  A    between atoms: N_6  and  C_16
REMARK    3  A    between atoms: C_10  and  C_17
REMARK    4  A    between atoms: C_11  and  C_16
REMARK    5  A    between atoms: C_19  and  C_23
REMARK    6  A    between atoms: C_20  and  C_22
REMARK    7  A    between atoms: C_21  and  C_24
REMARK    8  A    between atoms: C_22  and  C_25
REMARK    9  A    between atoms: C_25  and  C_28
REMARK                            x       y       z     vdW  Elec       q    Type
REMARK                         _______ _______ _______ _____ _____    ______ ____
ROOT
ATOM      5  N   UNL     1       9.401   5.125   6.015  0.00  0.00    -0.297 NA
ATOM      9  C   UNL     1      10.542   7.348   6.747  0.00  0.00    +0.002 C 
ATOM     10  C   UNL     1       9.020   7.566   6.519  0.00  0.00    +0.055 C 
ATOM     11  C   UNL     1      10.605   5.375   5.181  0.00  0.00    +0.074 C 
ATOM     12  C   UNL     1      11.174   6.784   5.457  0.00  0.00    +0.024 C 
ATOM     13  C   UNL     1      10.677   6.260   7.833  0.00  0.00    +0.019 C 
ATOM     14  C   UNL     1       8.452   6.260   5.894  0.00  0.00    +0.094 C 
ATOM     15  C   UNL     1       9.837   5.034   7.429  0.00  0.00    +0.085 C 
ENDROOT
BRANCH  10  17
ATOM      7  N   UNL     1       9.029   9.994   6.219  0.00  0.00    -0.237 NA
ATOM      8  N   UNL     1       7.819  11.072   4.436  0.00  0.00    -0.232 NA
ATOM     17  C   UNL     1       8.579   8.809   5.758  0.00  0.00    +0.050 A 
ATOM     18  C   UNL     1       7.758   8.676   4.657  0.00  0.00    +0.052 A 
ATOM     19  C   UNL     1       7.407   9.853   4.029  0.00  0.00    +0.076 A 
ATOM     21  C   UNL     1       8.617  11.069   5.520  0.00  0.00    +0.127 A 
ATOM     24  C   UNL     1       9.092  12.399   6.002  0.00  0.00    +0.088 C 
BRANCH  19  23
ATOM      1 BR   UNL     1       8.882   9.259   1.254  0.00  0.00    -0.050 Br
ATOM     23  C   UNL     1       6.550   9.852   2.866  0.00  0.00    +0.014 A 
ATOM     26  C   UNL     1       7.044   9.610   1.584  0.00  0.00    +0.027 A 
ATOM     27  C   UNL     1       5.192  10.105   3.055  0.00  0.00    +0.011 A 
ATOM     29  C   UNL     1       6.178   9.619   0.490  0.00  0.00    +0.016 A 
ATOM     30  C   UNL     1       4.326  10.115   1.961  0.00  0.00    +0.001 A 
ATOM     31  C   UNL     1       4.820   9.873   0.679  0.00  0.00    +0.001 A 
ENDBRANCH  19  23
ENDBRANCH  10  17
BRANCH  11  16
ATOM     16  C   UNL     1      10.339   5.151   3.691  0.00  0.00    +0.123 C 
BRANCH  16   6
ATOM      2  O   UNL     1      12.174   5.534   1.487  0.00  0.00    -0.276 OA
ATOM      6  N   UNL     1      11.253   4.193   3.149  0.00  0.00    -0.314 N 
ATOM     20  C   UNL     1      12.108   4.460   2.079  0.00  0.00    +0.214 C 
ATOM     32  H   UNL     1      11.272   3.267   3.568  0.00  0.00    +0.149 HD
BRANCH  20  22
ATOM     22  C   UNL     1      12.961   3.259   1.717  0.00  0.00    +0.107 C 
BRANCH  22  25
ATOM     25  C   UNL     1      13.831   3.509   0.490  0.00  0.00    +0.129 C 
BRANCH  25  28
ATOM      4  O   UNL     1      15.989   4.616   0.289  0.00  0.00    -0.251 OA
ATOM     28  C   UNL     1      15.262   3.818   0.864  0.00  0.00    +0.305 C 
BRANCH  28   3
ATOM      3  O   UNL     1      15.662   3.091   1.940  0.00  0.00    -0.481 OA
ATOM     33  H   UNL     1      15.166   3.336   2.751  0.00  0.00    +0.295 HD
ENDBRANCH  28   3
ENDBRANCH  25  28
ENDBRANCH  22  25
ENDBRANCH  20  22
ENDBRANCH  16   6
ENDBRANCH  11  16
TORSDOF 8
ENDMDL
MODEL 3
REMARK VINA RESULT:      -6.8     23.626     26.887
REMARK  Name = 40777095
REMARK  9 active torsions:
REMARK  status: ('A' for Active; 'I' for Inactive)
REMARK    1  A    between atoms: O_3  and  C_28
REMARK    2  A    between atoms: N_6  and  C_16
REMARK    3  A    between atoms: C_10  and  C_17
REMARK    4  A    between atoms: C_11  and  C_16
REMARK    5  A    between atoms: C_19  and  C_23
REMARK    6  A    between atoms: C_20  and  C_22
REMARK    7  A    between atoms: C_21  and  C_24
REMARK    8  A    between atoms: C_22  and  C_25
REMARK    9  A    between atoms: C_25  and  C_28
REMARK                            x       y       z     vdW  Elec       q    Type
REMARK                         _______ _______ _______ _____ _____    ______ ____
ROOT
ATOM      5  N   UNL     1      13.801   9.917   5.550  0.00  0.00    -0.297 NA
ATOM      9  C   UNL     1      14.505   7.413   5.670  0.00  0.00    +0.002 C 
ATOM     10  C   UNL     1      13.822   7.722   4.309  0.00  0.00    +0.055 C 
ATOM     11  C   UNL     1      13.319   9.314   6.821  0.00  0.00    +0.074 C 
ATOM     12  C   UNL     1      13.545   7.786   6.818  0.00  0.00    +0.024 C 
ATOM     13  C   UNL     1      15.728   8.349   5.777  0.00  0.00    +0.019 C 
ATOM     14  C   UNL     1      13.254   9.167   4.392  0.00  0.00    +0.094 C 
ATOM     15  C   UNL     1      15.279   9.800   5.522  0.00  0.00    +0.085 C 
ENDROOT
BRANCH  10  17
ATOM      7  N   UNL     1      11.791   6.392   4.608  0.00  0.00    -0.237 NA
ATOM      8  N   UNL     1      10.934   4.950   2.878  0.00  0.00    -0.232 NA
ATOM     17  C   UNL     1      12.799   6.728   3.777  0.00  0.00    +0.050 A 
ATOM     18  C   UNL     1      12.939   6.226   2.499  0.00  0.00    +0.052 A 
ATOM     19  C   UNL     1      11.967   5.332   2.099  0.00  0.00    +0.076 A 
ATOM     21  C   UNL     1      10.907   5.511   4.102  0.00  0.00    +0.127 A 
ATOM     24  C   UNL     1       9.780   5.112   4.993  0.00  0.00    +0.088 C 
BRANCH  19  23
ATOM      1 BR   UNL     1      10.103   6.739  -0.085  0.00  0.00    -0.050 Br
ATOM     23  C   UNL     1      12.000   4.732   0.786  0.00  0.00    +0.014 A 
ATOM     26  C   UNL     1      11.242   5.230  -0.274  0.00  0.00    +0.027 A 
ATOM     27  C   UNL     1      12.821   3.621   0.596  0.00  0.00    +0.011 A 
ATOM     29  C   UNL     1      11.306   4.617  -1.525  0.00  0.00    +0.016 A 
ATOM     30  C   UNL     1      12.884   3.008  -0.656  0.00  0.00    +0.001 A 
ATOM     31  C   UNL     1      12.126   3.505  -1.716  0.00  0.00    +0.001 A 
ENDBRANCH  19  23
ENDBRANCH  10  17
BRANCH  11  16
ATOM     16  C   UNL     1      11.864   9.675   7.123  0.00  0.00    +0.123 C 
BRANCH  16   6
ATOM      2  O   UNL     1       9.230   9.524   8.311  0.00  0.00    -0.276 OA
ATOM      6  N   UNL     1      11.083   8.498   7.349  0.00  0.00    -0.314 N 
ATOM     20  C   UNL     1       9.814   8.513   7.931  0.00  0.00    +0.214 C 
ATOM     32  H   UNL     1      11.481   7.605   7.072  0.00  0.00    +0.149 HD
BRANCH  20  22
ATOM     22  C   UNL     1       9.224   7.120   8.047  0.00  0.00    +0.107 C 
BRANCH  22  25
ATOM     25  C   UNL     1      10.283   6.060   8.328  0.00  0.00    +0.129 C 
BRANCH  25  28
ATOM      4  O   UNL     1       8.862   4.797   9.848  0.00  0.00    -0.251 OA
ATOM     28  C   UNL     1       9.688   4.816   8.946  0.00  0.00    +0.305 C 
BRANCH  28   3
ATOM      3  O   UNL     1      10.186   3.689   8.372  0.00  0.00    -0.481 OA
ATOM     33  H   UNL     1       9.903   3.600   7.436  0.00  0.00    +0.295 HD
ENDBRANCH  28   3
ENDBRANCH  25  28
ENDBRANCH  22  25
ENDBRANCH  20  22
ENDBRANCH  16   6
ENDBRANCH  11  16
TORSDOF 8
ENDMDL
MODEL 4
REMARK VINA RESULT:      -6.8      2.202      5.540
REMARK  Name = 40777095
REMARK  9 active torsions:
REMARK  status: ('A' for Active; 'I' for Inactive)
REMARK    1  A    between atoms: O_3  and  C_28
REMARK    2  A    between atoms: N_6  and  C_16
REMARK    3  A    between atoms: C_10  and  C_17
REMARK    4  A    between atoms: C_11  and  C_16
REMARK    5  A    between atoms: C_19  and  C_23
REMARK    6  A    between atoms: C_20  and  C_22
REMARK    7  A    between atoms: C_21  and  C_24
REMARK    8  A    between atoms: C_22  and  C_25
REMARK    9  A    between atoms: C_25  and  C_28
REMARK                            x       y       z     vdW  Elec       q    Type
REMARK                         _______ _______ _______ _____ _____    ______ ____
ROOT
ATOM      5  N   UNL     1      -6.759 -11.228  11.252  0.00  0.00    -0.297 NA
ATOM      9  C   UNL     1      -4.864  -9.533  11.815  0.00  0.00    +0.002 C 
ATOM     10  C   UNL     1      -4.588 -10.903  12.493  0.00  0.00    +0.055 C 
ATOM     11  C   UNL     1      -7.347  -9.951  11.734  0.00  0.00    +0.074 C 
ATOM     12  C   UNL     1      -6.244  -9.010  12.267  0.00  0.00    +0.024 C 
ATOM     13  C   UNL     1      -4.953  -9.797  10.297  0.00  0.00    +0.019 C 
ATOM     14  C   UNL     1      -5.849 -11.789  12.281  0.00  0.00    +0.094 C 
ATOM     15  C   UNL     1      -5.961 -10.932  10.038  0.00  0.00    +0.085 C 
ENDROOT
BRANCH  10  17
ATOM      7  N   UNL     1      -2.810 -10.643  14.153  0.00  0.00    -0.237 NA
ATOM      8  N   UNL     1      -3.211 -10.901  16.515  0.00  0.00    -0.232 NA
ATOM     17  C   UNL     1      -4.116 -10.907  13.940  0.00  0.00    +0.050 A 
ATOM     18  C   UNL     1      -5.018 -11.174  14.949  0.00  0.00    +0.052 A 
ATOM     19  C   UNL     1      -4.505 -11.157  16.229  0.00  0.00    +0.076 A 
ATOM     21  C   UNL     1      -2.431 -10.655  15.445  0.00  0.00    +0.127 A 
ATOM     24  C   UNL     1      -0.993 -10.371  15.721  0.00  0.00    +0.088 C 
BRANCH  19  23
ATOM      1 BR   UNL     1      -6.285 -13.806  16.025  0.00  0.00    -0.050 Br
ATOM     23  C   UNL     1      -5.345 -11.422  17.374  0.00  0.00    +0.014 A 
ATOM     26  C   UNL     1      -6.180 -12.538  17.436  0.00  0.00    +0.027 A 
ATOM     27  C   UNL     1      -5.304 -10.520  18.437  0.00  0.00    +0.011 A 
ATOM     29  C   UNL     1      -6.974 -12.752  18.562  0.00  0.00    +0.016 A 
ATOM     30  C   UNL     1      -6.099 -10.735  19.563  0.00  0.00    +0.001 A 
ATOM     31  C   UNL     1      -6.934 -11.850  19.626  0.00  0.00    +0.001 A 
ENDBRANCH  19  23
ENDBRANCH  10  17
BRANCH  11  16
ATOM     16  C   UNL     1      -8.455 -10.171  12.765  0.00  0.00    +0.123 C 
BRANCH  16   6
ATOM      2  O   UNL     1      -8.827 -11.207  15.441  0.00  0.00    -0.276 OA
ATOM      6  N   UNL     1      -8.143  -9.516  13.998  0.00  0.00    -0.314 N 
ATOM     20  C   UNL     1      -8.354 -10.090  15.253  0.00  0.00    +0.214 C 
ATOM     32  H   UNL     1      -7.749  -8.581  13.950  0.00  0.00    +0.149 HD
BRANCH  20  22
ATOM     22  C   UNL     1      -7.931  -9.166  16.380  0.00  0.00    +0.107 C 
BRANCH  22  25
ATOM     25  C   UNL     1      -9.081  -8.836  17.325  0.00  0.00    +0.129 C 
BRANCH  25  28
ATOM      4  O   UNL     1     -11.250  -7.773  17.023  0.00  0.00    -0.251 OA
ATOM     28  C   UNL     1     -10.076  -7.888  16.697  0.00  0.00    +0.305 C 
BRANCH  28   3
ATOM      3  O   UNL     1      -9.507  -7.157  15.703  0.00  0.00    -0.481 OA
ATOM     33  H   UNL     1      -9.622  -6.193  15.847  0.00  0.00    +0.295 HD
ENDBRANCH  28   3
ENDBRANCH  25  28
ENDBRANCH  22  25
ENDBRANCH  20  22
ENDBRANCH  16   6
ENDBRANCH  11  16
TORSDOF 8
ENDMDL
MODEL 5
REMARK VINA RESULT:      -6.6      1.917      2.539
REMARK  Name = 40777095
REMARK  9 active torsions:
REMARK  status: ('A' for Active; 'I' for Inactive)
REMARK    1  A    between atoms: O_3  and  C_28
REMARK    2  A    between atoms: N_6  and  C_16
REMARK    3  A    between atoms: C_10  and  C_17
REMARK    4  A    between atoms: C_11  and  C_16
REMARK    5  A    between atoms: C_19  and  C_23
REMARK    6  A    between atoms: C_20  and  C_22
REMARK    7  A    between atoms: C_21  and  C_24
REMARK    8  A    between atoms: C_22  and  C_25
REMARK    9  A    between atoms: C_25  and  C_28
REMARK                            x       y       z     vdW  Elec       q    Type
REMARK                         _______ _______ _______ _____ _____    ______ ____
ROOT
ATOM      5  N   UNL     1      -6.173 -10.548  18.150  0.00  0.00    -0.297 NA
ATOM      9  C   UNL     1      -4.532 -12.531  17.755  0.00  0.00    +0.002 C 
ATOM     10  C   UNL     1      -4.178 -11.338  16.825  0.00  0.00    +0.055 C 
ATOM     11  C   UNL     1      -6.937 -11.807  17.950  0.00  0.00    +0.074 C 
ATOM     12  C   UNL     1      -5.996 -12.951  17.511  0.00  0.00    +0.024 C 
ATOM     13  C   UNL     1      -4.446 -12.005  19.204  0.00  0.00    +0.019 C 
ATOM     14  C   UNL     1      -5.312 -10.283  16.971  0.00  0.00    +0.094 C 
ATOM     15  C   UNL     1      -5.298 -10.729  19.332  0.00  0.00    +0.085 C 
ENDROOT
BRANCH  10  17
ATOM      7  N   UNL     1      -3.257 -12.819  15.110  0.00  0.00    -0.237 NA
ATOM      8  N   UNL     1      -3.236 -12.224  12.776  0.00  0.00    -0.232 NA
ATOM     17  C   UNL     1      -3.850 -11.635  15.369  0.00  0.00    +0.050 A 
ATOM     18  C   UNL     1      -4.163 -10.706  14.398  0.00  0.00    +0.052 A 
ATOM     19  C   UNL     1      -3.830 -11.058  13.106  0.00  0.00    +0.076 A 
ATOM     21  C   UNL     1      -2.982 -13.046  13.811  0.00  0.00    +0.127 A 
ATOM     24  C   UNL     1      -2.324 -14.344  13.486  0.00  0.00    +0.088 C 
BRANCH  19  23
ATOM      1 BR   UNL     1      -6.784  -9.835  13.037  0.00  0.00    -0.050 Br
ATOM     23  C   UNL     1      -4.102 -10.173  11.997  0.00  0.00    +0.014 A 
ATOM     26  C   UNL     1      -5.344  -9.561  11.827  0.00  0.00    +0.027 A 
ATOM     27  C   UNL     1      -3.078  -9.939  11.081  0.00  0.00    +0.011 A 
ATOM     29  C   UNL     1      -5.562  -8.714  10.742  0.00  0.00    +0.016 A 
ATOM     30  C   UNL     1      -3.295  -9.092   9.994  0.00  0.00    +0.001 A 
ATOM     31  C   UNL     1      -4.537  -8.480   9.824  0.00  0.00    +0.001 A 
ENDBRANCH  19  23
ENDBRANCH  10  17
BRANCH  11  16
ATOM     16  C   UNL     1      -8.110 -11.631  16.983  0.00  0.00    +0.123 C 
BRANCH  16   6
ATOM      2  O   UNL     1      -8.810  -8.908  16.303  0.00  0.00    -0.276 OA
ATOM      6  N   UNL     1      -9.139 -10.830  17.570  0.00  0.00    -0.314 N 
ATOM     20  C   UNL     1      -9.413  -9.518  17.180  0.00  0.00    +0.214 C 
ATOM     32  H   UNL     1      -9.696 -11.244  18.312  0.00  0.00    +0.149 HD
BRANCH  20  22
ATOM     22  C   UNL     1     -10.556  -8.914  17.976  0.00  0.00    +0.107 C 
BRANCH  22  25
ATOM     25  C   UNL     1     -11.466  -9.974  18.585  0.00  0.00    +0.129 C 
BRANCH  25  28
ATOM      4  O   UNL     1     -12.375  -9.797  20.836  0.00  0.00    -0.251 OA
ATOM     28  C   UNL     1     -11.416  -9.964  20.096  0.00  0.00    +0.305 C 
BRANCH  28   3
ATOM      3  O   UNL     1     -10.152 -10.167  20.551  0.00  0.00    -0.481 OA
ATOM     33  H   UNL     1      -9.931 -11.122  20.603  0.00  0.00    +0.295 HD
ENDBRANCH  28   3
ENDBRANCH  25  28
ENDBRANCH  22  25
ENDBRANCH  20  22
ENDBRANCH  16   6
ENDBRANCH  11  16
TORSDOF 8
ENDMDL
MODEL 6
REMARK VINA RESULT:      -6.6      3.315      6.806
REMARK  Name = 40777095
REMARK  9 active torsions:
REMARK  status: ('A' for Active; 'I' for Inactive)
REMARK    1  A    between atoms: O_3  and  C_28
REMARK    2  A    between atoms: N_6  and  C_16
REMARK    3  A    between atoms: C_10  and  C_17
REMARK    4  A    between atoms: C_11  and  C_16
REMARK    5  A    between atoms: C_19  and  C_23
REMARK    6  A    between atoms: C_20  and  C_22
REMARK    7  A    between atoms: C_21  and  C_24
REMARK    8  A    between atoms: C_22  and  C_25
REMARK    9  A    between atoms: C_25  and  C_28
REMARK                            x       y       z     vdW  Elec       q    Type
REMARK                         _______ _______ _______ _____ _____    ______ ____
ROOT
ATOM      5  N   UNL     1      -4.760 -14.940  12.166  0.00  0.00    -0.297 NA
ATOM      9  C   UNL     1      -2.415 -13.854  12.492  0.00  0.00    +0.002 C 
ATOM     10  C   UNL     1      -3.151 -13.981  13.855  0.00  0.00    +0.055 C 
ATOM     11  C   UNL     1      -4.580 -13.822  11.203  0.00  0.00    +0.074 C 
ATOM     12  C   UNL     1      -3.287 -13.036  11.517  0.00  0.00    +0.024 C 
ATOM     13  C   UNL     1      -2.302 -15.280  11.913  0.00  0.00    +0.019 C 
ATOM     14  C   UNL     1      -4.606 -14.443  13.556  0.00  0.00    +0.094 C 
ATOM     15  C   UNL     1      -3.694 -15.938  11.909  0.00  0.00    +0.085 C 
ENDROOT
BRANCH  10  17
ATOM      7  N   UNL     1      -2.042 -11.972  14.704  0.00  0.00    -0.237 NA
ATOM      8  N   UNL     1      -2.970 -10.652  16.493  0.00  0.00    -0.232 NA
ATOM     17  C   UNL     1      -3.106 -12.795  14.808  0.00  0.00    +0.050 A 
ATOM     18  C   UNL     1      -4.128 -12.615  15.718  0.00  0.00    +0.052 A 
ATOM     19  C   UNL     1      -4.006 -11.516  16.543  0.00  0.00    +0.076 A 
ATOM     21  C   UNL     1      -2.038 -10.936  15.564  0.00  0.00    +0.127 A 
ATOM     24  C   UNL     1      -0.876 -10.005  15.481  0.00  0.00    +0.088 C 
BRANCH  19  23
ATOM      1 BR   UNL     1      -6.569  -9.938  15.461  0.00  0.00    -0.050 Br
ATOM     23  C   UNL     1      -5.008 -11.215  17.539  0.00  0.00    +0.014 A 
ATOM     26  C   UNL     1      -6.183 -10.532  17.225  0.00  0.00    +0.027 A 
ATOM     27  C   UNL     1      -4.771 -11.630  18.849  0.00  0.00    +0.011 A 
ATOM     29  C   UNL     1      -7.121 -10.264  18.220  0.00  0.00    +0.016 A 
ATOM     30  C   UNL     1      -5.710 -11.362  19.845  0.00  0.00    +0.001 A 
ATOM     31  C   UNL     1      -6.885 -10.678  19.531  0.00  0.00    +0.001 A 
ENDBRANCH  19  23
ENDBRANCH  10  17
BRANCH  11  16
ATOM     16  C   UNL     1      -5.803 -12.905  11.138  0.00  0.00    +0.123 C 
BRANCH  16   6
ATOM      2  O   UNL     1      -7.573 -10.669  11.626  0.00  0.00    -0.276 OA
ATOM      6  N   UNL     1      -5.433 -11.543  11.375  0.00  0.00    -0.314 N 
ATOM     20  C   UNL     1      -6.355 -10.521  11.603  0.00  0.00    +0.214 C 
ATOM     32  H   UNL     1      -4.443 -11.314  11.372  0.00  0.00    +0.149 HD
BRANCH  20  22
ATOM     22  C   UNL     1      -5.678  -9.180  11.821  0.00  0.00    +0.107 C 
BRANCH  22  25
ATOM     25  C   UNL     1      -5.488  -8.405  10.522  0.00  0.00    +0.129 C 
BRANCH  25  28
ATOM      4  O   UNL     1      -3.263  -9.363  10.282  0.00  0.00    -0.251 OA
ATOM     28  C   UNL     1      -4.249  -8.844   9.777  0.00  0.00    +0.305 C 
BRANCH  28   3
ATOM      3  O   UNL     1      -4.356  -8.594   8.445  0.00  0.00    -0.481 OA
ATOM     33  H   UNL     1      -4.229  -7.643   8.241  0.00  0.00    +0.295 HD
ENDBRANCH  28   3
ENDBRANCH  25  28
ENDBRANCH  22  25
ENDBRANCH  20  22
ENDBRANCH  16   6
ENDBRANCH  11  16
TORSDOF 8
ENDMDL
MODEL 7
REMARK VINA RESULT:      -6.6      3.706      7.144
REMARK  Name = 40777095
REMARK  9 active torsions:
REMARK  status: ('A' for Active; 'I' for Inactive)
REMARK    1  A    between atoms: O_3  and  C_28
REMARK    2  A    between atoms: N_6  and  C_16
REMARK    3  A    between atoms: C_10  and  C_17
REMARK    4  A    between atoms: C_11  and  C_16
REMARK    5  A    between atoms: C_19  and  C_23
REMARK    6  A    between atoms: C_20  and  C_22
REMARK    7  A    between atoms: C_21  and  C_24
REMARK    8  A    between atoms: C_22  and  C_25
REMARK    9  A    between atoms: C_25  and  C_28
REMARK                            x       y       z     vdW  Elec       q    Type
REMARK                         _______ _______ _______ _____ _____    ______ ____
ROOT
ATOM      5  N   UNL     1      -4.597 -15.290  12.293  0.00  0.00    -0.297 NA
ATOM      9  C   UNL     1      -2.290 -14.125  12.616  0.00  0.00    +0.002 C 
ATOM     10  C   UNL     1      -3.110 -14.085  13.936  0.00  0.00    +0.055 C 
ATOM     11  C   UNL     1      -4.367 -14.306  11.202  0.00  0.00    +0.074 C 
ATOM     12  C   UNL     1      -3.106 -13.461  11.489  0.00  0.00    +0.024 C 
ATOM     13  C   UNL     1      -2.124 -15.613  12.241  0.00  0.00    +0.019 C 
ATOM     14  C   UNL     1      -4.537 -14.611  13.611  0.00  0.00    +0.094 C 
ATOM     15  C   UNL     1      -3.506 -16.292  12.238  0.00  0.00    +0.085 C 
ENDROOT
BRANCH  10  17
ATOM      7  N   UNL     1      -1.998 -12.066  14.753  0.00  0.00    -0.237 NA
ATOM      8  N   UNL     1      -3.132 -10.440  16.123  0.00  0.00    -0.232 NA
ATOM     17  C   UNL     1      -3.140 -12.784  14.724  0.00  0.00    +0.050 A 
ATOM     18  C   UNL     1      -4.303 -12.400  15.359  0.00  0.00    +0.052 A 
ATOM     19  C   UNL     1      -4.240 -11.207  16.051  0.00  0.00    +0.076 A 
ATOM     21  C   UNL     1      -2.063 -10.922  15.460  0.00  0.00    +0.127 A 
ATOM     24  C   UNL     1      -0.818 -10.103  15.519  0.00  0.00    +0.088 C 
BRANCH  19  23
ATOM      1 BR   UNL     1      -4.410 -12.031  19.136  0.00  0.00    -0.050 Br
ATOM     23  C   UNL     1      -5.388 -10.695  16.760  0.00  0.00    +0.014 A 
ATOM     26  C   UNL     1      -5.605 -10.966  18.111  0.00  0.00    +0.027 A 
ATOM     27  C   UNL     1      -6.296  -9.908  16.053  0.00  0.00    +0.011 A 
ATOM     29  C   UNL     1      -6.729 -10.450  18.755  0.00  0.00    +0.016 A 
ATOM     30  C   UNL     1      -7.421  -9.391  16.696  0.00  0.00    +0.001 A 
ATOM     31  C   UNL     1      -7.637  -9.662  18.047  0.00  0.00    +0.001 A 
ENDBRANCH  19  23
ENDBRANCH  10  17
BRANCH  11  16
ATOM     16  C   UNL     1      -5.593 -13.430  10.940  0.00  0.00    +0.123 C 
BRANCH  16   6
ATOM      2  O   UNL     1      -5.250 -11.587   8.736  0.00  0.00    -0.276 OA
ATOM      6  N   UNL     1      -5.255 -12.042  11.017  0.00  0.00    -0.314 N 
ATOM     20  C   UNL     1      -5.108 -11.220   9.899  0.00  0.00    +0.214 C 
ATOM     32  H   UNL     1      -5.111 -11.640  11.939  0.00  0.00    +0.149 HD
BRANCH  20  22
ATOM     22  C   UNL     1      -4.745  -9.797  10.281  0.00  0.00    +0.107 C 
BRANCH  22  25
ATOM     25  C   UNL     1      -3.239  -9.559  10.280  0.00  0.00    +0.129 C 
BRANCH  25  28
ATOM      4  O   UNL     1      -1.405 -10.087  11.791  0.00  0.00    -0.251 OA
ATOM     28  C   UNL     1      -2.604  -9.946  11.596  0.00  0.00    +0.305 C 
BRANCH  28   3
ATOM      3  O   UNL     1      -3.540 -10.123  12.565  0.00  0.00    -0.481 OA
ATOM     33  H   UNL     1      -4.330  -9.560  12.418  0.00  0.00    +0.295 HD
ENDBRANCH  28   3
ENDBRANCH  25  28
ENDBRANCH  22  25
ENDBRANCH  20  22
ENDBRANCH  16   6
ENDBRANCH  11  16
TORSDOF 8
ENDMDL
MODEL 8
REMARK VINA RESULT:      -6.6     24.070     26.494
REMARK  Name = 40777095
REMARK  9 active torsions:
REMARK  status: ('A' for Active; 'I' for Inactive)
REMARK    1  A    between atoms: O_3  and  C_28
REMARK    2  A    between atoms: N_6  and  C_16
REMARK    3  A    between atoms: C_10  and  C_17
REMARK    4  A    between atoms: C_11  and  C_16
REMARK    5  A    between atoms: C_19  and  C_23
REMARK    6  A    between atoms: C_20  and  C_22
REMARK    7  A    between atoms: C_21  and  C_24
REMARK    8  A    between atoms: C_22  and  C_25
REMARK    9  A    between atoms: C_25  and  C_28
REMARK                            x       y       z     vdW  Elec       q    Type
REMARK                         _______ _______ _______ _____ _____    ______ ____
ROOT
ATOM      5  N   UNL     1       9.983   6.887   7.558  0.00  0.00    -0.297 NA
ATOM      9  C   UNL     1       9.795   5.049   5.723  0.00  0.00    +0.002 C 
ATOM     10  C   UNL     1      11.111   5.857   5.552  0.00  0.00    +0.055 C 
ATOM     11  C   UNL     1       8.649   6.957   6.904  0.00  0.00    +0.074 C 
ATOM     12  C   UNL     1       8.594   6.017   5.680  0.00  0.00    +0.024 C 
ATOM     13  C   UNL     1       9.832   4.433   7.138  0.00  0.00    +0.019 C 
ATOM     14  C   UNL     1      11.055   7.052   6.545  0.00  0.00    +0.094 C 
ATOM     15  C   UNL     1      10.122   5.542   8.166  0.00  0.00    +0.085 C 
ENDROOT
BRANCH  10  17
ATOM      7  N   UNL     1      11.959   7.555   4.009  0.00  0.00    -0.237 NA
ATOM      8  N   UNL     1      12.240   7.126   1.655  0.00  0.00    -0.232 NA
ATOM     17  C   UNL     1      11.510   6.290   4.148  0.00  0.00    +0.050 A 
ATOM     18  C   UNL     1      11.401   5.396   3.103  0.00  0.00    +0.052 A 
ATOM     19  C   UNL     1      11.784   5.873   1.866  0.00  0.00    +0.076 A 
ATOM     21  C   UNL     1      12.302   7.902   2.754  0.00  0.00    +0.127 A 
ATOM     24  C   UNL     1      12.799   9.294   2.559  0.00  0.00    +0.088 C 
BRANCH  19  23
ATOM      1 BR   UNL     1      14.208   3.817   1.517  0.00  0.00    -0.050 Br
ATOM     23  C   UNL     1      11.716   5.038   0.690  0.00  0.00    +0.014 A 
ATOM     26  C   UNL     1      12.698   4.092   0.397  0.00  0.00    +0.027 A 
ATOM     27  C   UNL     1      10.627   5.201  -0.165  0.00  0.00    +0.011 A 
ATOM     29  C   UNL     1      12.590   3.308  -0.751  0.00  0.00    +0.016 A 
ATOM     30  C   UNL     1      10.518   4.417  -1.313  0.00  0.00    +0.001 A 
ATOM     31  C   UNL     1      11.500   3.471  -1.607  0.00  0.00    +0.001 A 
ENDBRANCH  19  23
ENDBRANCH  10  17
BRANCH  11  16
ATOM     16  C   UNL     1       8.251   8.389   6.542  0.00  0.00    +0.123 C 
BRANCH  16   6
ATOM      2  O   UNL     1       9.574   9.973   4.514  0.00  0.00    -0.276 OA
ATOM      6  N   UNL     1       7.904   8.487   5.157  0.00  0.00    -0.314 N 
ATOM     20  C   UNL     1       8.599   9.278   4.241  0.00  0.00    +0.214 C 
ATOM     32  H   UNL     1       7.105   7.951   4.831  0.00  0.00    +0.149 HD
BRANCH  20  22
ATOM     22  C   UNL     1       8.006   9.189   2.847  0.00  0.00    +0.107 C 
BRANCH  22  25
ATOM     25  C   UNL     1       8.778   8.232   1.945  0.00  0.00    +0.129 C 
BRANCH  25  28
ATOM      4  O   UNL     1       7.980   9.180  -0.149  0.00  0.00    -0.251 OA
ATOM     28  C   UNL     1       8.902   8.759   0.535  0.00  0.00    +0.305 C 
BRANCH  28   3
ATOM      3  O   UNL     1      10.189   8.715   0.100  0.00  0.00    -0.481 OA
ATOM     33  H   UNL     1      10.242   8.672  -0.879  0.00  0.00    +0.295 HD
ENDBRANCH  28   3
ENDBRANCH  25  28
ENDBRANCH  22  25
ENDBRANCH  20  22
ENDBRANCH  16   6
ENDBRANCH  11  16
TORSDOF 8
ENDMDL
MODEL 9
REMARK VINA RESULT:      -6.6      3.658      8.002
REMARK  Name = 40777095
REMARK  9 active torsions:
REMARK  status: ('A' for Active; 'I' for Inactive)
REMARK    1  A    between atoms: O_3  and  C_28
REMARK    2  A    between atoms: N_6  and  C_16
REMARK    3  A    between atoms: C_10  and  C_17
REMARK    4  A    between atoms: C_11  and  C_16
REMARK    5  A    between atoms: C_19  and  C_23
REMARK    6  A    between atoms: C_20  and  C_22
REMARK    7  A    between atoms: C_21  and  C_24
REMARK    8  A    between atoms: C_22  and  C_25
REMARK    9  A    between atoms: C_25  and  C_28
REMARK                            x       y       z     vdW  Elec       q    Type
REMARK                         _______ _______ _______ _____ _____    ______ ____
ROOT
ATOM      5  N   UNL     1      -3.842  -9.019  10.092  0.00  0.00    -0.297 NA
ATOM      9  C   UNL     1      -5.529 -10.986  10.345  0.00  0.00    +0.002 C 
ATOM     10  C   UNL     1      -6.053  -9.722  11.081  0.00  0.00    +0.055 C 
ATOM     11  C   UNL     1      -3.130 -10.244  10.544  0.00  0.00    +0.074 C 
ATOM     12  C   UNL     1      -4.138 -11.359  10.898  0.00  0.00    +0.024 C 
ATOM     13  C   UNL     1      -5.339 -10.592   8.865  0.00  0.00    +0.019 C 
ATOM     14  C   UNL     1      -4.911  -8.666  11.058  0.00  0.00    +0.094 C 
ATOM     15  C   UNL     1      -4.477  -9.319   8.786  0.00  0.00    +0.085 C 
ENDROOT
BRANCH  10  17
ATOM      7  N   UNL     1      -7.945  -9.547  12.621  0.00  0.00    -0.237 NA
ATOM      8  N   UNL     1      -7.779 -10.183  14.938  0.00  0.00    -0.232 NA
ATOM     17  C   UNL     1      -6.651  -9.895  12.470  0.00  0.00    +0.050 A 
ATOM     18  C   UNL     1      -5.866 -10.389  13.492  0.00  0.00    +0.052 A 
ATOM     19  C   UNL     1      -6.489 -10.513  14.717  0.00  0.00    +0.076 A 
ATOM     21  C   UNL     1      -8.439  -9.714  13.863  0.00  0.00    +0.127 A 
ATOM     24  C   UNL     1      -9.866  -9.336  14.069  0.00  0.00    +0.088 C 
BRANCH  19  23
ATOM      1 BR   UNL     1      -6.968 -13.608  15.366  0.00  0.00    -0.050 Br
ATOM     23  C   UNL     1      -5.778 -11.016  15.869  0.00  0.00    +0.014 A 
ATOM     26  C   UNL     1      -5.883 -12.344  16.282  0.00  0.00    +0.027 A 
ATOM     27  C   UNL     1      -4.968 -10.127  16.575  0.00  0.00    +0.011 A 
ATOM     29  C   UNL     1      -5.177 -12.784  17.400  0.00  0.00    +0.016 A 
ATOM     30  C   UNL     1      -4.262 -10.568  17.695  0.00  0.00    +0.001 A 
ATOM     31  C   UNL     1      -4.367 -11.896  18.108  0.00  0.00    +0.001 A 
ENDBRANCH  19  23
ENDBRANCH  10  17
BRANCH  11  16
ATOM     16  C   UNL     1      -2.162  -9.964  11.695  0.00  0.00    +0.123 C 
BRANCH  16   6
ATOM      2  O   UNL     1      -1.433  -9.701  14.483  0.00  0.00    -0.276 OA
ATOM      6  N   UNL     1      -2.287 -10.955  12.720  0.00  0.00    -0.314 N 
ATOM     20  C   UNL     1      -1.911 -10.745  14.047  0.00  0.00    +0.214 C 
ATOM     32  H   UNL     1      -2.669 -11.859  12.459  0.00  0.00    +0.149 HD
BRANCH  20  22
ATOM     22  C   UNL     1      -2.155 -11.970  14.909  0.00  0.00    +0.107 C 
BRANCH  22  25
ATOM     25  C   UNL     1      -3.032 -13.006  14.215  0.00  0.00    +0.129 C 
BRANCH  25  28
ATOM      4  O   UNL     1      -2.126 -15.255  14.424  0.00  0.00    -0.251 OA
ATOM     28  C   UNL     1      -2.242 -14.219  13.784  0.00  0.00    +0.305 C 
BRANCH  28   3
ATOM      3  O   UNL     1      -1.659 -14.027  12.572  0.00  0.00    -0.481 OA
ATOM     33  H   UNL     1      -1.831 -14.776  11.961  0.00  0.00    +0.295 HD
ENDBRANCH  28   3
ENDBRANCH  25  28
ENDBRANCH  22  25
ENDBRANCH  20  22
ENDBRANCH  16   6
ENDBRANCH  11  16
TORSDOF 8
ENDMDL
MODEL 10
REMARK VINA RESULT:      -6.5      4.078      7.294
REMARK  Name = 40777095
REMARK  9 active torsions:
REMARK  status: ('A' for Active; 'I' for Inactive)
REMARK    1  A    between atoms: O_3  and  C_28
REMARK    2  A    between atoms: N_6  and  C_16
REMARK    3  A    between atoms: C_10  and  C_17
REMARK    4  A    between atoms: C_11  and  C_16
REMARK    5  A    between atoms: C_19  and  C_23
REMARK    6  A    between atoms: C_20  and  C_22
REMARK    7  A    between atoms: C_21  and  C_24
REMARK    8  A    between atoms: C_22  and  C_25
REMARK    9  A    between atoms: C_25  and  C_28
REMARK                            x       y       z     vdW  Elec       q    Type
REMARK                         _______ _______ _______ _____ _____    ______ ____
ROOT
ATOM      5  N   UNL     1      -5.582 -11.823  17.105  0.00  0.00    -0.297 NA
ATOM      9  C   UNL     1      -6.065 -11.335  19.616  0.00  0.00    +0.002 C 
ATOM     10  C   UNL     1      -6.862 -12.581  19.141  0.00  0.00    +0.055 C 
ATOM     11  C   UNL     1      -5.937 -10.391  17.284  0.00  0.00    +0.074 C 
ATOM     12  C   UNL     1      -6.426 -10.128  18.726  0.00  0.00    +0.024 C 
ATOM     13  C   UNL     1      -4.572 -11.645  19.378  0.00  0.00    +0.019 C 
ATOM     14  C   UNL     1      -6.683 -12.687  17.599  0.00  0.00    +0.094 C 
ATOM     15  C   UNL     1      -4.375 -12.099  17.920  0.00  0.00    +0.085 C 
ENDROOT
BRANCH  10  17
ATOM      7  N   UNL     1      -8.611 -13.671  20.458  0.00  0.00    -0.237 NA
ATOM      8  N   UNL     1     -10.916 -12.978  20.356  0.00  0.00    -0.232 NA
ATOM     17  C   UNL     1      -8.319 -12.705  19.563  0.00  0.00    +0.050 A 
ATOM     18  C   UNL     1      -9.258 -11.849  19.026  0.00  0.00    +0.052 A 
ATOM     19  C   UNL     1     -10.554 -12.033  19.463  0.00  0.00    +0.076 A 
ATOM     21  C   UNL     1      -9.910 -13.750  20.807  0.00  0.00    +0.127 A 
ATOM     24  C   UNL     1     -10.273 -14.808  21.793  0.00  0.00    +0.088 C 
BRANCH  19  23
ATOM      1 BR   UNL     1     -11.443 -12.591  16.442  0.00  0.00    -0.050 Br
ATOM     23  C   UNL     1     -11.631 -11.202  18.977  0.00  0.00    +0.014 A 
ATOM     26  C   UNL     1     -12.131 -11.324  17.680  0.00  0.00    +0.027 A 
ATOM     27  C   UNL     1     -12.170 -10.256  19.847  0.00  0.00    +0.011 A 
ATOM     29  C   UNL     1     -13.172 -10.500  17.255  0.00  0.00    +0.016 A 
ATOM     30  C   UNL     1     -13.212  -9.431  19.421  0.00  0.00    +0.001 A 
ATOM     31  C   UNL     1     -13.712  -9.553  18.125  0.00  0.00    +0.001 A 
ENDBRANCH  19  23
ENDBRANCH  10  17
BRANCH  11  16
ATOM     16  C   UNL     1      -6.946  -9.905  16.242  0.00  0.00    +0.123 C 
BRANCH  16   6
ATOM      2  O   UNL     1      -9.717  -9.500  15.516  0.00  0.00    -0.276 OA
ATOM      6  N   UNL     1      -7.864  -8.971  16.817  0.00  0.00    -0.314 N 
ATOM     20  C   UNL     1      -9.191  -8.839  16.407  0.00  0.00    +0.214 C 
ATOM     32  H   UNL     1      -7.523  -8.371  17.563  0.00  0.00    +0.149 HD
BRANCH  20  22
ATOM     22  C   UNL     1      -9.927  -7.769  17.191  0.00  0.00    +0.107 C 
BRANCH  22  25
ATOM     25  C   UNL     1     -11.249  -7.376  16.543  0.00  0.00    +0.129 C 
BRANCH  25  28
ATOM      4  O   UNL     1     -12.033  -5.545  15.143  0.00  0.00    -0.251 OA
ATOM     28  C   UNL     1     -11.109  -6.151  15.670  0.00  0.00    +0.305 C 
BRANCH  28   3
ATOM      3  O   UNL     1      -9.808  -5.785  15.532  0.00  0.00    -0.481 OA
ATOM     33  H   UNL     1      -9.576  -5.030  16.115  0.00  0.00    +0.295 HD
ENDBRANCH  28   3
ENDBRANCH  25  28
ENDBRANCH  22  25
ENDBRANCH  20  22
ENDBRANCH  16   6
ENDBRANCH  11  16
TORSDOF 8
ENDMDL
