MODEL 1
REMARK VINA RESULT:      -7.2      0.000      0.000
REMARK  Name = 11912808
REMARK  7 active torsions:
REMARK  status: ('A' for Active; 'I' for Inactive)
REMARK    1  A    between atoms: O_3  and  C_14
REMARK    2  A    between atoms: O_3  and  C_18
REMARK    3  A    between atoms: O_4  and  C_19
REMARK    4  A    between atoms: O_4  and  C_29
REMARK    5  A    between atoms: N_8  and  C_13
REMARK    6  A    between atoms: C_18  and  C_19
REMARK    7  A    between atoms: C_20  and  C_23
REMARK                            x       y       z     vdW  Elec       q    Type
REMARK                         _______ _______ _______ _____ _____    ______ ____
ROOT
ATOM      8  N   UNL     1      -3.652 -10.480  12.548  0.00  0.00    -0.306 N 
ATOM      9  N   UNL     1      -4.046 -10.744  14.846  0.00  0.00    -0.214 NA
ATOM     10  N   UNL     1      -1.811 -10.427  14.002  0.00  0.00    -0.223 NA
ATOM     17  C   UNL     1      -3.154 -10.553  13.837  0.00  0.00    +0.216 A 
ATOM     20  C   UNL     1      -3.527 -10.809  16.089  0.00  0.00    +0.076 A 
ATOM     21  C   UNL     1      -1.361 -10.503  15.272  0.00  0.00    +0.116 A 
ATOM     22  C   UNL     1      -2.180 -10.694  16.366  0.00  0.00    +0.048 A 
ATOM     31  H   UNL     1      -2.974 -10.390  11.799  0.00  0.00    +0.149 HD
ENDROOT
BRANCH  20  23
ATOM      6  O   UNL     1      -8.038 -10.559  17.981  0.00  0.00    -0.453 OA
ATOM      7  O   UNL     1      -7.330 -11.534  20.069  0.00  0.00    -0.453 OA
ATOM     23  C   UNL     1      -4.491 -11.012  17.145  0.00  0.00    +0.004 A 
ATOM     24  C   UNL     1      -5.826 -10.643  16.952  0.00  0.00    +0.059 A 
ATOM     25  C   UNL     1      -4.080 -11.581  18.367  0.00  0.00    +0.014 A 
ATOM     26  C   UNL     1      -6.709 -10.856  17.990  0.00  0.00    +0.167 A 
ATOM     27  C   UNL     1      -6.306 -11.413  19.181  0.00  0.00    +0.166 A 
ATOM     28  C   UNL     1      -4.996 -11.786  19.401  0.00  0.00    +0.050 A 
ATOM     30  C   UNL     1      -8.424 -10.992  19.301  0.00  0.00    +0.466 C 
ENDBRANCH  20  23
BRANCH   8  13
ATOM      1  O   UNL     1      -5.734  -8.459  11.430  0.00  0.00    -0.369 OA
ATOM      2  O   UNL     1      -6.534 -11.242  10.417  0.00  0.00    -0.369 OA
ATOM     11  C   UNL     1      -5.246 -10.670  10.726  0.00  0.00    +0.172 C 
ATOM     12  C   UNL     1      -5.294  -9.218  10.292  0.00  0.00    +0.180 C 
ATOM     13  C   UNL     1      -5.057 -10.598  12.224  0.00  0.00    +0.130 C 
ATOM     14  C   UNL     1      -6.334  -9.238   9.198  0.00  0.00    +0.176 C 
ATOM     15  C   UNL     1      -5.790  -9.316  12.580  0.00  0.00    +0.185 C 
ATOM     16  C   UNL     1      -7.315 -10.268   9.710  0.00  0.00    +0.194 C 
BRANCH  14   3
ATOM      3  O   UNL     1      -6.944  -7.987   8.977  0.00  0.00    -0.360 OA
BRANCH   3  18
ATOM     18  C   UNL     1      -8.193  -8.115   8.302  0.00  0.00    +0.280 C 
BRANCH  18  19
ATOM      5  O   UNL     1      -8.487  -7.006   6.166  0.00  0.00    -0.248 OA
ATOM     19  C   UNL     1      -8.372  -6.936   7.383  0.00  0.00    +0.333 C 
BRANCH  19   4
ATOM      4  O   UNL     1      -8.385  -5.791   8.127  0.00  0.00    -0.466 OA
ATOM     29  C   UNL     1      -9.681  -5.331   8.526  0.00  0.00    +0.280 C 
ENDBRANCH  19   4
ENDBRANCH  18  19
ENDBRANCH   3  18
ENDBRANCH  14   3
ENDBRANCH   8  13
TORSDOF 6
ENDMDL
MODEL 2
REMARK VINA RESULT:      -7.1     27.301     29.943
REMARK  Name = 11912808
REMARK  7 active torsions:
REMARK  status: ('A' for Active; 'I' for Inactive)
REMARK    1  A    between atoms: O_3  and  C_14
REMARK    2  A    between atoms: O_3  and  C_18
REMARK    3  A    between atoms: O_4  and  C_19
REMARK    4  A    between atoms: O_4  and  C_29
REMARK    5  A    between atoms: N_8  and  C_13
REMARK    6  A    between atoms: C_18  and  C_19
REMARK    7  A    between atoms: C_20  and  C_23
REMARK                            x       y       z     vdW  Elec       q    Type
REMARK                         _______ _______ _______ _____ _____    ______ ____
ROOT
ATOM      8  N   UNL     1      16.633   9.137  20.777  0.00  0.00    -0.306 N 
ATOM      9  N   UNL     1      18.519   7.839  21.291  0.00  0.00    -0.214 NA
ATOM     10  N   UNL     1      18.303  10.092  22.120  0.00  0.00    -0.223 NA
ATOM     17  C   UNL     1      17.855   9.020  21.415  0.00  0.00    +0.216 A 
ATOM     20  C   UNL     1      19.706   7.759  21.927  0.00  0.00    +0.076 A 
ATOM     21  C   UNL     1      19.498   9.942  22.730  0.00  0.00    +0.116 A 
ATOM     22  C   UNL     1      20.251   8.787  22.667  0.00  0.00    +0.048 A 
ATOM     31  H   UNL     1      16.171  10.038  20.832  0.00  0.00    +0.149 HD
ENDROOT
BRANCH  20  23
ATOM      6  O   UNL     1      22.771   4.264  23.469  0.00  0.00    -0.453 OA
ATOM      7  O   UNL     1      22.416   2.933  21.491  0.00  0.00    -0.453 OA
ATOM     23  C   UNL     1      20.394   6.498  21.782  0.00  0.00    +0.004 A 
ATOM     24  C   UNL     1      21.261   6.057  22.787  0.00  0.00    +0.059 A 
ATOM     25  C   UNL     1      20.189   5.718  20.627  0.00  0.00    +0.014 A 
ATOM     26  C   UNL     1      21.897   4.847  22.603  0.00  0.00    +0.167 A 
ATOM     27  C   UNL     1      21.694   4.086  21.475  0.00  0.00    +0.166 A 
ATOM     28  C   UNL     1      20.845   4.495  20.466  0.00  0.00    +0.050 A 
ATOM     30  C   UNL     1      23.095   3.052  22.758  0.00  0.00    +0.466 C 
ENDBRANCH  20  23
BRANCH   8  13
ATOM      1  O   UNL     1      13.953   7.581  21.033  0.00  0.00    -0.369 OA
ATOM      2  O   UNL     1      14.637   7.726  18.046  0.00  0.00    -0.369 OA
ATOM     11  C   UNL     1      14.916   8.629  19.137  0.00  0.00    +0.172 C 
ATOM     12  C   UNL     1      13.707   8.600  20.050  0.00  0.00    +0.180 C 
ATOM     13  C   UNL     1      16.034   8.079  19.992  0.00  0.00    +0.130 C 
ATOM     14  C   UNL     1      12.594   8.211  19.108  0.00  0.00    +0.176 C 
ATOM     15  C   UNL     1      15.300   7.103  20.895  0.00  0.00    +0.185 C 
ATOM     16  C   UNL     1      13.291   7.249  18.172  0.00  0.00    +0.194 C 
BRANCH  14   3
ATOM      3  O   UNL     1      11.490   7.618  19.753  0.00  0.00    -0.360 OA
BRANCH   3  18
ATOM     18  C   UNL     1      10.776   8.554  20.557  0.00  0.00    +0.280 C 
BRANCH  18  19
ATOM      5  O   UNL     1      10.082   6.874  22.162  0.00  0.00    -0.248 OA
ATOM     19  C   UNL     1      10.581   7.968  21.930  0.00  0.00    +0.333 C 
BRANCH  19   4
ATOM      4  O   UNL     1      11.051   8.850  22.860  0.00  0.00    -0.466 OA
ATOM     29  C   UNL     1      11.177  10.205  22.414  0.00  0.00    +0.280 C 
ENDBRANCH  19   4
ENDBRANCH  18  19
ENDBRANCH   3  18
ENDBRANCH  14   3
ENDBRANCH   8  13
TORSDOF 6
ENDMDL
MODEL 3
REMARK VINA RESULT:      -7.0      4.618      7.192
REMARK  Name = 11912808
REMARK  7 active torsions:
REMARK  status: ('A' for Active; 'I' for Inactive)
REMARK    1  A    between atoms: O_3  and  C_14
REMARK    2  A    between atoms: O_3  and  C_18
REMARK    3  A    between atoms: O_4  and  C_19
REMARK    4  A    between atoms: O_4  and  C_29
REMARK    5  A    between atoms: N_8  and  C_13
REMARK    6  A    between atoms: C_18  and  C_19
REMARK    7  A    between atoms: C_20  and  C_23
REMARK                            x       y       z     vdW  Elec       q    Type
REMARK                         _______ _______ _______ _____ _____    ______ ____
ROOT
ATOM      8  N   UNL     1      -8.422  -9.649  18.218  0.00  0.00    -0.306 N 
ATOM      9  N   UNL     1      -6.297 -10.201  17.389  0.00  0.00    -0.214 NA
ATOM     10  N   UNL     1      -6.924 -10.749  19.651  0.00  0.00    -0.223 NA
ATOM     17  C   UNL     1      -7.177 -10.216  18.427  0.00  0.00    +0.216 A 
ATOM     20  C   UNL     1      -5.094 -10.763  17.626  0.00  0.00    +0.076 A 
ATOM     21  C   UNL     1      -5.700 -11.293  19.819  0.00  0.00    +0.116 A 
ATOM     22  C   UNL     1      -4.736 -11.329  18.832  0.00  0.00    +0.048 A 
ATOM     31  H   UNL     1      -9.051  -9.619  19.013  0.00  0.00    +0.149 HD
ENDROOT
BRANCH  20  23
ATOM      6  O   UNL     1      -4.034 -10.408  12.858  0.00  0.00    -0.453 OA
ATOM      7  O   UNL     1      -1.669 -10.644  13.259  0.00  0.00    -0.453 OA
ATOM     23  C   UNL     1      -4.175 -10.735  16.513  0.00  0.00    +0.004 A 
ATOM     24  C   UNL     1      -4.661 -10.573  15.211  0.00  0.00    +0.059 A 
ATOM     25  C   UNL     1      -2.792 -10.873  16.744  0.00  0.00    +0.014 A 
ATOM     26  C   UNL     1      -3.745 -10.554  14.181  0.00  0.00    +0.167 A 
ATOM     27  C   UNL     1      -2.395 -10.688  14.409  0.00  0.00    +0.166 A 
ATOM     28  C   UNL     1      -1.886 -10.850  15.681  0.00  0.00    +0.050 A 
ATOM     30  C   UNL     1      -2.714 -10.466  12.281  0.00  0.00    +0.466 C 
ENDBRANCH  20  23
BRANCH   8  13
ATOM      1  O   UNL     1     -11.027  -9.844  16.533  0.00  0.00    -0.369 OA
ATOM      2  O   UNL     1      -9.860  -7.043  16.081  0.00  0.00    -0.369 OA
ATOM     11  C   UNL     1      -9.812  -7.927  17.221  0.00  0.00    +0.172 C 
ATOM     12  C   UNL     1     -11.155  -8.628  17.289  0.00  0.00    +0.180 C 
ATOM     13  C   UNL     1      -8.828  -9.045  16.968  0.00  0.00    +0.130 C 
ATOM     14  C   UNL     1     -12.074  -7.641  16.610  0.00  0.00    +0.176 C 
ATOM     15  C   UNL     1      -9.655 -10.025  16.153  0.00  0.00    +0.185 C 
ATOM     16  C   UNL     1     -11.184  -7.068  15.530  0.00  0.00    +0.194 C 
BRANCH  14   3
ATOM      3  O   UNL     1     -13.239  -8.230  16.080  0.00  0.00    -0.360 OA
BRANCH   3  18
ATOM     18  C   UNL     1     -13.658  -7.592  14.876  0.00  0.00    +0.280 C 
BRANCH  18  19
ATOM      5  O   UNL     1     -15.444  -6.692  16.248  0.00  0.00    -0.248 OA
ATOM     19  C   UNL     1     -14.861  -6.736  15.171  0.00  0.00    +0.333 C 
BRANCH  19   4
ATOM      4  O   UNL     1     -15.187  -6.026  14.052  0.00  0.00    -0.466 OA
ATOM     29  C   UNL     1     -14.155  -5.177  13.539  0.00  0.00    +0.280 C 
ENDBRANCH  19   4
ENDBRANCH  18  19
ENDBRANCH   3  18
ENDBRANCH  14   3
ENDBRANCH   8  13
TORSDOF 6
ENDMDL
MODEL 4
REMARK VINA RESULT:      -6.9     23.088     25.119
REMARK  Name = 11912808
REMARK  7 active torsions:
REMARK  status: ('A' for Active; 'I' for Inactive)
REMARK    1  A    between atoms: O_3  and  C_14
REMARK    2  A    between atoms: O_3  and  C_18
REMARK    3  A    between atoms: O_4  and  C_19
REMARK    4  A    between atoms: O_4  and  C_29
REMARK    5  A    between atoms: N_8  and  C_13
REMARK    6  A    between atoms: C_18  and  C_19
REMARK    7  A    between atoms: C_20  and  C_23
REMARK                            x       y       z     vdW  Elec       q    Type
REMARK                         _______ _______ _______ _____ _____    ______ ____
ROOT
ATOM      8  N   UNL     1      10.300   6.800   1.115  0.00  0.00    -0.306 N 
ATOM      9  N   UNL     1       9.666   7.004   3.365  0.00  0.00    -0.214 NA
ATOM     10  N   UNL     1       8.921   8.599   1.719  0.00  0.00    -0.223 NA
ATOM     17  C   UNL     1       9.609   7.489   2.095  0.00  0.00    +0.216 A 
ATOM     20  C   UNL     1       8.980   7.700   4.295  0.00  0.00    +0.076 A 
ATOM     21  C   UNL     1       8.257   9.247   2.700  0.00  0.00    +0.116 A 
ATOM     22  C   UNL     1       8.251   8.838   4.019  0.00  0.00    +0.048 A 
ATOM     31  H   UNL     1      10.294   7.199   0.183  0.00  0.00    +0.149 HD
ENDROOT
BRANCH  20  23
ATOM      6  O   UNL     1       9.788   4.103   7.519  0.00  0.00    -0.453 OA
ATOM      7  O   UNL     1       9.301   5.534   9.397  0.00  0.00    -0.453 OA
ATOM     23  C   UNL     1       9.055   7.169   5.635  0.00  0.00    +0.004 A 
ATOM     24  C   UNL     1       9.408   5.830   5.837  0.00  0.00    +0.059 A 
ATOM     25  C   UNL     1       8.770   8.002   6.735  0.00  0.00    +0.014 A 
ATOM     26  C   UNL     1       9.465   5.369   7.135  0.00  0.00    +0.167 A 
ATOM     27  C   UNL     1       9.188   6.185   8.207  0.00  0.00    +0.166 A 
ATOM     28  C   UNL     1       8.836   7.509   8.040  0.00  0.00    +0.050 A 
ATOM     30  C   UNL     1       9.681   4.215   8.953  0.00  0.00    +0.466 C 
ENDBRANCH  20  23
BRANCH   8  13
ATOM      1  O   UNL     1      10.332   3.986  -0.207  0.00  0.00    -0.369 OA
ATOM      2  O   UNL     1      13.177   4.553   0.791  0.00  0.00    -0.369 OA
ATOM     11  C   UNL     1      12.138   5.432   0.311  0.00  0.00    +0.172 C 
ATOM     12  C   UNL     1      11.425   4.699  -0.808  0.00  0.00    +0.180 C 
ATOM     13  C   UNL     1      11.075   5.605   1.371  0.00  0.00    +0.130 C 
ATOM     14  C   UNL     1      12.493   3.761  -1.317  0.00  0.00    +0.176 C 
ATOM     15  C   UNL     1      10.217   4.367   1.172  0.00  0.00    +0.185 C 
ATOM     16  C   UNL     1      13.222   3.388  -0.045  0.00  0.00    +0.194 C 
BRANCH  14   3
ATOM      3  O   UNL     1      11.979   2.631  -1.984  0.00  0.00    -0.360 OA
BRANCH   3  18
ATOM     18  C   UNL     1      11.441   2.965  -3.261  0.00  0.00    +0.280 C 
BRANCH  18  19
ATOM      5  O   UNL     1       9.772   1.283  -2.746  0.00  0.00    -0.248 OA
ATOM     19  C   UNL     1      10.176   2.178  -3.478  0.00  0.00    +0.333 C 
BRANCH  19   4
ATOM      4  O   UNL     1       9.564   2.625  -4.613  0.00  0.00    -0.466 OA
ATOM     29  C   UNL     1       9.443   4.047  -4.728  0.00  0.00    +0.280 C 
ENDBRANCH  19   4
ENDBRANCH  18  19
ENDBRANCH   3  18
ENDBRANCH  14   3
ENDBRANCH   8  13
TORSDOF 6
ENDMDL
MODEL 5
REMARK VINA RESULT:      -6.7      1.684      2.018
REMARK  Name = 11912808
REMARK  7 active torsions:
REMARK  status: ('A' for Active; 'I' for Inactive)
REMARK    1  A    between atoms: O_3  and  C_14
REMARK    2  A    between atoms: O_3  and  C_18
REMARK    3  A    between atoms: O_4  and  C_19
REMARK    4  A    between atoms: O_4  and  C_29
REMARK    5  A    between atoms: N_8  and  C_13
REMARK    6  A    between atoms: C_18  and  C_19
REMARK    7  A    between atoms: C_20  and  C_23
REMARK                            x       y       z     vdW  Elec       q    Type
REMARK                         _______ _______ _______ _____ _____    ______ ____
ROOT
ATOM      8  N   UNL     1      -3.190 -10.351  12.275  0.00  0.00    -0.306 N 
ATOM      9  N   UNL     1      -4.003 -10.498  14.472  0.00  0.00    -0.214 NA
ATOM     10  N   UNL     1      -1.639 -10.613  14.016  0.00  0.00    -0.223 NA
ATOM     17  C   UNL     1      -2.936 -10.492  13.628  0.00  0.00    +0.216 A 
ATOM     20  C   UNL     1      -3.718 -10.636  15.783  0.00  0.00    +0.076 A 
ATOM     21  C   UNL     1      -1.427 -10.749  15.342  0.00  0.00    +0.116 A 
ATOM     22  C   UNL     1      -2.438 -10.767  16.281  0.00  0.00    +0.048 A 
ATOM     31  H   UNL     1      -2.393 -10.400  11.651  0.00  0.00    +0.149 HD
ENDROOT
BRANCH  20  23
ATOM      6  O   UNL     1      -8.456  -9.883  16.769  0.00  0.00    -0.453 OA
ATOM      7  O   UNL     1      -8.203 -10.603  19.055  0.00  0.00    -0.453 OA
ATOM     23  C   UNL     1      -4.864 -10.641  16.661  0.00  0.00    +0.004 A 
ATOM     24  C   UNL     1      -6.112 -10.228  16.181  0.00  0.00    +0.059 A 
ATOM     25  C   UNL     1      -4.720 -11.061  17.998  0.00  0.00    +0.014 A 
ATOM     26  C   UNL     1      -7.177 -10.249  17.058  0.00  0.00    +0.167 A 
ATOM     27  C   UNL     1      -7.033 -10.660  18.363  0.00  0.00    +0.166 A 
ATOM     28  C   UNL     1      -5.815 -11.073  18.864  0.00  0.00    +0.050 A 
ATOM     30  C   UNL     1      -9.100 -10.111  18.039  0.00  0.00    +0.466 C 
ENDBRANCH  20  23
BRANCH   8  13
ATOM      1  O   UNL     1      -4.249  -9.128   9.620  0.00  0.00    -0.369 OA
ATOM      2  O   UNL     1      -6.147 -11.413  10.388  0.00  0.00    -0.369 OA
ATOM     11  C   UNL     1      -4.735 -11.224  10.617  0.00  0.00    +0.172 C 
ATOM     12  C   UNL     1      -4.177 -10.543   9.383  0.00  0.00    +0.180 C 
ATOM     13  C   UNL     1      -4.520 -10.213  11.720  0.00  0.00    +0.130 C 
ATOM     14  C   UNL     1      -5.140 -10.980   8.305  0.00  0.00    +0.176 C 
ATOM     15  C   UNL     1      -4.648  -8.894  10.979  0.00  0.00    +0.185 C 
ATOM     16  C   UNL     1      -6.457 -11.007   9.048  0.00  0.00    +0.194 C 
BRANCH  14   3
ATOM      3  O   UNL     1      -5.175 -10.112   7.196  0.00  0.00    -0.360 OA
BRANCH   3  18
ATOM     18  C   UNL     1      -6.483  -9.594   6.965  0.00  0.00    +0.280 C 
BRANCH  18  19
ATOM      5  O   UNL     1      -6.368 -10.637   4.779  0.00  0.00    -0.248 OA
ATOM     19  C   UNL     1      -6.825  -9.766   5.509  0.00  0.00    +0.333 C 
BRANCH  19   4
ATOM      4  O   UNL     1      -7.719  -8.801   5.145  0.00  0.00    -0.466 OA
ATOM     29  C   UNL     1      -7.913  -7.751   6.099  0.00  0.00    +0.280 C 
ENDBRANCH  19   4
ENDBRANCH  18  19
ENDBRANCH   3  18
ENDBRANCH  14   3
ENDBRANCH   8  13
TORSDOF 6
ENDMDL
MODEL 6
REMARK VINA RESULT:      -6.6     27.779     30.258
REMARK  Name = 11912808
REMARK  7 active torsions:
REMARK  status: ('A' for Active; 'I' for Inactive)
REMARK    1  A    between atoms: O_3  and  C_14
REMARK    2  A    between atoms: O_3  and  C_18
REMARK    3  A    between atoms: O_4  and  C_19
REMARK    4  A    between atoms: O_4  and  C_29
REMARK    5  A    between atoms: N_8  and  C_13
REMARK    6  A    between atoms: C_18  and  C_19
REMARK    7  A    between atoms: C_20  and  C_23
REMARK                            x       y       z     vdW  Elec       q    Type
REMARK                         _______ _______ _______ _____ _____    ______ ____
ROOT
ATOM      8  N   UNL     1      16.809   9.513  21.848  0.00  0.00    -0.306 N 
ATOM      9  N   UNL     1      18.719   8.150  21.871  0.00  0.00    -0.214 NA
ATOM     10  N   UNL     1      18.891  10.529  22.217  0.00  0.00    -0.223 NA
ATOM     17  C   UNL     1      18.181   9.394  21.982  0.00  0.00    +0.216 A 
ATOM     20  C   UNL     1      20.058   8.071  22.009  0.00  0.00    +0.076 A 
ATOM     21  C   UNL     1      20.226  10.377  22.343  0.00  0.00    +0.116 A 
ATOM     22  C   UNL     1      20.871   9.160  22.248  0.00  0.00    +0.048 A 
ATOM     31  H   UNL     1      16.424  10.450  21.880  0.00  0.00    +0.149 HD
ENDROOT
BRANCH  20  23
ATOM      6  O   UNL     1      22.433   4.159  23.755  0.00  0.00    -0.453 OA
ATOM      7  O   UNL     1      22.223   2.970  21.669  0.00  0.00    -0.453 OA
ATOM     23  C   UNL     1      20.609   6.742  21.886  0.00  0.00    +0.004 A 
ATOM     24  C   UNL     1      21.260   6.154  22.976  0.00  0.00    +0.059 A 
ATOM     25  C   UNL     1      20.489   6.044  20.668  0.00  0.00    +0.014 A 
ATOM     26  C   UNL     1      21.771   4.883  22.810  0.00  0.00    +0.167 A 
ATOM     27  C   UNL     1      21.651   4.204  21.620  0.00  0.00    +0.166 A 
ATOM     28  C   UNL     1      21.015   4.758  20.529  0.00  0.00    +0.050 A 
ATOM     30  C   UNL     1      22.716   2.949  23.024  0.00  0.00    +0.466 C 
ENDBRANCH  20  23
BRANCH   8  13
ATOM      1  O   UNL     1      13.921   9.315  20.712  0.00  0.00    -0.369 OA
ATOM      2  O   UNL     1      15.395   6.751  19.897  0.00  0.00    -0.369 OA
ATOM     11  C   UNL     1      15.866   8.098  20.114  0.00  0.00    +0.172 C 
ATOM     12  C   UNL     1      14.785   9.029  19.600  0.00  0.00    +0.180 C 
ATOM     13  C   UNL     1      15.929   8.392  21.595  0.00  0.00    +0.130 C 
ATOM     14  C   UNL     1      14.094   8.184  18.558  0.00  0.00    +0.176 C 
ATOM     15  C   UNL     1      14.491   8.768  21.911  0.00  0.00    +0.185 C 
ATOM     16  C   UNL     1      14.158   6.804  19.172  0.00  0.00    +0.194 C 
BRANCH  14   3
ATOM      3  O   UNL     1      12.769   8.586  18.294  0.00  0.00    -0.360 OA
BRANCH   3  18
ATOM     18  C   UNL     1      12.719   9.736  17.453  0.00  0.00    +0.280 C 
BRANCH  18  19
ATOM      5  O   UNL     1      11.262   8.877  15.715  0.00  0.00    -0.248 OA
ATOM     19  C   UNL     1      12.358   9.302  16.057  0.00  0.00    +0.333 C 
BRANCH  19   4
ATOM      4  O   UNL     1      13.446   9.461  15.247  0.00  0.00    -0.466 OA
ATOM     29  C   UNL     1      14.044  10.762  15.268  0.00  0.00    +0.280 C 
ENDBRANCH  19   4
ENDBRANCH  18  19
ENDBRANCH   3  18
ENDBRANCH  14   3
ENDBRANCH   8  13
TORSDOF 6
ENDMDL
MODEL 7
REMARK VINA RESULT:      -6.5     27.815     30.749
REMARK  Name = 11912808
REMARK  7 active torsions:
REMARK  status: ('A' for Active; 'I' for Inactive)
REMARK    1  A    between atoms: O_3  and  C_14
REMARK    2  A    between atoms: O_3  and  C_18
REMARK    3  A    between atoms: O_4  and  C_19
REMARK    4  A    between atoms: O_4  and  C_29
REMARK    5  A    between atoms: N_8  and  C_13
REMARK    6  A    between atoms: C_18  and  C_19
REMARK    7  A    between atoms: C_20  and  C_23
REMARK                            x       y       z     vdW  Elec       q    Type
REMARK                         _______ _______ _______ _____ _____    ______ ____
ROOT
ATOM      8  N   UNL     1      10.669  10.534  23.418  0.00  0.00    -0.306 N 
ATOM      9  N   UNL     1      11.607   9.981  21.339  0.00  0.00    -0.214 NA
ATOM     10  N   UNL     1      10.405   8.340  22.631  0.00  0.00    -0.223 NA
ATOM     17  C   UNL     1      10.900   9.590  22.434  0.00  0.00    +0.216 A 
ATOM     20  C   UNL     1      11.813   9.035  20.399  0.00  0.00    +0.076 A 
ATOM     21  C   UNL     1      10.649   7.443  21.652  0.00  0.00    +0.116 A 
ATOM     22  C   UNL     1      11.354   7.738  20.503  0.00  0.00    +0.048 A 
ATOM     31  H   UNL     1      10.187  10.219  24.252  0.00  0.00    +0.149 HD
ENDROOT
BRANCH  20  23
ATOM      6  O   UNL     1      13.751   8.365  15.952  0.00  0.00    -0.453 OA
ATOM      7  O   UNL     1      14.686  10.586  15.909  0.00  0.00    -0.453 OA
ATOM     23  C   UNL     1      12.565   9.471  19.247  0.00  0.00    +0.004 A 
ATOM     24  C   UNL     1      12.746   8.604  18.164  0.00  0.00    +0.059 A 
ATOM     25  C   UNL     1      13.114  10.768  19.219  0.00  0.00    +0.014 A 
ATOM     26  C   UNL     1      13.473   9.065  17.086  0.00  0.00    +0.167 A 
ATOM     27  C   UNL     1      14.007  10.333  17.061  0.00  0.00    +0.166 A 
ATOM     28  C   UNL     1      13.845  11.210  18.114  0.00  0.00    +0.050 A 
ATOM     30  C   UNL     1      14.519   9.335  15.211  0.00  0.00    +0.466 C 
ENDBRANCH  20  23
BRANCH   8  13
ATOM      1  O   UNL     1      11.241  12.690  25.584  0.00  0.00    -0.369 OA
ATOM      2  O   UNL     1      13.178  13.200  23.262  0.00  0.00    -0.369 OA
ATOM     11  C   UNL     1      12.586  11.984  23.763  0.00  0.00    +0.172 C 
ATOM     12  C   UNL     1      12.522  12.117  25.272  0.00  0.00    +0.180 C 
ATOM     13  C   UNL     1      11.137  11.902  23.342  0.00  0.00    +0.130 C 
ATOM     14  C   UNL     1      13.649  13.077  25.564  0.00  0.00    +0.176 C 
ATOM     15  C   UNL     1      10.446  12.755  24.391  0.00  0.00    +0.185 C 
ATOM     16  C   UNL     1      13.592  14.007  24.373  0.00  0.00    +0.194 C 
BRANCH  14   3
ATOM      3  O   UNL     1      13.500  13.768  26.784  0.00  0.00    -0.360 OA
BRANCH   3  18
ATOM     18  C   UNL     1      14.708  13.782  27.540  0.00  0.00    +0.280 C 
BRANCH  18  19
ATOM      5  O   UNL     1      13.998  13.781  29.859  0.00  0.00    -0.248 OA
ATOM     19  C   UNL     1      14.443  13.175  28.892  0.00  0.00    +0.333 C 
BRANCH  19   4
ATOM      4  O   UNL     1      14.777  11.852  28.858  0.00  0.00    -0.466 OA
ATOM     29  C   UNL     1      15.929  11.528  28.071  0.00  0.00    +0.280 C 
ENDBRANCH  19   4
ENDBRANCH  18  19
ENDBRANCH   3  18
ENDBRANCH  14   3
ENDBRANCH   8  13
TORSDOF 6
ENDMDL
MODEL 8
REMARK VINA RESULT:      -6.5      5.228      7.227
REMARK  Name = 11912808
REMARK  7 active torsions:
REMARK  status: ('A' for Active; 'I' for Inactive)
REMARK    1  A    between atoms: O_3  and  C_14
REMARK    2  A    between atoms: O_3  and  C_18
REMARK    3  A    between atoms: O_4  and  C_19
REMARK    4  A    between atoms: O_4  and  C_29
REMARK    5  A    between atoms: N_8  and  C_13
REMARK    6  A    between atoms: C_18  and  C_19
REMARK    7  A    between atoms: C_20  and  C_23
REMARK                            x       y       z     vdW  Elec       q    Type
REMARK                         _______ _______ _______ _____ _____    ______ ____
ROOT
ATOM      8  N   UNL     1      -9.749  -9.023  17.724  0.00  0.00    -0.306 N 
ATOM      9  N   UNL     1      -7.620  -9.865  17.208  0.00  0.00    -0.214 NA
ATOM     10  N   UNL     1      -8.833 -10.661  19.132  0.00  0.00    -0.223 NA
ATOM     17  C   UNL     1      -8.703  -9.875  18.031  0.00  0.00    +0.216 A 
ATOM     20  C   UNL     1      -6.620 -10.709  17.536  0.00  0.00    +0.076 A 
ATOM     21  C   UNL     1      -7.794 -11.480  19.402  0.00  0.00    +0.116 A 
ATOM     22  C   UNL     1      -6.652 -11.547  18.631  0.00  0.00    +0.048 A 
ATOM     31  H   UNL     1     -10.527  -9.000  18.373  0.00  0.00    +0.149 HD
ENDROOT
BRANCH  20  23
ATOM      6  O   UNL     1      -1.811 -10.828  16.614  0.00  0.00    -0.453 OA
ATOM      7  O   UNL     1      -2.154 -10.614  14.238  0.00  0.00    -0.453 OA
ATOM     23  C   UNL     1      -5.481 -10.682  16.649  0.00  0.00    +0.004 A 
ATOM     24  C   UNL     1      -4.187 -10.780  17.173  0.00  0.00    +0.059 A 
ATOM     25  C   UNL     1      -5.678 -10.557  15.260  0.00  0.00    +0.014 A 
ATOM     26  C   UNL     1      -3.130 -10.748  16.287  0.00  0.00    +0.167 A 
ATOM     27  C   UNL     1      -3.326 -10.626  14.931  0.00  0.00    +0.166 A 
ATOM     28  C   UNL     1      -4.590 -10.528  14.385  0.00  0.00    +0.050 A 
ATOM     30  C   UNL     1      -1.200 -10.743  15.312  0.00  0.00    +0.466 C 
ENDBRANCH  20  23
BRANCH   8  13
ATOM      1  O   UNL     1     -11.600  -8.775  15.239  0.00  0.00    -0.369 OA
ATOM      2  O   UNL     1     -10.559  -5.961  15.880  0.00  0.00    -0.369 OA
ATOM     11  C   UNL     1     -10.838  -7.095  16.728  0.00  0.00    +0.172 C 
ATOM     12  C   UNL     1     -12.067  -7.776  16.160  0.00  0.00    +0.180 C 
ATOM     13  C   UNL     1      -9.747  -8.131  16.585  0.00  0.00    +0.130 C 
ATOM     14  C   UNL     1     -12.769  -6.644  15.449  0.00  0.00    +0.176 C 
ATOM     15  C   UNL     1     -10.171  -8.875  15.331  0.00  0.00    +0.185 C 
ATOM     16  C   UNL     1     -11.609  -5.838  14.911  0.00  0.00    +0.194 C 
BRANCH  14   3
ATOM      3  O   UNL     1     -13.637  -7.074  14.426  0.00  0.00    -0.360 OA
BRANCH   3  18
ATOM     18  C   UNL     1     -14.193  -5.978  13.703  0.00  0.00    +0.280 C 
BRANCH  18  19
ATOM      5  O   UNL     1     -16.370  -6.743  14.450  0.00  0.00    -0.248 OA
ATOM     19  C   UNL     1     -15.686  -6.157  13.620  0.00  0.00    +0.333 C 
BRANCH  19   4
ATOM      4  O   UNL     1     -16.142  -5.563  12.479  0.00  0.00    -0.466 OA
ATOM     29  C   UNL     1     -15.222  -4.670  11.840  0.00  0.00    +0.280 C 
ENDBRANCH  19   4
ENDBRANCH  18  19
ENDBRANCH   3  18
ENDBRANCH  14   3
ENDBRANCH   8  13
TORSDOF 6
ENDMDL
MODEL 9
REMARK VINA RESULT:      -6.5     26.962     29.340
REMARK  Name = 11912808
REMARK  7 active torsions:
REMARK  status: ('A' for Active; 'I' for Inactive)
REMARK    1  A    between atoms: O_3  and  C_14
REMARK    2  A    between atoms: O_3  and  C_18
REMARK    3  A    between atoms: O_4  and  C_19
REMARK    4  A    between atoms: O_4  and  C_29
REMARK    5  A    between atoms: N_8  and  C_13
REMARK    6  A    between atoms: C_18  and  C_19
REMARK    7  A    between atoms: C_20  and  C_23
REMARK                            x       y       z     vdW  Elec       q    Type
REMARK                         _______ _______ _______ _____ _____    ______ ____
ROOT
ATOM      8  N   UNL     1      14.327   9.347   5.968  0.00  0.00    -0.306 N 
ATOM      9  N   UNL     1      16.661   9.129   5.859  0.00  0.00    -0.214 NA
ATOM     10  N   UNL     1      15.644  11.096   6.811  0.00  0.00    -0.223 NA
ATOM     17  C   UNL     1      15.581   9.874   6.220  0.00  0.00    +0.216 A 
ATOM     20  C   UNL     1      17.868   9.672   6.121  0.00  0.00    +0.076 A 
ATOM     21  C   UNL     1      16.883  11.579   7.042  0.00  0.00    +0.116 A 
ATOM     22  C   UNL     1      18.042  10.904   6.715  0.00  0.00    +0.048 A 
ATOM     31  H   UNL     1      13.530   9.932   6.192  0.00  0.00    +0.149 HD
ENDROOT
BRANCH  20  23
ATOM      6  O   UNL     1      20.607   7.319   2.812  0.00  0.00    -0.453 OA
ATOM      7  O   UNL     1      22.175   6.574   4.484  0.00  0.00    -0.453 OA
ATOM     23  C   UNL     1      19.000   8.866   5.729  0.00  0.00    +0.004 A 
ATOM     24  C   UNL     1      19.179   8.521   4.385  0.00  0.00    +0.059 A 
ATOM     25  C   UNL     1      19.918   8.428   6.704  0.00  0.00    +0.014 A 
ATOM     26  C   UNL     1      20.275   7.749   4.060  0.00  0.00    +0.167 A 
ATOM     27  C   UNL     1      21.170   7.324   5.014  0.00  0.00    +0.166 A 
ATOM     28  C   UNL     1      21.019   7.647   6.347  0.00  0.00    +0.050 A 
ATOM     30  C   UNL     1      21.811   6.576   3.088  0.00  0.00    +0.466 C 
ENDBRANCH  20  23
BRANCH   8  13
ATOM      1  O   UNL     1      12.640   6.867   6.787  0.00  0.00    -0.369 OA
ATOM      2  O   UNL     1      12.689   6.959   3.721  0.00  0.00    -0.369 OA
ATOM     11  C   UNL     1      12.738   8.008   4.711  0.00  0.00    +0.172 C 
ATOM     12  C   UNL     1      11.826   7.585   5.845  0.00  0.00    +0.180 C 
ATOM     13  C   UNL     1      14.109   8.059   5.345  0.00  0.00    +0.130 C 
ATOM     14  C   UNL     1      10.841   6.675   5.151  0.00  0.00    +0.176 C 
ATOM     15  C   UNL     1      14.018   6.971   6.400  0.00  0.00    +0.185 C 
ATOM     16  C   UNL     1      11.712   5.989   4.123  0.00  0.00    +0.194 C 
BRANCH  14   3
ATOM      3  O   UNL     1      10.217   5.755   6.016  0.00  0.00    -0.360 OA
BRANCH   3  18
ATOM     18  C   UNL     1       8.956   6.232   6.481  0.00  0.00    +0.280 C 
BRANCH  18  19
ATOM      5  O   UNL     1       8.569   7.589   8.453  0.00  0.00    -0.248 OA
ATOM     19  C   UNL     1       9.083   6.607   7.934  0.00  0.00    +0.333 C 
BRANCH  19   4
ATOM      4  O   UNL     1       9.858   5.677   8.566  0.00  0.00    -0.466 OA
ATOM     29  C   UNL     1       9.203   4.925   9.593  0.00  0.00    +0.280 C 
ENDBRANCH  19   4
ENDBRANCH  18  19
ENDBRANCH   3  18
ENDBRANCH  14   3
ENDBRANCH   8  13
TORSDOF 6
ENDMDL
MODEL 10
REMARK VINA RESULT:      -6.4      2.656      8.894
REMARK  Name = 11912808
REMARK  7 active torsions:
REMARK  status: ('A' for Active; 'I' for Inactive)
REMARK    1  A    between atoms: O_3  and  C_14
REMARK    2  A    between atoms: O_3  and  C_18
REMARK    3  A    between atoms: O_4  and  C_19
REMARK    4  A    between atoms: O_4  and  C_29
REMARK    5  A    between atoms: N_8  and  C_13
REMARK    6  A    between atoms: C_18  and  C_19
REMARK    7  A    between atoms: C_20  and  C_23
REMARK                            x       y       z     vdW  Elec       q    Type
REMARK                         _______ _______ _______ _____ _____    ______ ____
ROOT
ATOM      8  N   UNL     1      -3.901 -11.306  16.956  0.00  0.00    -0.306 N 
ATOM      9  N   UNL     1      -3.526 -11.120  14.647  0.00  0.00    -0.214 NA
ATOM     10  N   UNL     1      -1.862 -10.398  16.233  0.00  0.00    -0.223 NA
ATOM     17  C   UNL     1      -3.071 -10.930  15.914  0.00  0.00    +0.216 A 
ATOM     20  C   UNL     1      -2.691 -10.743  13.656  0.00  0.00    +0.076 A 
ATOM     21  C   UNL     1      -1.078 -10.042  15.194  0.00  0.00    +0.116 A 
ATOM     22  C   UNL     1      -1.444 -10.194  13.872  0.00  0.00    +0.048 A 
ATOM     31  H   UNL     1      -3.575 -11.112  17.896  0.00  0.00    +0.149 HD
ENDROOT
BRANCH  20  23
ATOM      6  O   UNL     1      -4.547  -9.180   9.402  0.00  0.00    -0.453 OA
ATOM      7  O   UNL     1      -4.646 -11.414   8.504  0.00  0.00    -0.453 OA
ATOM     23  C   UNL     1      -3.193 -10.953  12.319  0.00  0.00    +0.004 A 
ATOM     24  C   UNL     1      -3.619  -9.862  11.555  0.00  0.00    +0.059 A 
ATOM     25  C   UNL     1      -3.253 -12.258  11.791  0.00  0.00    +0.014 A 
ATOM     26  C   UNL     1      -4.092 -10.113  10.283  0.00  0.00    +0.167 A 
ATOM     27  C   UNL     1      -4.148 -11.387   9.770  0.00  0.00    +0.166 A 
ATOM     28  C   UNL     1      -3.736 -12.483  10.500  0.00  0.00    +0.050 A 
ATOM     30  C   UNL     1      -4.896 -10.012   8.277  0.00  0.00    +0.466 C 
ENDBRANCH  20  23
BRANCH   8  13
ATOM      1  O   UNL     1      -6.065 -12.324  18.943  0.00  0.00    -0.369 OA
ATOM      2  O   UNL     1      -7.534 -11.254  16.471  0.00  0.00    -0.369 OA
ATOM     11  C   UNL     1      -6.286 -10.867  17.085  0.00  0.00    +0.172 C 
ATOM     12  C   UNL     1      -6.476 -10.995  18.584  0.00  0.00    +0.180 C 
ATOM     13  C   UNL     1      -5.215 -11.884  16.765  0.00  0.00    +0.130 C 
ATOM     14  C   UNL     1      -7.966 -10.808  18.742  0.00  0.00    +0.176 C 
ATOM     15  C   UNL     1      -5.472 -12.963  17.802  0.00  0.00    +0.185 C 
ATOM     16  C   UNL     1      -8.505 -11.485  17.501  0.00  0.00    +0.194 C 
BRANCH  14   3
ATOM      3  O   UNL     1      -8.483 -11.377  19.923  0.00  0.00    -0.360 OA
BRANCH   3  18
ATOM     18  C   UNL     1      -9.425 -12.411  19.649  0.00  0.00    +0.280 C 
BRANCH  18  19
ATOM      5  O   UNL     1     -11.367 -11.077  20.222  0.00  0.00    -0.248 OA
ATOM     19  C   UNL     1     -10.711 -12.101  20.368  0.00  0.00    +0.333 C 
BRANCH  19   4
ATOM      4  O   UNL     1     -11.017 -13.140  21.199  0.00  0.00    -0.466 OA
ATOM     29  C   UNL     1     -12.402 -13.501  21.248  0.00  0.00    +0.280 C 
ENDBRANCH  19   4
ENDBRANCH  18  19
ENDBRANCH   3  18
ENDBRANCH  14   3
ENDBRANCH   8  13
TORSDOF 6
ENDMDL
