MODEL 1
REMARK VINA RESULT:      -7.5      0.000      0.000
REMARK  Name = 40776861
REMARK  7 active torsions:
REMARK  status: ('A' for Active; 'I' for Inactive)
REMARK    1  A    between atoms: N_7  and  C_17
REMARK    2  A    between atoms: N_8  and  C_18
REMARK    3  A    between atoms: N_9  and  C_24
REMARK    4  A    between atoms: C_11  and  C_17
REMARK    5  A    between atoms: C_12  and  C_18
REMARK    6  A    between atoms: C_23  and  C_25
REMARK    7  A    between atoms: C_35  and  C_36
REMARK                            x       y       z     vdW  Elec       q    Type
REMARK                         _______ _______ _______ _____ _____    ______ ____
ROOT
ATOM      6  N   UNL     1      13.161   7.113  21.083  0.00  0.00    -0.298 NA
ATOM     10  C   UNL     1      10.887   8.368  20.935  0.00  0.00    -0.003 C 
ATOM     11  C   UNL     1      11.472   8.117  19.526  0.00  0.00    +0.020 C 
ATOM     12  C   UNL     1      13.186   8.316  21.958  0.00  0.00    +0.074 C 
ATOM     13  C   UNL     1      11.905   9.161  21.775  0.00  0.00    +0.024 C 
ATOM     14  C   UNL     1      12.881   7.503  19.680  0.00  0.00    +0.089 C 
ATOM     15  C   UNL     1      10.720   6.990  21.602  0.00  0.00    +0.019 C 
ATOM     16  C   UNL     1      12.060   6.234  21.547  0.00  0.00    +0.085 C 
ENDROOT
BRANCH  11  17
ATOM     17  C   UNL     1      11.495   9.368  18.652  0.00  0.00    +0.089 C 
BRANCH  17   7
ATOM      7  N   UNL     1      12.847   9.641  18.165  0.00  0.00    -0.299 NA
ATOM      9  N   UNL     1      14.863  11.057  16.720  0.00  0.00    -0.327 N 
ATOM     19  C   UNL     1      13.306  10.956  18.626  0.00  0.00    +0.103 C 
ATOM     20  C   UNL     1      12.888   9.583  16.698  0.00  0.00    +0.103 C 
ATOM     21  C   UNL     1      14.742  11.230  18.171  0.00  0.00    +0.120 C 
ATOM     22  C   UNL     1      14.310   9.810  16.180  0.00  0.00    +0.120 C 
BRANCH   9  24
ATOM      1  F   UNL     1      19.071  13.421  14.025  0.00  0.00    -0.205 F 
ATOM     24  C   UNL     1      15.927  11.656  16.037  0.00  0.00    +0.030 A 
ATOM     26  C   UNL     1      16.742  12.581  16.690  0.00  0.00    +0.026 A 
ATOM     27  C   UNL     1      16.175  11.327  14.704  0.00  0.00    +0.026 A 
ATOM     30  C   UNL     1      17.804  13.176  16.011  0.00  0.00    +0.040 A 
ATOM     31  C   UNL     1      17.238  11.923  14.024  0.00  0.00    +0.040 A 
ATOM     32  C   UNL     1      18.052  12.847  14.678  0.00  0.00    +0.124 A 
ENDBRANCH   9  24
ENDBRANCH  17   7
ENDBRANCH  11  17
BRANCH  12  18
ATOM     18  C   UNL     1      14.452   9.154  21.763  0.00  0.00    +0.123 C 
BRANCH  18   8
ATOM      5  O   UNL     1      16.922   9.774  20.438  0.00  0.00    -0.270 OA
ATOM      8  N   UNL     1      15.625   8.302  21.672  0.00  0.00    -0.310 N 
ATOM     23  C   UNL     1      16.770   8.697  21.007  0.00  0.00    +0.244 C 
ATOM     37  H   UNL     1      15.541   7.370  22.063  0.00  0.00    +0.149 HD
BRANCH  23  25
ATOM     25  C   UNL     1      17.872   7.701  20.981  0.00  0.00    +0.037 A 
ATOM     28  C   UNL     1      18.976   7.861  21.818  0.00  0.00    +0.013 A 
ATOM     29  C   UNL     1      17.802   6.606  20.119  0.00  0.00    +0.013 A 
ATOM     33  C   UNL     1      20.011   6.926  21.793  0.00  0.00    +0.013 A 
ATOM     34  C   UNL     1      18.836   5.671  20.095  0.00  0.00    +0.013 A 
ATOM     35  C   UNL     1      19.942   5.831  20.932  0.00  0.00    +0.055 A 
BRANCH  35  36
ATOM      2  F   UNL     1      22.072   5.205  20.085  0.00  0.00    -0.166 F 
ATOM      3  F   UNL     1      21.617   4.612  22.127  0.00  0.00    -0.166 F 
ATOM      4  F   UNL     1      20.659   3.597  20.467  0.00  0.00    -0.166 F 
ATOM     36  C   UNL     1      21.048   4.831  20.905  0.00  0.00    +0.417 C 
ENDBRANCH  35  36
ENDBRANCH  23  25
ENDBRANCH  18   8
ENDBRANCH  12  18
TORSDOF 7
ENDMDL
MODEL 2
REMARK VINA RESULT:      -7.3     27.451     30.762
REMARK  Name = 40776861
REMARK  7 active torsions:
REMARK  status: ('A' for Active; 'I' for Inactive)
REMARK    1  A    between atoms: N_7  and  C_17
REMARK    2  A    between atoms: N_8  and  C_18
REMARK    3  A    between atoms: N_9  and  C_24
REMARK    4  A    between atoms: C_11  and  C_17
REMARK    5  A    between atoms: C_12  and  C_18
REMARK    6  A    between atoms: C_23  and  C_25
REMARK    7  A    between atoms: C_35  and  C_36
REMARK                            x       y       z     vdW  Elec       q    Type
REMARK                         _______ _______ _______ _____ _____    ______ ____
ROOT
ATOM      6  N   UNL     1      -8.550 -11.640  17.301  0.00  0.00    -0.298 NA
ATOM     10  C   UNL     1     -10.683 -11.255  18.739  0.00  0.00    -0.003 C 
ATOM     11  C   UNL     1     -10.719 -10.392  17.456  0.00  0.00    +0.020 C 
ATOM     12  C   UNL     1      -8.168 -11.306  18.701  0.00  0.00    +0.074 C 
ATOM     13  C   UNL     1      -9.409 -10.927  19.539  0.00  0.00    +0.024 C 
ATOM     14  C   UNL     1      -9.370 -10.550  16.719  0.00  0.00    +0.089 C 
ATOM     15  C   UNL     1     -10.573 -12.723  18.287  0.00  0.00    +0.019 C 
ATOM     16  C   UNL     1      -9.374 -12.873  17.335  0.00  0.00    +0.085 C 
ENDROOT
BRANCH  11  17
ATOM     17  C   UNL     1     -11.044  -8.925  17.727  0.00  0.00    +0.089 C 
BRANCH  17   7
ATOM      7  N   UNL     1     -11.286  -8.205  16.477  0.00  0.00    -0.299 NA
ATOM      9  N   UNL     1     -12.464  -6.216  14.799  0.00  0.00    -0.327 N 
ATOM     19  C   UNL     1     -10.899  -6.795  16.611  0.00  0.00    +0.103 C 
ATOM     20  C   UNL     1     -12.700  -8.301  16.093  0.00  0.00    +0.103 C 
ATOM     21  C   UNL     1     -11.094  -6.043  15.293  0.00  0.00    +0.120 C 
ATOM     22  C   UNL     1     -12.954  -7.599  14.757  0.00  0.00    +0.120 C 
BRANCH   9  24
ATOM      1  F   UNL     1     -14.549  -2.605  11.169  0.00  0.00    -0.205 F 
ATOM     24  C   UNL     1     -12.991  -5.302  13.880  0.00  0.00    +0.030 A 
ATOM     26  C   UNL     1     -14.370  -5.225  13.687  0.00  0.00    +0.026 A 
ATOM     27  C   UNL     1     -12.137  -4.468  13.157  0.00  0.00    +0.026 A 
ATOM     30  C   UNL     1     -14.896  -4.314  12.772  0.00  0.00    +0.040 A 
ATOM     31  C   UNL     1     -12.664  -3.557  12.241  0.00  0.00    +0.040 A 
ATOM     32  C   UNL     1     -14.043  -3.479  12.049  0.00  0.00    +0.124 A 
ENDBRANCH   9  24
ENDBRANCH  17   7
ENDBRANCH  11  17
BRANCH  12  18
ATOM     18  C   UNL     1      -7.084 -10.228  18.769  0.00  0.00    +0.123 C 
BRANCH  18   8
ATOM      5  O   UNL     1      -4.405 -11.239  18.562  0.00  0.00    -0.270 OA
ATOM      8  N   UNL     1      -6.256 -10.252  17.576  0.00  0.00    -0.310 N 
ATOM     23  C   UNL     1      -4.972 -10.763  17.583  0.00  0.00    +0.244 C 
ATOM     37  H   UNL     1      -6.640  -9.812  16.747  0.00  0.00    +0.149 HD
BRANCH  23  25
ATOM     25  C   UNL     1      -4.247 -10.691  16.288  0.00  0.00    +0.037 A 
ATOM     28  C   UNL     1      -2.852 -10.670  16.270  0.00  0.00    +0.013 A 
ATOM     29  C   UNL     1      -4.962 -10.641  15.091  0.00  0.00    +0.013 A 
ATOM     33  C   UNL     1      -2.172 -10.601  15.055  0.00  0.00    +0.013 A 
ATOM     34  C   UNL     1      -4.281 -10.572  13.876  0.00  0.00    +0.013 A 
ATOM     35  C   UNL     1      -2.886 -10.553  13.857  0.00  0.00    +0.055 A 
BRANCH  35  36
ATOM      2  F   UNL     1      -2.972 -10.128  11.520  0.00  0.00    -0.166 F 
ATOM      3  F   UNL     1      -1.141  -9.569  12.550  0.00  0.00    -0.166 F 
ATOM      4  F   UNL     1      -1.582 -11.661  12.186  0.00  0.00    -0.166 F 
ATOM     36  C   UNL     1      -2.158 -10.479  12.557  0.00  0.00    +0.417 C 
ENDBRANCH  35  36
ENDBRANCH  23  25
ENDBRANCH  18   8
ENDBRANCH  12  18
TORSDOF 7
ENDMDL
MODEL 3
REMARK VINA RESULT:      -7.3     16.279     19.987
REMARK  Name = 40776861
REMARK  7 active torsions:
REMARK  status: ('A' for Active; 'I' for Inactive)
REMARK    1  A    between atoms: N_7  and  C_17
REMARK    2  A    between atoms: N_8  and  C_18
REMARK    3  A    between atoms: N_9  and  C_24
REMARK    4  A    between atoms: C_11  and  C_17
REMARK    5  A    between atoms: C_12  and  C_18
REMARK    6  A    between atoms: C_23  and  C_25
REMARK    7  A    between atoms: C_35  and  C_36
REMARK                            x       y       z     vdW  Elec       q    Type
REMARK                         _______ _______ _______ _____ _____    ______ ____
ROOT
ATOM      6  N   UNL     1      10.008   6.781   7.500  0.00  0.00    -0.298 NA
ATOM     10  C   UNL     1       9.836   5.154   5.478  0.00  0.00    -0.003 C 
ATOM     11  C   UNL     1      11.145   5.974   5.417  0.00  0.00    +0.020 C 
ATOM     12  C   UNL     1       8.701   6.961   6.811  0.00  0.00    +0.074 C 
ATOM     13  C   UNL     1       8.633   6.114   5.520  0.00  0.00    +0.024 C 
ATOM     14  C   UNL     1      11.124   7.019   6.554  0.00  0.00    +0.089 C 
ATOM     15  C   UNL     1       9.853   4.384   6.812  0.00  0.00    +0.019 C 
ATOM     16  C   UNL     1      10.088   5.375   7.966  0.00  0.00    +0.085 C 
ENDROOT
BRANCH  11  17
ATOM     17  C   UNL     1      11.383   6.627   4.057  0.00  0.00    +0.089 C 
BRANCH  17   7
ATOM      7  N   UNL     1      11.251   5.648   2.978  0.00  0.00    -0.299 NA
ATOM      9  N   UNL     1      11.321   4.717   0.279  0.00  0.00    -0.327 N 
ATOM     19  C   UNL     1      12.534   5.465   2.288  0.00  0.00    +0.103 C 
ATOM     20  C   UNL     1      10.224   6.075   2.019  0.00  0.00    +0.103 C 
ATOM     21  C   UNL     1      12.423   4.401   1.193  0.00  0.00    +0.120 C 
ATOM     22  C   UNL     1      10.037   5.031   0.915  0.00  0.00    +0.120 C 
BRANCH   9  24
ATOM      1  F   UNL     1      11.240   2.504  -4.787  0.00  0.00    -0.205 F 
ATOM     24  C   UNL     1      11.301   4.156  -1.003  0.00  0.00    +0.030 A 
ATOM     26  C   UNL     1      10.366   4.595  -1.941  0.00  0.00    +0.026 A 
ATOM     27  C   UNL     1      12.215   3.159  -1.344  0.00  0.00    +0.026 A 
ATOM     30  C   UNL     1      10.346   4.038  -3.219  0.00  0.00    +0.040 A 
ATOM     31  C   UNL     1      12.195   2.601  -2.623  0.00  0.00    +0.040 A 
ATOM     32  C   UNL     1      11.260   3.041  -3.560  0.00  0.00    +0.124 A 
ENDBRANCH   9  24
ENDBRANCH  17   7
ENDBRANCH  11  17
BRANCH  12  18
ATOM     18  C   UNL     1       8.379   8.433   6.543  0.00  0.00    +0.123 C 
BRANCH  18   8
ATOM      5  O   UNL     1       8.102  10.832   4.990  0.00  0.00    -0.270 OA
ATOM      8  N   UNL     1       7.641   8.581   5.300  0.00  0.00    -0.310 N 
ATOM     23  C   UNL     1       7.570   9.787   4.628  0.00  0.00    +0.244 C 
ATOM     37  H   UNL     1       7.122   7.771   4.981  0.00  0.00    +0.149 HD
BRANCH  23  25
ATOM     25  C   UNL     1       6.754   9.780   3.386  0.00  0.00    +0.037 A 
ATOM     28  C   UNL     1       7.334   9.407   2.173  0.00  0.00    +0.013 A 
ATOM     29  C   UNL     1       5.409  10.147   3.433  0.00  0.00    +0.013 A 
ATOM     33  C   UNL     1       6.568   9.401   1.007  0.00  0.00    +0.013 A 
ATOM     34  C   UNL     1       4.644  10.142   2.267  0.00  0.00    +0.013 A 
ATOM     35  C   UNL     1       5.223   9.768   1.054  0.00  0.00    +0.055 A 
BRANCH  35  36
ATOM      2  F   UNL     1       3.065   9.708   0.061  0.00  0.00    -0.166 F 
ATOM      3  F   UNL     1       4.586  10.867  -0.973  0.00  0.00    -0.166 F 
ATOM      4  F   UNL     1       4.665   8.700  -1.012  0.00  0.00    -0.166 F 
ATOM     36  C   UNL     1       4.404   9.762  -0.193  0.00  0.00    +0.417 C 
ENDBRANCH  35  36
ENDBRANCH  23  25
ENDBRANCH  18   8
ENDBRANCH  12  18
TORSDOF 7
ENDMDL
MODEL 4
REMARK VINA RESULT:      -7.2      1.313      2.167
REMARK  Name = 40776861
REMARK  7 active torsions:
REMARK  status: ('A' for Active; 'I' for Inactive)
REMARK    1  A    between atoms: N_7  and  C_17
REMARK    2  A    between atoms: N_8  and  C_18
REMARK    3  A    between atoms: N_9  and  C_24
REMARK    4  A    between atoms: C_11  and  C_17
REMARK    5  A    between atoms: C_12  and  C_18
REMARK    6  A    between atoms: C_23  and  C_25
REMARK    7  A    between atoms: C_35  and  C_36
REMARK                            x       y       z     vdW  Elec       q    Type
REMARK                         _______ _______ _______ _____ _____    ______ ____
ROOT
ATOM      6  N   UNL     1      13.956   7.696  20.447  0.00  0.00    -0.298 NA
ATOM     10  C   UNL     1      11.933   9.274  20.017  0.00  0.00    -0.003 C 
ATOM     11  C   UNL     1      12.958   9.362  18.862  0.00  0.00    +0.020 C 
ATOM     12  C   UNL     1      13.731   8.570  21.631  0.00  0.00    +0.074 C 
ATOM     13  C   UNL     1      12.631   9.618  21.345  0.00  0.00    +0.024 C 
ATOM     14  C   UNL     1      14.198   8.521  19.239  0.00  0.00    +0.089 C 
ATOM     15  C   UNL     1      11.484   7.804  20.104  0.00  0.00    +0.019 C 
ATOM     16  C   UNL     1      12.724   6.901  20.226  0.00  0.00    +0.085 C 
ENDROOT
BRANCH  11  17
ATOM     17  C   UNL     1      13.339  10.797  18.503  0.00  0.00    +0.089 C 
BRANCH  17   7
ATOM      7  N   UNL     1      14.378  10.820  17.475  0.00  0.00    -0.299 NA
ATOM      9  N   UNL     1      15.602  11.621  15.022  0.00  0.00    -0.327 N 
ATOM     19  C   UNL     1      14.925  12.174  17.324  0.00  0.00    +0.103 C 
ATOM     20  C   UNL     1      13.842  10.352  16.190  0.00  0.00    +0.103 C 
ATOM     21  C   UNL     1      16.053  12.200  16.291  0.00  0.00    +0.120 C 
ATOM     22  C   UNL     1      14.935  10.318  15.120  0.00  0.00    +0.120 C 
BRANCH   9  24
ATOM      1  F   UNL     1      18.302  12.817  10.348  0.00  0.00    -0.205 F 
ATOM     24  C   UNL     1      16.287  11.923  13.839  0.00  0.00    +0.030 A 
ATOM     26  C   UNL     1      15.614  11.890  12.617  0.00  0.00    +0.026 A 
ATOM     27  C   UNL     1      17.640  12.259  13.881  0.00  0.00    +0.026 A 
ATOM     30  C   UNL     1      16.295  12.192  11.438  0.00  0.00    +0.040 A 
ATOM     31  C   UNL     1      18.321  12.561  12.702  0.00  0.00    +0.040 A 
ATOM     32  C   UNL     1      17.648  12.528  11.481  0.00  0.00    +0.124 A 
ENDBRANCH   9  24
ENDBRANCH  17   7
ENDBRANCH  11  17
BRANCH  12  18
ATOM     18  C   UNL     1      15.022   9.222  22.130  0.00  0.00    +0.123 C 
BRANCH  18   8
ATOM      5  O   UNL     1      17.493   9.730  20.759  0.00  0.00    -0.270 OA
ATOM      8  N   UNL     1      16.145   8.310  21.999  0.00  0.00    -0.310 N 
ATOM     23  C   UNL     1      17.295   8.653  21.315  0.00  0.00    +0.244 C 
ATOM     37  H   UNL     1      16.019   7.377  22.378  0.00  0.00    +0.149 HD
BRANCH  23  25
ATOM     25  C   UNL     1      18.340   7.599  21.249  0.00  0.00    +0.037 A 
ATOM     28  C   UNL     1      18.234   6.570  20.314  0.00  0.00    +0.013 A 
ATOM     29  C   UNL     1      19.426   7.640  22.124  0.00  0.00    +0.013 A 
ATOM     33  C   UNL     1      19.215   5.580  20.253  0.00  0.00    +0.013 A 
ATOM     34  C   UNL     1      20.407   6.650  22.063  0.00  0.00    +0.013 A 
ATOM     35  C   UNL     1      20.302   5.619  21.127  0.00  0.00    +0.055 A 
BRANCH  35  36
ATOM      2  F   UNL     1      20.854   3.355  20.661  0.00  0.00    -0.166 F 
ATOM      3  F   UNL     1      22.364   4.848  20.193  0.00  0.00    -0.166 F 
ATOM      4  F   UNL     1      21.964   4.325  22.260  0.00  0.00    -0.166 F 
ATOM     36  C   UNL     1      21.351   4.561  21.062  0.00  0.00    +0.417 C 
ENDBRANCH  35  36
ENDBRANCH  23  25
ENDBRANCH  18   8
ENDBRANCH  12  18
TORSDOF 7
ENDMDL
MODEL 5
REMARK VINA RESULT:      -7.1     28.377     30.988
REMARK  Name = 40776861
REMARK  7 active torsions:
REMARK  status: ('A' for Active; 'I' for Inactive)
REMARK    1  A    between atoms: N_7  and  C_17
REMARK    2  A    between atoms: N_8  and  C_18
REMARK    3  A    between atoms: N_9  and  C_24
REMARK    4  A    between atoms: C_11  and  C_17
REMARK    5  A    between atoms: C_12  and  C_18
REMARK    6  A    between atoms: C_23  and  C_25
REMARK    7  A    between atoms: C_35  and  C_36
REMARK                            x       y       z     vdW  Elec       q    Type
REMARK                         _______ _______ _______ _____ _____    ______ ____
ROOT
ATOM      6  N   UNL     1      -6.706 -12.838  18.450  0.00  0.00    -0.298 NA
ATOM     10  C   UNL     1      -5.935 -10.355  18.358  0.00  0.00    -0.003 C 
ATOM     11  C   UNL     1      -7.238 -10.558  17.552  0.00  0.00    +0.020 C 
ATOM     12  C   UNL     1      -5.284 -12.762  18.018  0.00  0.00    +0.074 C 
ATOM     13  C   UNL     1      -4.845 -11.295  17.811  0.00  0.00    +0.024 C 
ATOM     14  C   UNL     1      -7.568 -12.067  17.520  0.00  0.00    +0.089 C 
ATOM     15  C   UNL     1      -6.231 -10.793  19.805  0.00  0.00    +0.019 C 
ATOM     16  C   UNL     1      -6.808 -12.220  19.795  0.00  0.00    +0.085 C 
ENDROOT
BRANCH  11  17
ATOM     17  C   UNL     1      -7.174  -9.966  16.146  0.00  0.00    +0.089 C 
BRANCH  17   7
ATOM      7  N   UNL     1      -8.337  -9.119  15.883  0.00  0.00    -0.299 NA
ATOM      9  N   UNL     1     -11.088  -8.360  15.988  0.00  0.00    -0.327 N 
ATOM     19  C   UNL     1      -8.932  -8.654  17.141  0.00  0.00    +0.103 C 
ATOM     20  C   UNL     1      -9.338  -9.848  15.095  0.00  0.00    +0.103 C 
ATOM     21  C   UNL     1     -10.116  -7.720  16.879  0.00  0.00    +0.120 C 
ATOM     22  C   UNL     1     -10.535  -8.953  14.765  0.00  0.00    +0.120 C 
BRANCH   9  24
ATOM      1  F   UNL     1     -16.305  -6.535  15.857  0.00  0.00    -0.205 F 
ATOM     24  C   UNL     1     -12.409  -7.898  15.956  0.00  0.00    +0.030 A 
ATOM     26  C   UNL     1     -12.743  -6.796  15.168  0.00  0.00    +0.026 A 
ATOM     27  C   UNL     1     -13.391  -8.539  16.710  0.00  0.00    +0.026 A 
ATOM     30  C   UNL     1     -14.059  -6.337  15.134  0.00  0.00    +0.040 A 
ATOM     31  C   UNL     1     -14.708  -8.079  16.677  0.00  0.00    +0.040 A 
ATOM     32  C   UNL     1     -15.041  -6.978  15.888  0.00  0.00    +0.124 A 
ENDBRANCH   9  24
ENDBRANCH  17   7
ENDBRANCH  11  17
BRANCH  12  18
ATOM     18  C   UNL     1      -5.002 -13.619  16.782  0.00  0.00    +0.123 C 
BRANCH  18   8
ATOM      5  O   UNL     1      -3.115 -14.107  14.673  0.00  0.00    -0.270 OA
ATOM      8  N   UNL     1      -4.768 -12.783  15.617  0.00  0.00    -0.310 N 
ATOM     23  C   UNL     1      -3.831 -13.109  14.655  0.00  0.00    +0.244 C 
ATOM     37  H   UNL     1      -5.279 -11.908  15.576  0.00  0.00    +0.149 HD
BRANCH  23  25
ATOM     25  C   UNL     1      -3.693 -12.137  13.540  0.00  0.00    +0.037 A 
ATOM     28  C   UNL     1      -2.456 -11.956  12.922  0.00  0.00    +0.013 A 
ATOM     29  C   UNL     1      -4.801 -11.405  13.113  0.00  0.00    +0.013 A 
ATOM     33  C   UNL     1      -2.326 -11.043  11.875  0.00  0.00    +0.013 A 
ATOM     34  C   UNL     1      -4.671 -10.492  12.066  0.00  0.00    +0.013 A 
ATOM     35  C   UNL     1      -3.434 -10.311  11.447  0.00  0.00    +0.055 A 
BRANCH  35  36
ATOM      2  F   UNL     1      -4.105  -8.247  10.479  0.00  0.00    -0.166 F 
ATOM      3  F   UNL     1      -2.032  -8.835  10.190  0.00  0.00    -0.166 F 
ATOM      4  F   UNL     1      -3.607  -9.858   9.105  0.00  0.00    -0.166 F 
ATOM     36  C   UNL     1      -3.295  -9.335  10.328  0.00  0.00    +0.417 C 
ENDBRANCH  35  36
ENDBRANCH  23  25
ENDBRANCH  18   8
ENDBRANCH  12  18
TORSDOF 7
ENDMDL
MODEL 6
REMARK VINA RESULT:      -7.1     27.718     31.066
REMARK  Name = 40776861
REMARK  7 active torsions:
REMARK  status: ('A' for Active; 'I' for Inactive)
REMARK    1  A    between atoms: N_7  and  C_17
REMARK    2  A    between atoms: N_8  and  C_18
REMARK    3  A    between atoms: N_9  and  C_24
REMARK    4  A    between atoms: C_11  and  C_17
REMARK    5  A    between atoms: C_12  and  C_18
REMARK    6  A    between atoms: C_23  and  C_25
REMARK    7  A    between atoms: C_35  and  C_36
REMARK                            x       y       z     vdW  Elec       q    Type
REMARK                         _______ _______ _______ _____ _____    ______ ____
ROOT
ATOM      6  N   UNL     1     -10.745 -10.960  16.775  0.00  0.00    -0.298 NA
ATOM     10  C   UNL     1     -12.286  -9.908  18.586  0.00  0.00    -0.003 C 
ATOM     11  C   UNL     1     -13.011  -9.987  17.223  0.00  0.00    +0.020 C 
ATOM     12  C   UNL     1     -10.042  -9.836  17.451  0.00  0.00    +0.074 C 
ATOM     13  C   UNL     1     -10.986  -9.098  18.427  0.00  0.00    +0.024 C 
ATOM     14  C   UNL     1     -12.006 -10.481  16.159  0.00  0.00    +0.089 C 
ATOM     15  C   UNL     1     -11.885 -11.346  18.963  0.00  0.00    +0.019 C 
ATOM     16  C   UNL     1     -11.087 -11.970  17.805  0.00  0.00    +0.085 C 
ENDROOT
BRANCH  11  17
ATOM     17  C   UNL     1     -13.665  -8.670  16.811  0.00  0.00    +0.089 C 
BRANCH  17   7
ATOM      7  N   UNL     1     -13.030  -8.124  15.612  0.00  0.00    -0.299 NA
ATOM      9  N   UNL     1     -12.667  -6.275  13.465  0.00  0.00    -0.327 N 
ATOM     19  C   UNL     1     -12.511  -6.775  15.872  0.00  0.00    +0.103 C 
ATOM     20  C   UNL     1     -13.984  -8.086  14.496  0.00  0.00    +0.103 C 
ATOM     21  C   UNL     1     -11.794  -6.215  14.641  0.00  0.00    +0.120 C 
ATOM     22  C   UNL     1     -13.315  -7.569  13.221  0.00  0.00    +0.120 C 
BRANCH   9  24
ATOM      1  F   UNL     1     -11.642  -3.021   9.115  0.00  0.00    -0.205 F 
ATOM     24  C   UNL     1     -12.407  -5.451  12.365  0.00  0.00    +0.030 A 
ATOM     26  C   UNL     1     -12.196  -6.015  11.106  0.00  0.00    +0.026 A 
ATOM     27  C   UNL     1     -12.359  -4.066  12.525  0.00  0.00    +0.026 A 
ATOM     30  C   UNL     1     -11.938  -5.194  10.009  0.00  0.00    +0.040 A 
ATOM     31  C   UNL     1     -12.101  -3.245  11.427  0.00  0.00    +0.040 A 
ATOM     32  C   UNL     1     -11.891  -3.809  10.169  0.00  0.00    +0.124 A 
ENDBRANCH   9  24
ENDBRANCH  17   7
ENDBRANCH  11  17
BRANCH  12  18
ATOM     18  C   UNL     1      -9.387  -8.874  16.457  0.00  0.00    +0.123 C 
BRANCH  18   8
ATOM      5  O   UNL     1      -8.124 -10.638  14.577  0.00  0.00    -0.270 OA
ATOM      8  N   UNL     1      -7.964  -9.143  16.341  0.00  0.00    -0.310 N 
ATOM     23  C   UNL     1      -7.456 -10.014  15.396  0.00  0.00    +0.244 C 
ATOM     37  H   UNL     1      -7.362  -8.711  17.033  0.00  0.00    +0.149 HD
BRANCH  23  25
ATOM     25  C   UNL     1      -5.982 -10.201  15.424  0.00  0.00    +0.037 A 
ATOM     28  C   UNL     1      -5.285 -10.425  14.237  0.00  0.00    +0.013 A 
ATOM     29  C   UNL     1      -5.297 -10.153  16.638  0.00  0.00    +0.013 A 
ATOM     33  C   UNL     1      -3.902 -10.601  14.263  0.00  0.00    +0.013 A 
ATOM     34  C   UNL     1      -3.913 -10.329  16.664  0.00  0.00    +0.013 A 
ATOM     35  C   UNL     1      -3.215 -10.553  15.477  0.00  0.00    +0.055 A 
BRANCH  35  36
ATOM      2  F   UNL     1      -1.069  -9.752  14.842  0.00  0.00    -0.166 F 
ATOM      3  F   UNL     1      -1.210 -10.757  16.764  0.00  0.00    -0.166 F 
ATOM      4  F   UNL     1      -1.322 -11.909  14.930  0.00  0.00    -0.166 F 
ATOM     36  C   UNL     1      -1.736 -10.741  15.505  0.00  0.00    +0.417 C 
ENDBRANCH  35  36
ENDBRANCH  23  25
ENDBRANCH  18   8
ENDBRANCH  12  18
TORSDOF 7
ENDMDL
MODEL 7
REMARK VINA RESULT:      -7.0     28.886     31.891
REMARK  Name = 40776861
REMARK  7 active torsions:
REMARK  status: ('A' for Active; 'I' for Inactive)
REMARK    1  A    between atoms: N_7  and  C_17
REMARK    2  A    between atoms: N_8  and  C_18
REMARK    3  A    between atoms: N_9  and  C_24
REMARK    4  A    between atoms: C_11  and  C_17
REMARK    5  A    between atoms: C_12  and  C_18
REMARK    6  A    between atoms: C_23  and  C_25
REMARK    7  A    between atoms: C_35  and  C_36
REMARK                            x       y       z     vdW  Elec       q    Type
REMARK                         _______ _______ _______ _____ _____    ______ ____
ROOT
ATOM      6  N   UNL     1     -13.388  10.278  35.721  0.00  0.00    -0.298 NA
ATOM     10  C   UNL     1     -11.207   8.951  36.218  0.00  0.00    -0.003 C 
ATOM     11  C   UNL     1     -10.904  10.223  35.391  0.00  0.00    +0.020 C 
ATOM     12  C   UNL     1     -13.553   8.857  35.313  0.00  0.00    +0.074 C 
ATOM     13  C   UNL     1     -12.225   8.080  35.459  0.00  0.00    +0.024 C 
ATOM     14  C   UNL     1     -12.242  10.889  35.004  0.00  0.00    +0.089 C 
ATOM     15  C   UNL     1     -11.885   9.416  37.520  0.00  0.00    +0.019 C 
ATOM     16  C   UNL     1     -13.092  10.305  37.174  0.00  0.00    +0.085 C 
ENDROOT
BRANCH  11  17
ATOM     17  C   UNL     1     -10.034   9.951  34.166  0.00  0.00    +0.089 C 
BRANCH  17   7
ATOM      7  N   UNL     1     -10.722  10.350  32.939  0.00  0.00    -0.299 NA
ATOM      9  N   UNL     1     -11.046  10.682  30.120  0.00  0.00    -0.327 N 
ATOM     19  C   UNL     1     -10.953   9.186  32.075  0.00  0.00    +0.103 C 
ATOM     20  C   UNL     1      -9.940  11.361  32.216  0.00  0.00    +0.103 C 
ATOM     21  C   UNL     1     -11.723   9.581  30.812  0.00  0.00    +0.120 C 
ATOM     22  C   UNL     1     -10.677  11.828  30.958  0.00  0.00    +0.120 C 
BRANCH   9  24
ATOM      1  F   UNL     1     -12.073  11.593  24.765  0.00  0.00    -0.205 F 
ATOM     24  C   UNL     1     -11.305  10.914  28.765  0.00  0.00    +0.030 A 
ATOM     26  C   UNL     1     -10.899   9.983  27.809  0.00  0.00    +0.026 A 
ATOM     27  C   UNL     1     -11.972  12.074  28.370  0.00  0.00    +0.026 A 
ATOM     30  C   UNL     1     -11.159  10.212  26.458  0.00  0.00    +0.040 A 
ATOM     31  C   UNL     1     -12.231  12.303  27.018  0.00  0.00    +0.040 A 
ATOM     32  C   UNL     1     -11.825  11.372  26.063  0.00  0.00    +0.124 A 
ENDBRANCH   9  24
ENDBRANCH  17   7
ENDBRANCH  11  17
BRANCH  12  18
ATOM     18  C   UNL     1     -14.142   8.716  33.908  0.00  0.00    +0.123 C 
BRANCH  18   8
ATOM      5  O   UNL     1     -15.241   7.670  31.470  0.00  0.00    -0.270 OA
ATOM      8  N   UNL     1     -14.186   7.321  33.504  0.00  0.00    -0.310 N 
ATOM     23  C   UNL     1     -14.741   6.921  32.304  0.00  0.00    +0.244 C 
ATOM     37  H   UNL     1     -13.851   6.642  34.179  0.00  0.00    +0.149 HD
BRANCH  23  25
ATOM     25  C   UNL     1     -14.732   5.456  32.051  0.00  0.00    +0.037 A 
ATOM     28  C   UNL     1     -15.631   4.901  31.140  0.00  0.00    +0.013 A 
ATOM     29  C   UNL     1     -13.826   4.638  32.725  0.00  0.00    +0.013 A 
ATOM     33  C   UNL     1     -15.624   3.526  30.904  0.00  0.00    +0.013 A 
ATOM     34  C   UNL     1     -13.818   3.264  32.488  0.00  0.00    +0.013 A 
ATOM     35  C   UNL     1     -14.717   2.707  31.578  0.00  0.00    +0.055 A 
BRANCH  35  36
ATOM      2  F   UNL     1     -15.680   0.851  30.448  0.00  0.00    -0.166 F 
ATOM      3  F   UNL     1     -13.536   0.779  30.797  0.00  0.00    -0.166 F 
ATOM      4  F   UNL     1     -14.911   0.488  32.449  0.00  0.00    -0.166 F 
ATOM     36  C   UNL     1     -14.709   1.237  31.324  0.00  0.00    +0.417 C 
ENDBRANCH  35  36
ENDBRANCH  23  25
ENDBRANCH  18   8
ENDBRANCH  12  18
TORSDOF 7
ENDMDL
MODEL 8
REMARK VINA RESULT:      -6.9     28.333     30.485
REMARK  Name = 40776861
REMARK  7 active torsions:
REMARK  status: ('A' for Active; 'I' for Inactive)
REMARK    1  A    between atoms: N_7  and  C_17
REMARK    2  A    between atoms: N_8  and  C_18
REMARK    3  A    between atoms: N_9  and  C_24
REMARK    4  A    between atoms: C_11  and  C_17
REMARK    5  A    between atoms: C_12  and  C_18
REMARK    6  A    between atoms: C_23  and  C_25
REMARK    7  A    between atoms: C_35  and  C_36
REMARK                            x       y       z     vdW  Elec       q    Type
REMARK                         _______ _______ _______ _____ _____    ______ ____
ROOT
ATOM      6  N   UNL     1      -1.751 -11.613  14.054  0.00  0.00    -0.298 NA
ATOM     10  C   UNL     1      -3.927 -12.359  12.840  0.00  0.00    -0.003 C 
ATOM     11  C   UNL     1      -3.347 -11.078  12.196  0.00  0.00    +0.020 C 
ATOM     12  C   UNL     1      -2.846 -11.807  15.044  0.00  0.00    +0.074 C 
ATOM     13  C   UNL     1      -4.187 -12.105  14.336  0.00  0.00    +0.024 C 
ATOM     14  C   UNL     1      -2.146 -10.603  13.043  0.00  0.00    +0.089 C 
ATOM     15  C   UNL     1      -2.836 -13.441  12.743  0.00  0.00    +0.019 C 
ATOM     16  C   UNL     1      -1.532 -12.904  13.357  0.00  0.00    +0.085 C 
ENDROOT
BRANCH  11  17
ATOM     17  C   UNL     1      -4.384  -9.971  12.017  0.00  0.00    +0.089 C 
BRANCH  17   7
ATOM      7  N   UNL     1      -5.045 -10.080  10.717  0.00  0.00    -0.299 NA
ATOM      9  N   UNL     1      -6.326  -9.115   8.354  0.00  0.00    -0.327 N 
ATOM     19  C   UNL     1      -4.270  -9.381   9.685  0.00  0.00    +0.103 C 
ATOM     20  C   UNL     1      -6.404  -9.528  10.783  0.00  0.00    +0.103 C 
ATOM     21  C   UNL     1      -4.922  -9.535   8.309  0.00  0.00    +0.120 C 
ATOM     22  C   UNL     1      -7.126  -9.687   9.443  0.00  0.00    +0.120 C 
BRANCH   9  24
ATOM      1  F   UNL     1      -8.922  -7.712   3.679  0.00  0.00    -0.205 F 
ATOM     24  C   UNL     1      -6.983  -8.761   7.171  0.00  0.00    +0.030 A 
ATOM     26  C   UNL     1      -7.962  -7.766   7.188  0.00  0.00    +0.026 A 
ATOM     27  C   UNL     1      -6.659  -9.400   5.974  0.00  0.00    +0.026 A 
ATOM     30  C   UNL     1      -8.616  -7.412   6.008  0.00  0.00    +0.040 A 
ATOM     31  C   UNL     1      -7.314  -9.045   4.794  0.00  0.00    +0.040 A 
ATOM     32  C   UNL     1      -8.292  -8.051   4.812  0.00  0.00    +0.124 A 
ENDBRANCH   9  24
ENDBRANCH  17   7
ENDBRANCH  11  17
BRANCH  12  18
ATOM     18  C   UNL     1      -2.967 -10.634  16.020  0.00  0.00    +0.123 C 
BRANCH  18   8
ATOM      5  O   UNL     1      -4.396 -11.292  18.422  0.00  0.00    -0.270 OA
ATOM      8  N   UNL     1      -4.361 -10.344  16.307  0.00  0.00    -0.310 N 
ATOM     23  C   UNL     1      -4.956 -10.705  17.500  0.00  0.00    +0.244 C 
ATOM     37  H   UNL     1      -4.900  -9.921  15.559  0.00  0.00    +0.149 HD
BRANCH  23  25
ATOM     25  C   UNL     1      -6.396 -10.360  17.629  0.00  0.00    +0.037 A 
ATOM     28  C   UNL     1      -7.177 -10.978  18.605  0.00  0.00    +0.013 A 
ATOM     29  C   UNL     1      -6.965  -9.418  16.772  0.00  0.00    +0.013 A 
ATOM     33  C   UNL     1      -8.528 -10.654  18.724  0.00  0.00    +0.013 A 
ATOM     34  C   UNL     1      -8.316  -9.094  16.891  0.00  0.00    +0.013 A 
ATOM     35  C   UNL     1      -9.099  -9.712  17.868  0.00  0.00    +0.055 A 
BRANCH  35  36
ATOM      2  F   UNL     1     -11.342 -10.154  17.220  0.00  0.00    -0.166 F 
ATOM      3  F   UNL     1     -11.026  -9.492  19.266  0.00  0.00    -0.166 F 
ATOM      4  F   UNL     1     -10.832  -8.081  17.631  0.00  0.00    -0.166 F 
ATOM     36  C   UNL     1     -10.543  -9.365  17.996  0.00  0.00    +0.417 C 
ENDBRANCH  35  36
ENDBRANCH  23  25
ENDBRANCH  18   8
ENDBRANCH  12  18
TORSDOF 7
ENDMDL
MODEL 9
REMARK VINA RESULT:      -6.9     27.914     30.429
REMARK  Name = 40776861
REMARK  7 active torsions:
REMARK  status: ('A' for Active; 'I' for Inactive)
REMARK    1  A    between atoms: N_7  and  C_17
REMARK    2  A    between atoms: N_8  and  C_18
REMARK    3  A    between atoms: N_9  and  C_24
REMARK    4  A    between atoms: C_11  and  C_17
REMARK    5  A    between atoms: C_12  and  C_18
REMARK    6  A    between atoms: C_23  and  C_25
REMARK    7  A    between atoms: C_35  and  C_36
REMARK                            x       y       z     vdW  Elec       q    Type
REMARK                         _______ _______ _______ _____ _____    ______ ____
ROOT
ATOM      6  N   UNL     1     -11.557  -9.883  17.173  0.00  0.00    -0.298 NA
ATOM     10  C   UNL     1     -10.289  -8.112  15.751  0.00  0.00    -0.003 C 
ATOM     11  C   UNL     1     -10.336  -9.475  15.022  0.00  0.00    +0.020 C 
ATOM     12  C   UNL     1     -10.492  -9.241  17.990  0.00  0.00    +0.074 C 
ATOM     13  C   UNL     1      -9.628  -8.293  17.129  0.00  0.00    +0.024 C 
ATOM     14  C   UNL     1     -10.969 -10.518  15.969  0.00  0.00    +0.089 C 
ATOM     15  C   UNL     1     -11.749  -7.687  15.998  0.00  0.00    +0.019 C 
ATOM     16  C   UNL     1     -12.492  -8.821  16.726  0.00  0.00    +0.085 C 
ENDROOT
BRANCH  11  17
ATOM     17  C   UNL     1      -8.972  -9.931  14.511  0.00  0.00    +0.089 C 
BRANCH  17   7
ATOM      7  N   UNL     1      -8.707  -9.395  13.177  0.00  0.00    -0.299 NA
ATOM      9  N   UNL     1      -7.941  -9.503  10.427  0.00  0.00    -0.327 N 
ATOM     19  C   UNL     1      -9.587 -10.025  12.184  0.00  0.00    +0.103 C 
ATOM     20  C   UNL     1      -7.302  -9.607  12.806  0.00  0.00    +0.103 C 
ATOM     21  C   UNL     1      -9.359  -9.431  10.792  0.00  0.00    +0.120 C 
ATOM     22  C   UNL     1      -7.000  -8.999  11.434  0.00  0.00    +0.120 C 
BRANCH   9  24
ATOM      1  F   UNL     1      -6.460  -9.222   5.108  0.00  0.00    -0.205 F 
ATOM     24  C   UNL     1      -7.566  -9.431   9.081  0.00  0.00    +0.030 A 
ATOM     26  C   UNL     1      -6.585 -10.289   8.584  0.00  0.00    +0.026 A 
ATOM     27  C   UNL     1      -8.174  -8.502   8.236  0.00  0.00    +0.026 A 
ATOM     30  C   UNL     1      -6.212 -10.219   7.242  0.00  0.00    +0.040 A 
ATOM     31  C   UNL     1      -7.800  -8.432   6.893  0.00  0.00    +0.040 A 
ATOM     32  C   UNL     1      -6.819  -9.290   6.397  0.00  0.00    +0.124 A 
ENDBRANCH   9  24
ENDBRANCH  17   7
ENDBRANCH  11  17
BRANCH  12  18
ATOM     18  C   UNL     1      -9.638 -10.264  18.744  0.00  0.00    +0.123 C 
BRANCH  18   8
ATOM      5  O   UNL     1      -7.127 -10.669  20.076  0.00  0.00    -0.270 OA
ATOM      8  N   UNL     1      -8.336 -10.410  18.115  0.00  0.00    -0.310 N 
ATOM     23  C   UNL     1      -7.182 -10.602  18.852  0.00  0.00    +0.244 C 
ATOM     37  H   UNL     1      -8.302 -10.297  17.108  0.00  0.00    +0.149 HD
BRANCH  23  25
ATOM     25  C   UNL     1      -5.928 -10.707  18.061  0.00  0.00    +0.037 A 
ATOM     28  C   UNL     1      -5.847 -10.116  16.801  0.00  0.00    +0.013 A 
ATOM     29  C   UNL     1      -4.833 -11.397  18.581  0.00  0.00    +0.013 A 
ATOM     33  C   UNL     1      -4.670 -10.215  16.059  0.00  0.00    +0.013 A 
ATOM     34  C   UNL     1      -3.657 -11.497  17.839  0.00  0.00    +0.013 A 
ATOM     35  C   UNL     1      -3.574 -10.905  16.577  0.00  0.00    +0.055 A 
BRANCH  35  36
ATOM      2  F   UNL     1      -2.235 -10.068  14.802  0.00  0.00    -0.166 F 
ATOM      3  F   UNL     1      -1.184 -10.861  16.531  0.00  0.00    -0.166 F 
ATOM      4  F   UNL     1      -2.169 -12.213  15.151  0.00  0.00    -0.166 F 
ATOM     36  C   UNL     1      -2.316 -11.011  15.784  0.00  0.00    +0.417 C 
ENDBRANCH  35  36
ENDBRANCH  23  25
ENDBRANCH  18   8
ENDBRANCH  12  18
TORSDOF 7
ENDMDL
MODEL 10
REMARK VINA RESULT:      -6.9     27.252     31.662
REMARK  Name = 40776861
REMARK  7 active torsions:
REMARK  status: ('A' for Active; 'I' for Inactive)
REMARK    1  A    between atoms: N_7  and  C_17
REMARK    2  A    between atoms: N_8  and  C_18
REMARK    3  A    between atoms: N_9  and  C_24
REMARK    4  A    between atoms: C_11  and  C_17
REMARK    5  A    between atoms: C_12  and  C_18
REMARK    6  A    between atoms: C_23  and  C_25
REMARK    7  A    between atoms: C_35  and  C_36
REMARK                            x       y       z     vdW  Elec       q    Type
REMARK                         _______ _______ _______ _____ _____    ______ ____
ROOT
ATOM      6  N   UNL     1     -12.632   8.475  32.190  0.00  0.00    -0.298 NA
ATOM     10  C   UNL     1     -13.096  10.793  33.276  0.00  0.00    -0.003 C 
ATOM     11  C   UNL     1     -11.626  10.367  33.492  0.00  0.00    +0.020 C 
ATOM     12  C   UNL     1     -13.821   8.391  33.080  0.00  0.00    +0.074 C 
ATOM     13  C   UNL     1     -14.030   9.714  33.852  0.00  0.00    +0.024 C 
ATOM     14  C   UNL     1     -11.446   8.929  32.957  0.00  0.00    +0.089 C 
ATOM     15  C   UNL     1     -13.331  10.834  31.754  0.00  0.00    +0.019 C 
ATOM     16  C   UNL     1     -12.918   9.484  31.140  0.00  0.00    +0.085 C 
ENDROOT
BRANCH  11  17
ATOM     17  C   UNL     1     -11.171  10.488  34.944  0.00  0.00    +0.089 C 
BRANCH  17   7
ATOM      7  N   UNL     1      -9.820   9.955  35.115  0.00  0.00    -0.299 NA
ATOM      9  N   UNL     1      -7.246   9.714  36.328  0.00  0.00    -0.327 N 
ATOM     19  C   UNL     1      -9.676   9.329  36.435  0.00  0.00    +0.103 C 
ATOM     20  C   UNL     1      -8.822  11.020  34.955  0.00  0.00    +0.103 C 
ATOM     21  C   UNL     1      -8.283   8.717  36.605  0.00  0.00    +0.120 C 
ATOM     22  C   UNL     1      -7.402  10.463  35.075  0.00  0.00    +0.120 C 
BRANCH   9  24
ATOM      1  F   UNL     1      -2.130   8.971  38.288  0.00  0.00    -0.205 F 
ATOM     24  C   UNL     1      -5.951   9.525  36.824  0.00  0.00    +0.030 A 
ATOM     26  C   UNL     1      -4.849   9.910  36.061  0.00  0.00    +0.026 A 
ATOM     27  C   UNL     1      -5.762   8.953  38.083  0.00  0.00    +0.026 A 
ATOM     30  C   UNL     1      -3.558   9.724  36.556  0.00  0.00    +0.040 A 
ATOM     31  C   UNL     1      -4.471   8.766  38.577  0.00  0.00    +0.040 A 
ATOM     32  C   UNL     1      -3.370   9.151  37.814  0.00  0.00    +0.124 A 
ENDBRANCH   9  24
ENDBRANCH  17   7
ENDBRANCH  11  17
BRANCH  12  18
ATOM     18  C   UNL     1     -13.762   7.186  34.022  0.00  0.00    +0.123 C 
BRANCH  18   8
ATOM      5  O   UNL     1     -14.138   4.560  35.120  0.00  0.00    -0.270 OA
ATOM      8  N   UNL     1     -13.883   5.944  33.278  0.00  0.00    -0.310 N 
ATOM     23  C   UNL     1     -14.062   4.726  33.906  0.00  0.00    +0.244 C 
ATOM     37  H   UNL     1     -13.761   6.003  32.274  0.00  0.00    +0.149 HD
BRANCH  23  25
ATOM     25  C   UNL     1     -14.141   3.547  33.006  0.00  0.00    +0.037 A 
ATOM     28  C   UNL     1     -14.720   2.362  33.459  0.00  0.00    +0.013 A 
ATOM     29  C   UNL     1     -13.634   3.626  31.709  0.00  0.00    +0.013 A 
ATOM     33  C   UNL     1     -14.793   1.254  32.613  0.00  0.00    +0.013 A 
ATOM     34  C   UNL     1     -13.707   2.519  30.864  0.00  0.00    +0.013 A 
ATOM     35  C   UNL     1     -14.287   1.332  31.316  0.00  0.00    +0.055 A 
BRANCH  35  36
ATOM      2  F   UNL     1     -14.942   0.444  29.211  0.00  0.00    -0.166 F 
ATOM      3  F   UNL     1     -13.149  -0.392  30.111  0.00  0.00    -0.166 F 
ATOM      4  F   UNL     1     -15.098  -0.884  30.926  0.00  0.00    -0.166 F 
ATOM     36  C   UNL     1     -14.366   0.148  30.412  0.00  0.00    +0.417 C 
ENDBRANCH  35  36
ENDBRANCH  23  25
ENDBRANCH  18   8
ENDBRANCH  12  18
TORSDOF 7
ENDMDL
