MODEL 1
REMARK VINA RESULT:      -8.3      0.000      0.000
REMARK  Name = 11884045
REMARK  9 active torsions:
REMARK  status: ('A' for Active; 'I' for Inactive)
REMARK    1  A    between atoms: S_1  and  N_9
REMARK    2  A    between atoms: S_1  and  C_18
REMARK    3  A    between atoms: O_4  and  C_15
REMARK    4  A    between atoms: O_4  and  C_19
REMARK    5  A    between atoms: O_8  and  C_31
REMARK    6  A    between atoms: O_8  and  C_32
REMARK    7  A    between atoms: N_9  and  C_14
REMARK    8  A    between atoms: N_10  and  C_24
REMARK    9  A    between atoms: C_20  and  C_26
REMARK                            x       y       z     vdW  Elec       q    Type
REMARK                         _______ _______ _______ _____ _____    ______ ____
ROOT
ATOM      2  O   UNL     1     -16.972   5.020  25.216  0.00  0.00    -0.369 OA
ATOM      3  O   UNL     1     -16.666   2.053  24.463  0.00  0.00    -0.368 OA
ATOM     12  C   UNL     1     -15.927   2.895  25.371  0.00  0.00    +0.171 C 
ATOM     13  C   UNL     1     -15.847   4.268  24.733  0.00  0.00    +0.191 C 
ATOM     14  C   UNL     1     -16.729   3.124  26.628  0.00  0.00    +0.133 C 
ATOM     15  C   UNL     1     -15.973   3.953  23.262  0.00  0.00    +0.235 C 
ATOM     16  C   UNL     1     -17.644   4.270  26.240  0.00  0.00    +0.183 C 
ATOM     17  C   UNL     1     -16.945   2.795  23.267  0.00  0.00    +0.207 C 
ENDROOT
BRANCH  14   9
ATOM      9  N   UNL     1     -15.834   3.548  27.730  0.00  0.00    -0.182 NA
ATOM     38  H   UNL     1     -14.834   3.335  27.643  0.00  0.00    +0.148 HD
BRANCH   9   1
ATOM      1  S   UNL     1     -16.494   4.009  29.226  0.00  0.00    +0.060 S 
ATOM      5  O   UNL     1     -17.694   3.236  29.482  0.00  0.00    -0.153 OA
ATOM      6  O   UNL     1     -16.529   5.457  29.294  0.00  0.00    -0.153 OA
BRANCH   1  18
ATOM     18  C   UNL     1     -15.246   3.471  30.356  0.00  0.00    +0.123 A 
ATOM     20  C   UNL     1     -14.787   2.154  30.373  0.00  0.00    +0.078 A 
ATOM     21  C   UNL     1     -14.719   4.405  31.248  0.00  0.00    +0.030 A 
ATOM     22  C   UNL     1     -13.801   1.771  31.282  0.00  0.00    +0.021 A 
ATOM     23  C   UNL     1     -13.732   4.021  32.157  0.00  0.00    +0.002 A 
ATOM     25  C   UNL     1     -13.273   2.705  32.173  0.00  0.00    +0.001 A 
BRANCH  20  26
ATOM     11  N   UNL     1     -15.729   0.370  28.745  0.00  0.00    -0.191 NA
ATOM     26  C   UNL     1     -15.307   1.169  29.474  0.00  0.00    +0.101 C 
ENDBRANCH  20  26
ENDBRANCH   1  18
ENDBRANCH   9   1
ENDBRANCH  14   9
BRANCH  15   4
ATOM      4  O   UNL     1     -16.444   5.038  22.494  0.00  0.00    -0.442 OA
BRANCH   4  19
ATOM      7  O   UNL     1     -15.741   5.289  20.332  0.00  0.00    -0.226 OA
ATOM     10  N   UNL     1     -14.613   6.300  22.117  0.00  0.00    -0.251 N 
ATOM     19  C   UNL     1     -15.595   5.530  21.524  0.00  0.00    +0.405 C 
ATOM     39  H   UNL     1     -14.659   6.385  23.129  0.00  0.00    +0.158 HD
BRANCH  10  24
ATOM     24  C   UNL     1     -13.548   6.986  21.490  0.00  0.00    +0.037 A 
ATOM     27  C   UNL     1     -12.344   6.327  21.243  0.00  0.00    +0.027 A 
ATOM     28  C   UNL     1     -13.700   8.323  21.121  0.00  0.00    +0.027 A 
ATOM     29  C   UNL     1     -11.292   7.004  20.626  0.00  0.00    +0.048 A 
ATOM     30  C   UNL     1     -12.648   9.000  20.504  0.00  0.00    +0.048 A 
ATOM     31  C   UNL     1     -11.444   8.341  20.257  0.00  0.00    +0.129 A 
BRANCH  31   8
ATOM      8  O   UNL     1     -10.418   9.001  19.656  0.00  0.00    -0.456 OA
BRANCH   8  32
ATOM     32  C   UNL     1     -10.492   9.195  18.286  0.00  0.00    +0.128 A 
ATOM     33  C   UNL     1     -10.412  10.484  17.760  0.00  0.00    +0.046 A 
ATOM     34  C   UNL     1     -10.643   8.101  17.433  0.00  0.00    +0.046 A 
ATOM     35  C   UNL     1     -10.486  10.680  16.380  0.00  0.00    +0.004 A 
ATOM     36  C   UNL     1     -10.717   8.298  16.055  0.00  0.00    +0.004 A 
ATOM     37  C   UNL     1     -10.639   9.586  15.528  0.00  0.00    +0.000 A 
ENDBRANCH   8  32
ENDBRANCH  31   8
ENDBRANCH  10  24
ENDBRANCH   4  19
ENDBRANCH  15   4
TORSDOF 9
ENDMDL
MODEL 2
REMARK VINA RESULT:      -7.4     18.988     20.803
REMARK  Name = 11884045
REMARK  9 active torsions:
REMARK  status: ('A' for Active; 'I' for Inactive)
REMARK    1  A    between atoms: S_1  and  N_9
REMARK    2  A    between atoms: S_1  and  C_18
REMARK    3  A    between atoms: O_4  and  C_15
REMARK    4  A    between atoms: O_4  and  C_19
REMARK    5  A    between atoms: O_8  and  C_31
REMARK    6  A    between atoms: O_8  and  C_32
REMARK    7  A    between atoms: N_9  and  C_14
REMARK    8  A    between atoms: N_10  and  C_24
REMARK    9  A    between atoms: C_20  and  C_26
REMARK                            x       y       z     vdW  Elec       q    Type
REMARK                         _______ _______ _______ _____ _____    ______ ____
ROOT
ATOM      2  O   UNL     1      -4.100 -11.900  14.627  0.00  0.00    -0.369 OA
ATOM      3  O   UNL     1      -1.945 -10.905  16.584  0.00  0.00    -0.368 OA
ATOM     12  C   UNL     1      -3.289 -10.449  16.320  0.00  0.00    +0.171 C 
ATOM     13  C   UNL     1      -3.521 -10.601  14.830  0.00  0.00    +0.191 C 
ATOM     14  C   UNL     1      -4.284 -11.396  16.942  0.00  0.00    +0.133 C 
ATOM     15  C   UNL     1      -2.121 -10.519  14.270  0.00  0.00    +0.235 C 
ATOM     16  C   UNL     1      -4.404 -12.491  15.900  0.00  0.00    +0.183 C 
ATOM     17  C   UNL     1      -1.310 -11.220  15.337  0.00  0.00    +0.207 C 
ENDROOT
BRANCH  14   9
ATOM      9  N   UNL     1      -5.592 -10.718  17.110  0.00  0.00    -0.182 NA
ATOM     38  H   UNL     1      -5.727  -9.817  16.637  0.00  0.00    +0.148 HD
BRANCH   9   1
ATOM      1  S   UNL     1      -6.655 -11.223  18.334  0.00  0.00    +0.060 S 
ATOM      5  O   UNL     1      -6.131 -10.818  19.625  0.00  0.00    -0.153 OA
ATOM      6  O   UNL     1      -7.020 -12.606  18.095  0.00  0.00    -0.153 OA
BRANCH   1  18
ATOM     18  C   UNL     1      -8.089 -10.246  17.996  0.00  0.00    +0.123 A 
ATOM     20  C   UNL     1      -9.295 -10.451  18.667  0.00  0.00    +0.078 A 
ATOM     21  C   UNL     1      -7.991  -9.248  17.027  0.00  0.00    +0.030 A 
ATOM     22  C   UNL     1     -10.402  -9.658  18.370  0.00  0.00    +0.021 A 
ATOM     23  C   UNL     1      -9.100  -8.454  16.729  0.00  0.00    +0.002 A 
ATOM     25  C   UNL     1     -10.304  -8.659  17.401  0.00  0.00    +0.001 A 
BRANCH  20  26
ATOM     11  N   UNL     1      -9.542 -12.292  20.476  0.00  0.00    -0.191 NA
ATOM     26  C   UNL     1      -9.431 -11.468  19.666  0.00  0.00    +0.101 C 
ENDBRANCH  20  26
ENDBRANCH   1  18
ENDBRANCH   9   1
ENDBRANCH  14   9
BRANCH  15   4
ATOM      4  O   UNL     1      -1.982 -11.134  13.009  0.00  0.00    -0.442 OA
BRANCH   4  19
ATOM      7  O   UNL     1      -1.663  -9.710  11.247  0.00  0.00    -0.226 OA
ATOM     10  N   UNL     1      -3.765 -10.626  11.723  0.00  0.00    -0.251 N 
ATOM     19  C   UNL     1      -2.413 -10.413  11.914  0.00  0.00    +0.405 C 
ATOM     39  H   UNL     1      -4.220 -11.249  12.385  0.00  0.00    +0.158 HD
BRANCH  10  24
ATOM     24  C   UNL     1      -4.598 -10.081  10.720  0.00  0.00    +0.037 A 
ATOM     27  C   UNL     1      -4.849  -8.710  10.691  0.00  0.00    +0.027 A 
ATOM     28  C   UNL     1      -5.172 -10.916   9.761  0.00  0.00    +0.027 A 
ATOM     29  C   UNL     1      -5.673  -8.172   9.702  0.00  0.00    +0.048 A 
ATOM     30  C   UNL     1      -5.996 -10.379   8.772  0.00  0.00    +0.048 A 
ATOM     31  C   UNL     1      -6.247  -9.007   8.742  0.00  0.00    +0.129 A 
BRANCH  31   8
ATOM      8  O   UNL     1      -7.050  -8.483   7.778  0.00  0.00    -0.456 OA
BRANCH   8  32
ATOM     32  C   UNL     1      -8.135  -7.723   8.187  0.00  0.00    +0.128 A 
ATOM     33  C   UNL     1      -9.212  -8.335   8.828  0.00  0.00    +0.046 A 
ATOM     34  C   UNL     1      -8.149  -6.347   7.958  0.00  0.00    +0.046 A 
ATOM     35  C   UNL     1     -10.304  -7.571   9.240  0.00  0.00    +0.004 A 
ATOM     36  C   UNL     1      -9.240  -5.584   8.370  0.00  0.00    +0.004 A 
ATOM     37  C   UNL     1     -10.318  -6.194   9.010  0.00  0.00    +0.000 A 
ENDBRANCH   8  32
ENDBRANCH  31   8
ENDBRANCH  10  24
ENDBRANCH   4  19
ENDBRANCH  15   4
TORSDOF 9
ENDMDL
MODEL 3
REMARK VINA RESULT:      -7.2     18.334     20.732
REMARK  Name = 11884045
REMARK  9 active torsions:
REMARK  status: ('A' for Active; 'I' for Inactive)
REMARK    1  A    between atoms: S_1  and  N_9
REMARK    2  A    between atoms: S_1  and  C_18
REMARK    3  A    between atoms: O_4  and  C_15
REMARK    4  A    between atoms: O_4  and  C_19
REMARK    5  A    between atoms: O_8  and  C_31
REMARK    6  A    between atoms: O_8  and  C_32
REMARK    7  A    between atoms: N_9  and  C_14
REMARK    8  A    between atoms: N_10  and  C_24
REMARK    9  A    between atoms: C_20  and  C_26
REMARK                            x       y       z     vdW  Elec       q    Type
REMARK                         _______ _______ _______ _____ _____    ______ ____
ROOT
ATOM      2  O   UNL     1      -5.492  -9.984  16.492  0.00  0.00    -0.369 OA
ATOM      3  O   UNL     1      -5.138 -12.516  18.202  0.00  0.00    -0.368 OA
ATOM     12  C   UNL     1      -5.306 -12.332  16.781  0.00  0.00    +0.171 C 
ATOM     13  C   UNL     1      -6.277 -11.183  16.598  0.00  0.00    +0.191 C 
ATOM     14  C   UNL     1      -4.023 -11.825  16.172  0.00  0.00    +0.133 C 
ATOM     15  C   UNL     1      -7.073 -11.218  17.881  0.00  0.00    +0.235 C 
ATOM     16  C   UNL     1      -4.100 -10.330  16.420  0.00  0.00    +0.183 C 
ATOM     17  C   UNL     1      -6.026 -11.626  18.893  0.00  0.00    +0.207 C 
ENDROOT
BRANCH  14   9
ATOM      9  N   UNL     1      -4.013 -12.091  14.715  0.00  0.00    -0.182 NA
ATOM     38  H   UNL     1      -4.899 -12.359  14.272  0.00  0.00    +0.148 HD
BRANCH   9   1
ATOM      1  S   UNL     1      -2.536 -12.320  13.907  0.00  0.00    +0.060 S 
ATOM      5  O   UNL     1      -2.470 -13.676  13.398  0.00  0.00    -0.153 OA
ATOM      6  O   UNL     1      -1.466 -11.796  14.733  0.00  0.00    -0.153 OA
BRANCH   1  18
ATOM     18  C   UNL     1      -2.704 -11.227  12.527  0.00  0.00    +0.123 A 
ATOM     20  C   UNL     1      -3.831 -11.245  11.705  0.00  0.00    +0.078 A 
ATOM     21  C   UNL     1      -1.667 -10.329  12.270  0.00  0.00    +0.030 A 
ATOM     22  C   UNL     1      -3.922 -10.366  10.627  0.00  0.00    +0.021 A 
ATOM     23  C   UNL     1      -1.759  -9.449  11.191  0.00  0.00    +0.002 A 
ATOM     25  C   UNL     1      -2.886  -9.468  10.370  0.00  0.00    +0.001 A 
BRANCH  20  26
ATOM     11  N   UNL     1      -5.787 -12.893  12.128  0.00  0.00    -0.191 NA
ATOM     26  C   UNL     1      -4.911 -12.155  11.939  0.00  0.00    +0.101 C 
ENDBRANCH  20  26
ENDBRANCH   1  18
ENDBRANCH   9   1
ENDBRANCH  14   9
BRANCH  15   4
ATOM      4  O   UNL     1      -7.671  -9.984  18.206  0.00  0.00    -0.442 OA
BRANCH   4  19
ATOM      7  O   UNL     1      -9.909 -10.406  17.992  0.00  0.00    -0.226 OA
ATOM     10  N   UNL     1      -8.866  -8.677  16.807  0.00  0.00    -0.251 N 
ATOM     19  C   UNL     1      -8.926  -9.743  17.684  0.00  0.00    +0.405 C 
ATOM     39  H   UNL     1      -7.952  -8.249  16.682  0.00  0.00    +0.158 HD
BRANCH  10  24
ATOM     24  C   UNL     1      -9.920  -8.105  16.059  0.00  0.00    +0.037 A 
ATOM     27  C   UNL     1     -10.396  -8.752  14.919  0.00  0.00    +0.027 A 
ATOM     28  C   UNL     1     -10.481  -6.892  16.460  0.00  0.00    +0.027 A 
ATOM     29  C   UNL     1     -11.435  -8.187  14.180  0.00  0.00    +0.048 A 
ATOM     30  C   UNL     1     -11.520  -6.327  15.720  0.00  0.00    +0.048 A 
ATOM     31  C   UNL     1     -11.997  -6.974  14.580  0.00  0.00    +0.129 A 
BRANCH  31   8
ATOM      8  O   UNL     1     -13.010  -6.423  13.858  0.00  0.00    -0.456 OA
BRANCH   8  32
ATOM     32  C   UNL     1     -12.671  -5.564  12.825  0.00  0.00    +0.128 A 
ATOM     33  C   UNL     1     -12.565  -4.195  13.064  0.00  0.00    +0.046 A 
ATOM     34  C   UNL     1     -12.435  -6.070  11.546  0.00  0.00    +0.046 A 
ATOM     35  C   UNL     1     -12.224  -3.329  12.024  0.00  0.00    +0.004 A 
ATOM     36  C   UNL     1     -12.094  -5.205  10.507  0.00  0.00    +0.004 A 
ATOM     37  C   UNL     1     -11.989  -3.835  10.745  0.00  0.00    +0.000 A 
ENDBRANCH   8  32
ENDBRANCH  31   8
ENDBRANCH  10  24
ENDBRANCH   4  19
ENDBRANCH  15   4
TORSDOF 9
ENDMDL
MODEL 4
REMARK VINA RESULT:      -7.0      1.511      2.061
REMARK  Name = 11884045
REMARK  9 active torsions:
REMARK  status: ('A' for Active; 'I' for Inactive)
REMARK    1  A    between atoms: S_1  and  N_9
REMARK    2  A    between atoms: S_1  and  C_18
REMARK    3  A    between atoms: O_4  and  C_15
REMARK    4  A    between atoms: O_4  and  C_19
REMARK    5  A    between atoms: O_8  and  C_31
REMARK    6  A    between atoms: O_8  and  C_32
REMARK    7  A    between atoms: N_9  and  C_14
REMARK    8  A    between atoms: N_10  and  C_24
REMARK    9  A    between atoms: C_20  and  C_26
REMARK                            x       y       z     vdW  Elec       q    Type
REMARK                         _______ _______ _______ _____ _____    ______ ____
ROOT
ATOM      2  O   UNL     1     -17.316   5.726  25.977  0.00  0.00    -0.369 OA
ATOM      3  O   UNL     1     -18.107   3.415  24.108  0.00  0.00    -0.368 OA
ATOM     12  C   UNL     1     -17.027   3.560  25.054  0.00  0.00    +0.171 C 
ATOM     13  C   UNL     1     -16.570   5.003  24.984  0.00  0.00    +0.191 C 
ATOM     14  C   UNL     1     -17.552   3.411  26.460  0.00  0.00    +0.133 C 
ATOM     15  C   UNL     1     -16.968   5.406  23.583  0.00  0.00    +0.235 C 
ATOM     16  C   UNL     1     -18.072   4.801  26.774  0.00  0.00    +0.183 C 
ATOM     17  C   UNL     1     -18.263   4.648  23.391  0.00  0.00    +0.207 C 
ENDROOT
BRANCH  14   9
ATOM      9  N   UNL     1     -16.442   3.071  27.381  0.00  0.00    -0.182 NA
ATOM     38  H   UNL     1     -15.530   3.509  27.213  0.00  0.00    +0.148 HD
BRANCH   9   1
ATOM      1  S   UNL     1     -16.583   1.730  28.415  0.00  0.00    +0.060 S 
ATOM      5  O   UNL     1     -16.002   0.565  27.775  0.00  0.00    -0.153 OA
ATOM      6  O   UNL     1     -17.935   1.681  28.935  0.00  0.00    -0.153 OA
BRANCH   1  18
ATOM     18  C   UNL     1     -15.532   2.196  29.759  0.00  0.00    +0.123 A 
ATOM     20  C   UNL     1     -15.139   1.282  30.736  0.00  0.00    +0.078 A 
ATOM     21  C   UNL     1     -15.095   3.519  29.825  0.00  0.00    +0.030 A 
ATOM     22  C   UNL     1     -14.309   1.691  31.780  0.00  0.00    +0.021 A 
ATOM     23  C   UNL     1     -14.265   3.928  30.869  0.00  0.00    +0.002 A 
ATOM     25  C   UNL     1     -13.872   3.014  31.845  0.00  0.00    +0.001 A 
BRANCH  20  26
ATOM     11  N   UNL     1     -15.919  -1.190  30.673  0.00  0.00    -0.191 NA
ATOM     26  C   UNL     1     -15.569  -0.083  30.701  0.00  0.00    +0.101 C 
ENDBRANCH  20  26
ENDBRANCH   1  18
ENDBRANCH   9   1
ENDBRANCH  14   9
BRANCH  15   4
ATOM      4  O   UNL     1     -17.139   6.796  23.425  0.00  0.00    -0.442 OA
BRANCH   4  19
ATOM      7  O   UNL     1     -15.762   8.604  23.686  0.00  0.00    -0.226 OA
ATOM     10  N   UNL     1     -15.254   6.878  22.187  0.00  0.00    -0.251 N 
ATOM     19  C   UNL     1     -16.008   7.535  23.141  0.00  0.00    +0.405 C 
ATOM     39  H   UNL     1     -15.626   5.993  21.852  0.00  0.00    +0.158 HD
BRANCH  10  24
ATOM     24  C   UNL     1     -14.028   7.285  21.616  0.00  0.00    +0.037 A 
ATOM     27  C   UNL     1     -13.803   8.633  21.336  0.00  0.00    +0.027 A 
ATOM     28  C   UNL     1     -13.043   6.339  21.329  0.00  0.00    +0.027 A 
ATOM     29  C   UNL     1     -12.592   9.035  20.771  0.00  0.00    +0.048 A 
ATOM     30  C   UNL     1     -11.833   6.741  20.764  0.00  0.00    +0.048 A 
ATOM     31  C   UNL     1     -11.608   8.089  20.484  0.00  0.00    +0.129 A 
BRANCH  31   8
ATOM      8  O   UNL     1     -10.428   8.481  19.933  0.00  0.00    -0.456 OA
BRANCH   8  32
ATOM     32  C   UNL     1     -10.473   9.129  18.708  0.00  0.00    +0.128 A 
ATOM     33  C   UNL     1     -10.563   8.387  17.531  0.00  0.00    +0.046 A 
ATOM     34  C   UNL     1     -10.431  10.522  18.654  0.00  0.00    +0.046 A 
ATOM     35  C   UNL     1     -10.609   9.039  16.298  0.00  0.00    +0.004 A 
ATOM     36  C   UNL     1     -10.477  11.173  17.422  0.00  0.00    +0.004 A 
ATOM     37  C   UNL     1     -10.566  10.432  16.244  0.00  0.00    +0.000 A 
ENDBRANCH   8  32
ENDBRANCH  31   8
ENDBRANCH  10  24
ENDBRANCH   4  19
ENDBRANCH  15   4
TORSDOF 9
ENDMDL
MODEL 5
REMARK VINA RESULT:      -7.0      2.826      5.028
REMARK  Name = 11884045
REMARK  9 active torsions:
REMARK  status: ('A' for Active; 'I' for Inactive)
REMARK    1  A    between atoms: S_1  and  N_9
REMARK    2  A    between atoms: S_1  and  C_18
REMARK    3  A    between atoms: O_4  and  C_15
REMARK    4  A    between atoms: O_4  and  C_19
REMARK    5  A    between atoms: O_8  and  C_31
REMARK    6  A    between atoms: O_8  and  C_32
REMARK    7  A    between atoms: N_9  and  C_14
REMARK    8  A    between atoms: N_10  and  C_24
REMARK    9  A    between atoms: C_20  and  C_26
REMARK                            x       y       z     vdW  Elec       q    Type
REMARK                         _______ _______ _______ _____ _____    ______ ____
ROOT
ATOM      2  O   UNL     1     -16.949   4.062  29.530  0.00  0.00    -0.369 OA
ATOM      3  O   UNL     1     -15.265   1.517  29.921  0.00  0.00    -0.368 OA
ATOM     12  C   UNL     1     -14.987   2.906  30.197  0.00  0.00    +0.171 C 
ATOM     13  C   UNL     1     -15.627   3.713  29.085  0.00  0.00    +0.191 C 
ATOM     14  C   UNL     1     -15.727   3.342  31.437  0.00  0.00    +0.133 C 
ATOM     15  C   UNL     1     -15.664   2.726  27.943  0.00  0.00    +0.235 C 
ATOM     16  C   UNL     1     -17.107   3.679  30.905  0.00  0.00    +0.183 C 
ATOM     17  C   UNL     1     -15.939   1.422  28.658  0.00  0.00    +0.207 C 
ENDROOT
BRANCH  14   9
ATOM      9  N   UNL     1     -15.097   4.559  32.001  0.00  0.00    -0.182 NA
ATOM     38  H   UNL     1     -14.379   5.030  31.439  0.00  0.00    +0.148 HD
BRANCH   9   1
ATOM      1  S   UNL     1     -15.279   4.918  33.651  0.00  0.00    +0.060 S 
ATOM      5  O   UNL     1     -14.560   3.936  34.441  0.00  0.00    -0.153 OA
ATOM      6  O   UNL     1     -16.678   5.189  33.918  0.00  0.00    -0.153 OA
BRANCH   1  18
ATOM     18  C   UNL     1     -14.422   6.459  33.785  0.00  0.00    +0.123 A 
ATOM     20  C   UNL     1     -14.593   7.480  32.851  0.00  0.00    +0.078 A 
ATOM     21  C   UNL     1     -13.554   6.637  34.863  0.00  0.00    +0.030 A 
ATOM     22  C   UNL     1     -13.897   8.680  32.995  0.00  0.00    +0.021 A 
ATOM     23  C   UNL     1     -12.858   7.838  35.006  0.00  0.00    +0.002 A 
ATOM     25  C   UNL     1     -13.030   8.858  34.072  0.00  0.00    +0.001 A 
BRANCH  20  26
ATOM     11  N   UNL     1     -16.188   7.208  30.825  0.00  0.00    -0.191 NA
ATOM     26  C   UNL     1     -15.474   7.331  31.733  0.00  0.00    +0.101 C 
ENDBRANCH  20  26
ENDBRANCH   1  18
ENDBRANCH   9   1
ENDBRANCH  14   9
BRANCH  15   4
ATOM      4  O   UNL     1     -16.649   3.019  26.978  0.00  0.00    -0.442 OA
BRANCH   4  19
ATOM      7  O   UNL     1     -16.090   2.109  24.955  0.00  0.00    -0.226 OA
ATOM     10  N   UNL     1     -16.019   4.420  25.325  0.00  0.00    -0.251 N 
ATOM     19  C   UNL     1     -16.231   3.098  25.665  0.00  0.00    +0.405 C 
ATOM     39  H   UNL     1     -16.192   5.105  26.057  0.00  0.00    +0.158 HD
BRANCH  10  24
ATOM     24  C   UNL     1     -15.588   4.942  24.085  0.00  0.00    +0.037 A 
ATOM     27  C   UNL     1     -16.488   5.621  23.264  0.00  0.00    +0.027 A 
ATOM     28  C   UNL     1     -14.263   4.775  23.681  0.00  0.00    +0.027 A 
ATOM     29  C   UNL     1     -16.063   6.135  22.039  0.00  0.00    +0.048 A 
ATOM     30  C   UNL     1     -13.838   5.289  22.456  0.00  0.00    +0.048 A 
ATOM     31  C   UNL     1     -14.738   5.968  21.634  0.00  0.00    +0.129 A 
BRANCH  31   8
ATOM      8  O   UNL     1     -14.324   6.469  20.439  0.00  0.00    -0.456 OA
BRANCH   8  32
ATOM     32  C   UNL     1     -13.390   7.492  20.458  0.00  0.00    +0.128 A 
ATOM     33  C   UNL     1     -13.675   8.684  21.124  0.00  0.00    +0.046 A 
ATOM     34  C   UNL     1     -12.164   7.330  19.813  0.00  0.00    +0.046 A 
ATOM     35  C   UNL     1     -12.735   9.715  21.144  0.00  0.00    +0.004 A 
ATOM     36  C   UNL     1     -11.224   8.359  19.833  0.00  0.00    +0.004 A 
ATOM     37  C   UNL     1     -11.509   9.552  20.497  0.00  0.00    +0.000 A 
ENDBRANCH   8  32
ENDBRANCH  31   8
ENDBRANCH  10  24
ENDBRANCH   4  19
ENDBRANCH  15   4
TORSDOF 9
ENDMDL
MODEL 6
REMARK VINA RESULT:      -7.0     29.129     35.108
REMARK  Name = 11884045
REMARK  9 active torsions:
REMARK  status: ('A' for Active; 'I' for Inactive)
REMARK    1  A    between atoms: S_1  and  N_9
REMARK    2  A    between atoms: S_1  and  C_18
REMARK    3  A    between atoms: O_4  and  C_15
REMARK    4  A    between atoms: O_4  and  C_19
REMARK    5  A    between atoms: O_8  and  C_31
REMARK    6  A    between atoms: O_8  and  C_32
REMARK    7  A    between atoms: N_9  and  C_14
REMARK    8  A    between atoms: N_10  and  C_24
REMARK    9  A    between atoms: C_20  and  C_26
REMARK                            x       y       z     vdW  Elec       q    Type
REMARK                         _______ _______ _______ _____ _____    ______ ____
ROOT
ATOM      2  O   UNL     1      12.173   6.137   1.740  0.00  0.00    -0.369 OA
ATOM      3  O   UNL     1      10.279   3.855   0.923  0.00  0.00    -0.368 OA
ATOM     12  C   UNL     1      10.907   4.179   2.181  0.00  0.00    +0.171 C 
ATOM     13  C   UNL     1      12.290   4.709   1.860  0.00  0.00    +0.191 C 
ATOM     14  C   UNL     1      10.205   5.353   2.818  0.00  0.00    +0.133 C 
ATOM     15  C   UNL     1      12.589   4.060   0.530  0.00  0.00    +0.235 C 
ATOM     16  C   UNL     1      10.854   6.543   2.137  0.00  0.00    +0.183 C 
ATOM     17  C   UNL     1      11.230   4.051  -0.133  0.00  0.00    +0.207 C 
ENDROOT
BRANCH  14   9
ATOM      9  N   UNL     1      10.494   5.388   4.271  0.00  0.00    -0.182 NA
ATOM     38  H   UNL     1      10.815   4.521   4.716  0.00  0.00    +0.148 HD
BRANCH   9   1
ATOM      1  S   UNL     1       9.946   6.693   5.211  0.00  0.00    +0.060 S 
ATOM      5  O   UNL     1       8.645   7.120   4.731  0.00  0.00    -0.153 OA
ATOM      6  O   UNL     1      11.023   7.652   5.353  0.00  0.00    -0.153 OA
BRANCH   1  18
ATOM     18  C   UNL     1       9.721   5.933   6.792  0.00  0.00    +0.123 A 
ATOM     20  C   UNL     1       9.394   6.676   7.926  0.00  0.00    +0.078 A 
ATOM     21  C   UNL     1       9.881   4.550   6.885  0.00  0.00    +0.030 A 
ATOM     22  C   UNL     1       9.226   6.036   9.154  0.00  0.00    +0.021 A 
ATOM     23  C   UNL     1       9.713   3.910   8.114  0.00  0.00    +0.002 A 
ATOM     25  C   UNL     1       9.385   4.654   9.247  0.00  0.00    +0.001 A 
BRANCH  20  26
ATOM     11  N   UNL     1       9.088   9.248   7.817  0.00  0.00    -0.191 NA
ATOM     26  C   UNL     1       9.225   8.096   7.866  0.00  0.00    +0.101 C 
ENDBRANCH  20  26
ENDBRANCH   1  18
ENDBRANCH   9   1
ENDBRANCH  14   9
BRANCH  15   4
ATOM      4  O   UNL     1      13.547   4.757  -0.234  0.00  0.00    -0.442 OA
BRANCH   4  19
ATOM      7  O   UNL     1      15.530   4.130   0.719  0.00  0.00    -0.226 OA
ATOM     10  N   UNL     1      14.926   6.382   0.507  0.00  0.00    -0.251 N 
ATOM     19  C   UNL     1      14.759   5.017   0.374  0.00  0.00    +0.405 C 
ATOM     39  H   UNL     1      14.169   6.964   0.155  0.00  0.00    +0.158 HD
BRANCH  10  24
ATOM     24  C   UNL     1      16.021   7.073   1.073  0.00  0.00    +0.037 A 
ATOM     27  C   UNL     1      17.211   7.199   0.357  0.00  0.00    +0.027 A 
ATOM     28  C   UNL     1      15.911   7.629   2.348  0.00  0.00    +0.027 A 
ATOM     29  C   UNL     1      18.293   7.880   0.916  0.00  0.00    +0.048 A 
ATOM     30  C   UNL     1      16.992   8.311   2.907  0.00  0.00    +0.048 A 
ATOM     31  C   UNL     1      18.183   8.436   2.191  0.00  0.00    +0.129 A 
BRANCH  31   8
ATOM      8  O   UNL     1      19.238   9.100   2.736  0.00  0.00    -0.456 OA
BRANCH   8  32
ATOM     32  C   UNL     1      19.853   8.535   3.842  0.00  0.00    +0.128 A 
ATOM     33  C   UNL     1      20.549   7.333   3.713  0.00  0.00    +0.046 A 
ATOM     34  C   UNL     1      19.777   9.168   5.082  0.00  0.00    +0.046 A 
ATOM     35  C   UNL     1      21.170   6.764   4.826  0.00  0.00    +0.004 A 
ATOM     36  C   UNL     1      20.398   8.599   6.194  0.00  0.00    +0.004 A 
ATOM     37  C   UNL     1      21.093   7.398   6.066  0.00  0.00    +0.000 A 
ENDBRANCH   8  32
ENDBRANCH  31   8
ENDBRANCH  10  24
ENDBRANCH   4  19
ENDBRANCH  15   4
TORSDOF 9
ENDMDL
MODEL 7
REMARK VINA RESULT:      -6.8     16.846     19.251
REMARK  Name = 11884045
REMARK  9 active torsions:
REMARK  status: ('A' for Active; 'I' for Inactive)
REMARK    1  A    between atoms: S_1  and  N_9
REMARK    2  A    between atoms: S_1  and  C_18
REMARK    3  A    between atoms: O_4  and  C_15
REMARK    4  A    between atoms: O_4  and  C_19
REMARK    5  A    between atoms: O_8  and  C_31
REMARK    6  A    between atoms: O_8  and  C_32
REMARK    7  A    between atoms: N_9  and  C_14
REMARK    8  A    between atoms: N_10  and  C_24
REMARK    9  A    between atoms: C_20  and  C_26
REMARK                            x       y       z     vdW  Elec       q    Type
REMARK                         _______ _______ _______ _____ _____    ______ ____
ROOT
ATOM      2  O   UNL     1     -10.327  -8.047  17.456  0.00  0.00    -0.369 OA
ATOM      3  O   UNL     1     -11.574 -10.433  15.969  0.00  0.00    -0.368 OA
ATOM     12  C   UNL     1     -12.126  -9.169  16.392  0.00  0.00    +0.171 C 
ATOM     13  C   UNL     1     -11.495  -8.838  17.729  0.00  0.00    +0.191 C 
ATOM     14  C   UNL     1     -11.647  -8.068  15.480  0.00  0.00    +0.133 C 
ATOM     15  C   UNL     1     -11.134 -10.202  18.268  0.00  0.00    +0.235 C 
ATOM     16  C   UNL     1     -10.289  -7.718  16.059  0.00  0.00    +0.183 C 
ATOM     17  C   UNL     1     -10.732 -10.943  17.013  0.00  0.00    +0.207 C 
ENDROOT
BRANCH  14   9
ATOM      9  N   UNL     1     -12.550  -6.898  15.580  0.00  0.00    -0.182 NA
ATOM     38  H   UNL     1     -12.397  -6.240  16.353  0.00  0.00    +0.148 HD
BRANCH   9   1
ATOM      1  S   UNL     1     -13.998  -6.869  14.693  0.00  0.00    +0.060 S 
ATOM      5  O   UNL     1     -15.090  -6.475  15.563  0.00  0.00    -0.153 OA
ATOM      6  O   UNL     1     -14.090  -8.086  13.910  0.00  0.00    -0.153 OA
BRANCH   1  18
ATOM     18  C   UNL     1     -13.703  -5.547  13.556  0.00  0.00    +0.123 A 
ATOM     20  C   UNL     1     -14.654  -5.159  12.614  0.00  0.00    +0.078 A 
ATOM     21  C   UNL     1     -12.475  -4.886  13.621  0.00  0.00    +0.030 A 
ATOM     22  C   UNL     1     -14.380  -4.111  11.736  0.00  0.00    +0.021 A 
ATOM     23  C   UNL     1     -12.201  -3.837  12.743  0.00  0.00    +0.002 A 
ATOM     25  C   UNL     1     -13.154  -3.450  11.801  0.00  0.00    +0.001 A 
BRANCH  20  26
ATOM     11  N   UNL     1     -16.952  -6.349  12.440  0.00  0.00    -0.191 NA
ATOM     26  C   UNL     1     -15.923  -5.817  12.518  0.00  0.00    +0.101 C 
ENDBRANCH  20  26
ENDBRANCH   1  18
ENDBRANCH   9   1
ENDBRANCH  14   9
BRANCH  15   4
ATOM      4  O   UNL     1     -10.096 -10.173  19.222  0.00  0.00    -0.442 OA
BRANCH   4  19
ATOM      7  O   UNL     1      -8.712 -11.989  19.077  0.00  0.00    -0.226 OA
ATOM     10  N   UNL     1      -8.059  -9.880  18.297  0.00  0.00    -0.251 N 
ATOM     19  C   UNL     1      -8.914 -10.797  18.876  0.00  0.00    +0.405 C 
ATOM     39  H   UNL     1      -8.408  -8.928  18.215  0.00  0.00    +0.158 HD
BRANCH  10  24
ATOM     24  C   UNL     1      -6.753 -10.100  17.803  0.00  0.00    +0.037 A 
ATOM     27  C   UNL     1      -5.817 -10.778  18.583  0.00  0.00    +0.027 A 
ATOM     28  C   UNL     1      -6.400  -9.636  16.535  0.00  0.00    +0.027 A 
ATOM     29  C   UNL     1      -4.528 -10.993  18.096  0.00  0.00    +0.048 A 
ATOM     30  C   UNL     1      -5.111  -9.851  16.048  0.00  0.00    +0.048 A 
ATOM     31  C   UNL     1      -4.175 -10.529  16.829  0.00  0.00    +0.129 A 
BRANCH  31   8
ATOM      8  O   UNL     1      -2.917 -10.739  16.355  0.00  0.00    -0.456 OA
BRANCH   8  32
ATOM     32  C   UNL     1      -2.789 -11.254  15.075  0.00  0.00    +0.128 A 
ATOM     33  C   UNL     1      -3.281 -12.526  14.782  0.00  0.00    +0.046 A 
ATOM     34  C   UNL     1      -2.169 -10.500  14.078  0.00  0.00    +0.046 A 
ATOM     35  C   UNL     1      -3.152 -13.045  13.494  0.00  0.00    +0.004 A 
ATOM     36  C   UNL     1      -2.041 -11.018  12.790  0.00  0.00    +0.004 A 
ATOM     37  C   UNL     1      -2.532 -12.290  12.498  0.00  0.00    +0.000 A 
ENDBRANCH   8  32
ENDBRANCH  31   8
ENDBRANCH  10  24
ENDBRANCH   4  19
ENDBRANCH  15   4
TORSDOF 9
ENDMDL
MODEL 8
REMARK VINA RESULT:      -6.8     18.459     21.347
REMARK  Name = 11884045
REMARK  9 active torsions:
REMARK  status: ('A' for Active; 'I' for Inactive)
REMARK    1  A    between atoms: S_1  and  N_9
REMARK    2  A    between atoms: S_1  and  C_18
REMARK    3  A    between atoms: O_4  and  C_15
REMARK    4  A    between atoms: O_4  and  C_19
REMARK    5  A    between atoms: O_8  and  C_31
REMARK    6  A    between atoms: O_8  and  C_32
REMARK    7  A    between atoms: N_9  and  C_14
REMARK    8  A    between atoms: N_10  and  C_24
REMARK    9  A    between atoms: C_20  and  C_26
REMARK                            x       y       z     vdW  Elec       q    Type
REMARK                         _______ _______ _______ _____ _____    ______ ____
ROOT
ATOM      2  O   UNL     1      -6.271 -12.035  15.902  0.00  0.00    -0.369 OA
ATOM      3  O   UNL     1      -4.249 -10.393  17.539  0.00  0.00    -0.368 OA
ATOM     12  C   UNL     1      -4.070 -11.436  16.558  0.00  0.00    +0.171 C 
ATOM     13  C   UNL     1      -5.193 -12.433  16.765  0.00  0.00    +0.191 C 
ATOM     14  C   UNL     1      -4.320 -10.888  15.175  0.00  0.00    +0.133 C 
ATOM     15  C   UNL     1      -5.541 -12.237  18.222  0.00  0.00    +0.235 C 
ATOM     16  C   UNL     1      -5.830 -10.967  15.049  0.00  0.00    +0.183 C 
ATOM     17  C   UNL     1      -5.342 -10.749  18.398  0.00  0.00    +0.207 C 
ENDROOT
BRANCH  14   9
ATOM      9  N   UNL     1      -3.687 -11.764  14.161  0.00  0.00    -0.182 NA
ATOM     38  H   UNL     1      -3.876 -12.771  14.214  0.00  0.00    +0.148 HD
BRANCH   9   1
ATOM      1  S   UNL     1      -2.409 -11.171  13.212  0.00  0.00    +0.060 S 
ATOM      5  O   UNL     1      -1.584 -12.278  12.767  0.00  0.00    -0.153 OA
ATOM      6  O   UNL     1      -1.809 -10.038  13.891  0.00  0.00    -0.153 OA
BRANCH   1  18
ATOM     18  C   UNL     1      -3.268 -10.531  11.804  0.00  0.00    +0.123 A 
ATOM     20  C   UNL     1      -2.662  -9.648  10.911  0.00  0.00    +0.078 A 
ATOM     21  C   UNL     1      -4.589 -10.933  11.601  0.00  0.00    +0.030 A 
ATOM     22  C   UNL     1      -3.376  -9.168   9.813  0.00  0.00    +0.021 A 
ATOM     23  C   UNL     1      -5.303 -10.452  10.503  0.00  0.00    +0.002 A 
ATOM     25  C   UNL     1      -4.696  -9.571   9.610  0.00  0.00    +0.001 A 
BRANCH  20  26
ATOM     11  N   UNL     1      -0.213  -8.862  11.234  0.00  0.00    -0.191 NA
ATOM     26  C   UNL     1      -1.310  -9.214  11.090  0.00  0.00    +0.101 C 
ENDBRANCH  20  26
ENDBRANCH   1  18
ENDBRANCH   9   1
ENDBRANCH  14   9
BRANCH  15   4
ATOM      4  O   UNL     1      -6.853 -12.639  18.546  0.00  0.00    -0.442 OA
BRANCH   4  19
ATOM      7  O   UNL     1      -8.001 -11.246  19.950  0.00  0.00    -0.226 OA
ATOM     10  N   UNL     1      -8.317 -11.186  17.631  0.00  0.00    -0.251 N 
ATOM     19  C   UNL     1      -7.763 -11.637  18.814  0.00  0.00    +0.405 C 
ATOM     39  H   UNL     1      -7.989 -11.638  16.780  0.00  0.00    +0.158 HD
BRANCH  10  24
ATOM     24  C   UNL     1      -9.287 -10.174  17.454  0.00  0.00    +0.037 A 
ATOM     27  C   UNL     1     -10.643 -10.482  17.566  0.00  0.00    +0.027 A 
ATOM     28  C   UNL     1      -8.889  -8.868  17.166  0.00  0.00    +0.027 A 
ATOM     29  C   UNL     1     -11.601  -9.483  17.390  0.00  0.00    +0.048 A 
ATOM     30  C   UNL     1      -9.847  -7.870  16.990  0.00  0.00    +0.048 A 
ATOM     31  C   UNL     1     -11.203  -8.177  17.101  0.00  0.00    +0.129 A 
BRANCH  31   8
ATOM      8  O   UNL     1     -12.138  -7.204  16.929  0.00  0.00    -0.456 OA
BRANCH   8  32
ATOM     32  C   UNL     1     -12.463  -6.845  15.631  0.00  0.00    +0.128 A 
ATOM     33  C   UNL     1     -11.837  -5.753  15.032  0.00  0.00    +0.046 A 
ATOM     34  C   UNL     1     -13.415  -7.578  14.923  0.00  0.00    +0.046 A 
ATOM     35  C   UNL     1     -12.164  -5.391  13.725  0.00  0.00    +0.004 A 
ATOM     36  C   UNL     1     -13.741  -7.218  13.616  0.00  0.00    +0.004 A 
ATOM     37  C   UNL     1     -13.117  -6.124  13.017  0.00  0.00    +0.000 A 
ENDBRANCH   8  32
ENDBRANCH  31   8
ENDBRANCH  10  24
ENDBRANCH   4  19
ENDBRANCH  15   4
TORSDOF 9
ENDMDL
MODEL 9
REMARK VINA RESULT:      -6.7      5.021      7.025
REMARK  Name = 11884045
REMARK  9 active torsions:
REMARK  status: ('A' for Active; 'I' for Inactive)
REMARK    1  A    between atoms: S_1  and  N_9
REMARK    2  A    between atoms: S_1  and  C_18
REMARK    3  A    between atoms: O_4  and  C_15
REMARK    4  A    between atoms: O_4  and  C_19
REMARK    5  A    between atoms: O_8  and  C_31
REMARK    6  A    between atoms: O_8  and  C_32
REMARK    7  A    between atoms: N_9  and  C_14
REMARK    8  A    between atoms: N_10  and  C_24
REMARK    9  A    between atoms: C_20  and  C_26
REMARK                            x       y       z     vdW  Elec       q    Type
REMARK                         _______ _______ _______ _____ _____    ______ ____
ROOT
ATOM      2  O   UNL     1     -11.000   9.211  30.986  0.00  0.00    -0.369 OA
ATOM      3  O   UNL     1     -13.110  11.133  32.133  0.00  0.00    -0.368 OA
ATOM     12  C   UNL     1     -13.183   9.743  31.750  0.00  0.00    +0.171 C 
ATOM     13  C   UNL     1     -12.309   9.579  30.522  0.00  0.00    +0.191 C 
ATOM     14  C   UNL     1     -12.509   8.887  32.793  0.00  0.00    +0.133 C 
ATOM     15  C   UNL     1     -12.321  10.965  29.923  0.00  0.00    +0.235 C 
ATOM     16  C   UNL     1     -11.046   8.965  32.401  0.00  0.00    +0.183 C 
ATOM     17  C   UNL     1     -12.338  11.843  31.154  0.00  0.00    +0.207 C 
ENDROOT
BRANCH  14   9
ATOM      9  N   UNL     1     -12.984   7.487  32.683  0.00  0.00    -0.182 NA
ATOM     38  H   UNL     1     -12.711   6.955  31.850  0.00  0.00    +0.148 HD
BRANCH   9   1
ATOM      1  S   UNL     1     -14.232   6.936  33.694  0.00  0.00    +0.060 S 
ATOM      5  O   UNL     1     -15.452   7.662  33.395  0.00  0.00    -0.153 OA
ATOM      6  O   UNL     1     -13.736   6.870  35.055  0.00  0.00    -0.153 OA
BRANCH   1  18
ATOM     18  C   UNL     1     -14.439   5.269  33.141  0.00  0.00    +0.123 A 
ATOM     20  C   UNL     1     -15.543   4.502  33.512  0.00  0.00    +0.078 A 
ATOM     21  C   UNL     1     -13.459   4.726  32.309  0.00  0.00    +0.030 A 
ATOM     22  C   UNL     1     -15.667   3.191  33.052  0.00  0.00    +0.021 A 
ATOM     23  C   UNL     1     -13.584   3.414  31.850  0.00  0.00    +0.002 A 
ATOM     25  C   UNL     1     -14.688   2.648  32.221  0.00  0.00    +0.001 A 
BRANCH  20  26
ATOM     11  N   UNL     1     -17.396   5.453  35.056  0.00  0.00    -0.191 NA
ATOM     26  C   UNL     1     -16.566   5.027  34.365  0.00  0.00    +0.101 C 
ENDBRANCH  20  26
ENDBRANCH   1  18
ENDBRANCH   9   1
ENDBRANCH  14   9
BRANCH  15   4
ATOM      4  O   UNL     1     -11.209  11.231  29.098  0.00  0.00    -0.442 OA
BRANCH   4  19
ATOM      7  O   UNL     1     -10.458   9.756  27.520  0.00  0.00    -0.226 OA
ATOM     10  N   UNL     1     -12.183  11.271  27.063  0.00  0.00    -0.251 N 
ATOM     19  C   UNL     1     -11.216  10.662  27.841  0.00  0.00    +0.405 C 
ATOM     39  H   UNL     1     -12.719  12.011  27.510  0.00  0.00    +0.158 HD
BRANCH  10  24
ATOM     24  C   UNL     1     -12.521  10.994  25.720  0.00  0.00    +0.037 A 
ATOM     27  C   UNL     1     -11.665  11.387  24.691  0.00  0.00    +0.027 A 
ATOM     28  C   UNL     1     -13.711  10.329  25.422  0.00  0.00    +0.027 A 
ATOM     29  C   UNL     1     -11.999  11.115  23.364  0.00  0.00    +0.048 A 
ATOM     30  C   UNL     1     -14.045  10.058  24.095  0.00  0.00    +0.048 A 
ATOM     31  C   UNL     1     -13.189  10.451  23.066  0.00  0.00    +0.129 A 
BRANCH  31   8
ATOM      8  O   UNL     1     -13.514  10.186  21.772  0.00  0.00    -0.456 OA
BRANCH   8  32
ATOM     32  C   UNL     1     -12.748   9.252  21.094  0.00  0.00    +0.128 A 
ATOM     33  C   UNL     1     -12.882   7.895  21.387  0.00  0.00    +0.046 A 
ATOM     34  C   UNL     1     -11.845   9.668  20.116  0.00  0.00    +0.046 A 
ATOM     35  C   UNL     1     -12.112   6.954  20.704  0.00  0.00    +0.004 A 
ATOM     36  C   UNL     1     -11.075   8.728  19.433  0.00  0.00    +0.004 A 
ATOM     37  C   UNL     1     -11.207   7.371  19.727  0.00  0.00    +0.000 A 
ENDBRANCH   8  32
ENDBRANCH  31   8
ENDBRANCH  10  24
ENDBRANCH   4  19
ENDBRANCH  15   4
TORSDOF 9
ENDMDL
MODEL 10
REMARK VINA RESULT:      -6.7     17.459     19.659
REMARK  Name = 11884045
REMARK  9 active torsions:
REMARK  status: ('A' for Active; 'I' for Inactive)
REMARK    1  A    between atoms: S_1  and  N_9
REMARK    2  A    between atoms: S_1  and  C_18
REMARK    3  A    between atoms: O_4  and  C_15
REMARK    4  A    between atoms: O_4  and  C_19
REMARK    5  A    between atoms: O_8  and  C_31
REMARK    6  A    between atoms: O_8  and  C_32
REMARK    7  A    between atoms: N_9  and  C_14
REMARK    8  A    between atoms: N_10  and  C_24
REMARK    9  A    between atoms: C_20  and  C_26
REMARK                            x       y       z     vdW  Elec       q    Type
REMARK                         _______ _______ _______ _____ _____    ______ ____
ROOT
ATOM      2  O   UNL     1      -7.856 -10.023  18.150  0.00  0.00    -0.369 OA
ATOM      3  O   UNL     1      -7.259 -13.037  18.291  0.00  0.00    -0.368 OA
ATOM     12  C   UNL     1      -6.839 -12.017  17.362  0.00  0.00    +0.171 C 
ATOM     13  C   UNL     1      -8.012 -11.074  17.183  0.00  0.00    +0.191 C 
ATOM     14  C   UNL     1      -5.772 -11.155  17.991  0.00  0.00    +0.133 C 
ATOM     15  C   UNL     1      -9.194 -11.957  17.503  0.00  0.00    +0.235 C 
ATOM     16  C   UNL     1      -6.579 -10.154  18.795  0.00  0.00    +0.183 C 
ATOM     17  C   UNL     1      -8.645 -12.837  18.603  0.00  0.00    +0.207 C 
ENDROOT
BRANCH  14   9
ATOM      9  N   UNL     1      -5.004 -10.450  16.939  0.00  0.00    -0.182 NA
ATOM     38  H   UNL     1      -5.335  -9.525  16.644  0.00  0.00    +0.148 HD
BRANCH   9   1
ATOM      1  S   UNL     1      -3.871 -11.304  16.004  0.00  0.00    +0.060 S 
ATOM      5  O   UNL     1      -4.099 -12.729  16.152  0.00  0.00    -0.153 OA
ATOM      6  O   UNL     1      -2.554 -10.746  16.241  0.00  0.00    -0.153 OA
BRANCH   1  18
ATOM     18  C   UNL     1      -4.337 -10.845  14.361  0.00  0.00    +0.123 A 
ATOM     20  C   UNL     1      -3.585 -11.225  13.249  0.00  0.00    +0.078 A 
ATOM     21  C   UNL     1      -5.492 -10.081  14.194  0.00  0.00    +0.030 A 
ATOM     22  C   UNL     1      -3.988 -10.841  11.971  0.00  0.00    +0.021 A 
ATOM     23  C   UNL     1      -5.895  -9.697  12.914  0.00  0.00    +0.002 A 
ATOM     25  C   UNL     1      -5.143 -10.078  11.803  0.00  0.00    +0.001 A 
BRANCH  20  26
ATOM     11  N   UNL     1      -1.428 -12.642  13.494  0.00  0.00    -0.191 NA
ATOM     26  C   UNL     1      -2.394 -12.007  13.384  0.00  0.00    +0.101 C 
ENDBRANCH  20  26
ENDBRANCH   1  18
ENDBRANCH   9   1
ENDBRANCH  14   9
BRANCH  15   4
ATOM      4  O   UNL     1     -10.336 -11.241  17.917  0.00  0.00    -0.442 OA
BRANCH   4  19
ATOM      7  O   UNL     1     -11.601 -11.051  16.021  0.00  0.00    -0.226 OA
ATOM     10  N   UNL     1     -10.880  -9.169  17.211  0.00  0.00    -0.251 N 
ATOM     19  C   UNL     1     -11.004 -10.519  16.949  0.00  0.00    +0.405 C 
ATOM     39  H   UNL     1     -10.342  -8.919  18.037  0.00  0.00    +0.158 HD
BRANCH  10  24
ATOM     24  C   UNL     1     -11.409  -8.087  16.473  0.00  0.00    +0.037 A 
ATOM     27  C   UNL     1     -10.559  -7.096  15.982  0.00  0.00    +0.027 A 
ATOM     28  C   UNL     1     -12.782  -8.008  16.236  0.00  0.00    +0.027 A 
ATOM     29  C   UNL     1     -11.081  -6.027  15.254  0.00  0.00    +0.048 A 
ATOM     30  C   UNL     1     -13.304  -6.939  15.508  0.00  0.00    +0.048 A 
ATOM     31  C   UNL     1     -12.454  -5.948  15.017  0.00  0.00    +0.129 A 
BRANCH  31   8
ATOM      8  O   UNL     1     -12.962  -4.905  14.307  0.00  0.00    -0.456 OA
BRANCH   8  32
ATOM     32  C   UNL     1     -12.628  -4.814  12.966  0.00  0.00    +0.128 A 
ATOM     33  C   UNL     1     -12.632  -5.958  12.168  0.00  0.00    +0.046 A 
ATOM     34  C   UNL     1     -12.288  -3.580  12.414  0.00  0.00    +0.046 A 
ATOM     35  C   UNL     1     -12.296  -5.868  10.817  0.00  0.00    +0.004 A 
ATOM     36  C   UNL     1     -11.952  -3.489  11.063  0.00  0.00    +0.004 A 
ATOM     37  C   UNL     1     -11.955  -4.632  10.265  0.00  0.00    +0.000 A 
ENDBRANCH   8  32
ENDBRANCH  31   8
ENDBRANCH  10  24
ENDBRANCH   4  19
ENDBRANCH  15   4
TORSDOF 9
ENDMDL
