MODEL 1
REMARK VINA RESULT:      -7.5      0.000      0.000
REMARK  Name = 26745347
REMARK  7 active torsions:
REMARK  status: ('A' for Active; 'I' for Inactive)
REMARK    1  A    between atoms: O_3  and  C_26
REMARK    2  A    between atoms: N_5  and  C_14
REMARK    3  A    between atoms: N_8  and  C_20
REMARK    4  A    between atoms: C_9  and  C_15
REMARK    5  A    between atoms: C_14  and  C_16
REMARK    6  A    between atoms: C_20  and  C_23
REMARK    7  A    between atoms: C_24  and  C_26
REMARK                            x       y       z     vdW  Elec       q    Type
REMARK                         _______ _______ _______ _____ _____    ______ ____
ROOT
ATOM      5  N   UNL     1       9.858   6.157   4.996  0.00  0.00    -0.281 NA
ATOM      6  N   UNL     1      10.112   3.884   7.963  0.00  0.00    -0.347 N 
ATOM      7  N   UNL     1       9.252   5.610   9.095  0.00  0.00    -0.240 NA
ATOM      9  C   UNL     1       8.718   6.930   5.565  0.00  0.00    +0.150 C 
ATOM     10  C   UNL     1       8.817   7.126   7.109  0.00  0.00    +0.085 C 
ATOM     11  C   UNL     1       9.943   4.785   5.571  0.00  0.00    +0.140 C 
ATOM     12  C   UNL     1       9.797   4.836   7.041  0.00  0.00    +0.053 A 
ATOM     13  C   UNL     1       9.267   5.878   7.757  0.00  0.00    +0.065 A 
ATOM     17  C   UNL     1       9.766   4.398   9.188  0.00  0.00    +0.197 A 
ATOM     29  H   UNL     1      10.518   2.976   7.785  0.00  0.00    +0.167 HD
ENDROOT
BRANCH   9  15
ATOM      1  O   UNL     1       9.732   8.964   4.833  0.00  0.00    -0.274 OA
ATOM      8  N   UNL     1       7.432   8.701   4.591  0.00  0.00    -0.307 N 
ATOM     15  C   UNL     1       8.706   8.300   4.957  0.00  0.00    +0.231 C 
ATOM     30  H   UNL     1       6.648   8.067   4.721  0.00  0.00    +0.149 HD
BRANCH   8  20
ATOM     20  C   UNL     1       7.147   9.988   4.002  0.00  0.00    +0.178 C 
BRANCH  20  23
ATOM      2  O   UNL     1       4.895   9.995   3.087  0.00  0.00    -0.466 OA
ATOM     23  C   UNL     1       6.223   9.875   2.824  0.00  0.00    +0.122 A 
ATOM     25  C   UNL     1       6.433   9.669   1.480  0.00  0.00    +0.046 A 
ATOM     27  C   UNL     1       5.152   9.661   0.879  0.00  0.00    +0.041 A 
ATOM     28  C   UNL     1       4.250   9.864   1.898  0.00  0.00    +0.195 A 
ENDBRANCH  20  23
ENDBRANCH   8  20
ENDBRANCH   9  15
BRANCH   5  14
ATOM     14  C   UNL     1       9.785   6.047   3.534  0.00  0.00    +0.120 C 
BRANCH  14  16
ATOM     16  C   UNL     1      11.036   5.455   2.952  0.00  0.00    -0.033 A 
ATOM     18  C   UNL     1      12.199   6.221   2.876  0.00  0.00    +0.006 A 
ATOM     19  C   UNL     1      11.035   4.140   2.488  0.00  0.00    +0.006 A 
ATOM     21  C   UNL     1      13.362   5.672   2.335  0.00  0.00    +0.015 A 
ATOM     22  C   UNL     1      12.198   3.590   1.946  0.00  0.00    +0.015 A 
ATOM     24  C   UNL     1      13.361   4.357   1.871  0.00  0.00    +0.059 A 
BRANCH  24  26
ATOM      4  O   UNL     1      14.883   3.796   0.111  0.00  0.00    -0.245 OA
ATOM     26  C   UNL     1      14.573   3.783   1.307  0.00  0.00    +0.337 C 
BRANCH  26   3
ATOM      3  O   UNL     1      15.367   3.210   2.253  0.00  0.00    -0.477 OA
ATOM     31  H   UNL     1      15.065   2.306   2.485  0.00  0.00    +0.295 HD
ENDBRANCH  26   3
ENDBRANCH  24  26
ENDBRANCH  14  16
ENDBRANCH   5  14
TORSDOF 7
ENDMDL
MODEL 2
REMARK VINA RESULT:      -7.3     16.076     18.248
REMARK  Name = 26745347
REMARK  7 active torsions:
REMARK  status: ('A' for Active; 'I' for Inactive)
REMARK    1  A    between atoms: O_3  and  C_26
REMARK    2  A    between atoms: N_5  and  C_14
REMARK    3  A    between atoms: N_8  and  C_20
REMARK    4  A    between atoms: C_9  and  C_15
REMARK    5  A    between atoms: C_14  and  C_16
REMARK    6  A    between atoms: C_20  and  C_23
REMARK    7  A    between atoms: C_24  and  C_26
REMARK                            x       y       z     vdW  Elec       q    Type
REMARK                         _______ _______ _______ _____ _____    ______ ____
ROOT
ATOM      5  N   UNL     1      14.320   7.734  19.723  0.00  0.00    -0.281 NA
ATOM      6  N   UNL     1      11.354   6.538  21.673  0.00  0.00    -0.347 N 
ATOM      7  N   UNL     1      10.625   8.641  21.453  0.00  0.00    -0.240 NA
ATOM      9  C   UNL     1      13.551   8.802  19.023  0.00  0.00    +0.150 C 
ATOM     10  C   UNL     1      12.471   9.473  19.926  0.00  0.00    +0.085 C 
ATOM     11  C   UNL     1      13.439   6.626  20.188  0.00  0.00    +0.140 C 
ATOM     12  C   UNL     1      12.238   7.173  20.853  0.00  0.00    +0.053 A 
ATOM     13  C   UNL     1      11.767   8.454  20.730  0.00  0.00    +0.065 A 
ATOM     17  C   UNL     1      10.400   7.466  22.009  0.00  0.00    +0.197 A 
ATOM     29  H   UNL     1      11.388   5.573  21.974  0.00  0.00    +0.167 HD
ENDROOT
BRANCH   9  15
ATOM      1  O   UNL     1      14.726  10.122  17.419  0.00  0.00    -0.274 OA
ATOM      8  N   UNL     1      15.058  10.542  19.685  0.00  0.00    -0.307 N 
ATOM     15  C   UNL     1      14.495   9.887  18.602  0.00  0.00    +0.231 C 
ATOM     30  H   UNL     1      14.785  10.281  20.628  0.00  0.00    +0.149 HD
BRANCH   8  20
ATOM     20  C   UNL     1      16.018  11.613  19.549  0.00  0.00    +0.178 C 
BRANCH  20  23
ATOM      2  O   UNL     1      16.901  11.274  21.788  0.00  0.00    -0.466 OA
ATOM     23  C   UNL     1      17.191  11.437  20.470  0.00  0.00    +0.122 A 
ATOM     25  C   UNL     1      18.550  11.403  20.265  0.00  0.00    +0.046 A 
ATOM     27  C   UNL     1      19.134  11.206  21.539  0.00  0.00    +0.041 A 
ATOM     28  C   UNL     1      18.089  11.134  22.431  0.00  0.00    +0.195 A 
ENDBRANCH  20  23
ENDBRANCH   8  20
ENDBRANCH   9  15
BRANCH   5  14
ATOM     14  C   UNL     1      15.380   7.166  18.881  0.00  0.00    +0.120 C 
BRANCH  14  16
ATOM     16  C   UNL     1      16.647   6.932  19.654  0.00  0.00    -0.033 A 
ATOM     18  C   UNL     1      17.515   5.909  19.273  0.00  0.00    +0.006 A 
ATOM     19  C   UNL     1      16.954   7.738  20.749  0.00  0.00    +0.006 A 
ATOM     21  C   UNL     1      18.693   5.691  19.990  0.00  0.00    +0.015 A 
ATOM     22  C   UNL     1      18.131   7.520  21.467  0.00  0.00    +0.015 A 
ATOM     24  C   UNL     1      19.000   6.497  21.086  0.00  0.00    +0.059 A 
BRANCH  24  26
ATOM      4  O   UNL     1      20.302   6.113  23.056  0.00  0.00    -0.245 OA
ATOM     26  C   UNL     1      20.228   6.272  21.833  0.00  0.00    +0.337 C 
BRANCH  26   3
ATOM      3  O   UNL     1      21.329   6.249  21.033  0.00  0.00    -0.477 OA
ATOM     31  H   UNL     1      21.668   7.152  20.854  0.00  0.00    +0.295 HD
ENDBRANCH  26   3
ENDBRANCH  24  26
ENDBRANCH  14  16
ENDBRANCH   5  14
TORSDOF 7
ENDMDL
MODEL 3
REMARK VINA RESULT:      -7.3     13.832     17.777
REMARK  Name = 26745347
REMARK  7 active torsions:
REMARK  status: ('A' for Active; 'I' for Inactive)
REMARK    1  A    between atoms: O_3  and  C_26
REMARK    2  A    between atoms: N_5  and  C_14
REMARK    3  A    between atoms: N_8  and  C_20
REMARK    4  A    between atoms: C_9  and  C_15
REMARK    5  A    between atoms: C_14  and  C_16
REMARK    6  A    between atoms: C_20  and  C_23
REMARK    7  A    between atoms: C_24  and  C_26
REMARK                            x       y       z     vdW  Elec       q    Type
REMARK                         _______ _______ _______ _____ _____    ______ ____
ROOT
ATOM      5  N   UNL     1      16.147   7.609  20.428  0.00  0.00    -0.281 NA
ATOM      6  N   UNL     1      19.220   5.502  20.041  0.00  0.00    -0.347 N 
ATOM      7  N   UNL     1      20.282   7.257  20.930  0.00  0.00    -0.240 NA
ATOM      9  C   UNL     1      16.702   8.376  21.580  0.00  0.00    +0.150 C 
ATOM     10  C   UNL     1      18.231   8.654  21.454  0.00  0.00    +0.085 C 
ATOM     11  C   UNL     1      16.790   6.271  20.288  0.00  0.00    +0.140 C 
ATOM     12  C   UNL     1      18.258   6.395  20.405  0.00  0.00    +0.053 A 
ATOM     13  C   UNL     1      18.932   7.456  20.951  0.00  0.00    +0.065 A 
ATOM     17  C   UNL     1      20.424   6.068  20.377  0.00  0.00    +0.197 A 
ATOM     29  H   UNL     1      19.079   4.597  19.611  0.00  0.00    +0.167 HD
ENDROOT
BRANCH   9  15
ATOM      1  O   UNL     1      16.140  10.543  20.751  0.00  0.00    -0.274 OA
ATOM      8  N   UNL     1      15.303   9.875  22.818  0.00  0.00    -0.307 N 
ATOM     15  C   UNL     1      16.025   9.712  21.647  0.00  0.00    +0.231 C 
ATOM     30  H   UNL     1      15.257   9.116  23.491  0.00  0.00    +0.149 HD
BRANCH   8  20
ATOM     20  C   UNL     1      14.576  11.082  23.136  0.00  0.00    +0.178 C 
BRANCH  20  23
ATOM      2  O   UNL     1      12.395  12.122  22.879  0.00  0.00    -0.466 OA
ATOM     23  C   UNL     1      13.131  10.989  22.739  0.00  0.00    +0.122 A 
ATOM     25  C   UNL     1      12.355   9.966  22.245  0.00  0.00    +0.046 A 
ATOM     27  C   UNL     1      11.059  10.506  22.069  0.00  0.00    +0.041 A 
ATOM     28  C   UNL     1      11.135  11.820  22.468  0.00  0.00    +0.195 A 
ENDBRANCH  20  23
ENDBRANCH   8  20
ENDBRANCH   9  15
BRANCH   5  14
ATOM     14  C   UNL     1      14.695   7.421  20.530  0.00  0.00    +0.120 C 
BRANCH  14  16
ATOM     16  C   UNL     1      13.978   7.911  19.304  0.00  0.00    -0.033 A 
ATOM     18  C   UNL     1      14.698   8.494  18.263  0.00  0.00    +0.006 A 
ATOM     19  C   UNL     1      12.593   7.782  19.209  0.00  0.00    +0.006 A 
ATOM     21  C   UNL     1      14.033   8.949  17.124  0.00  0.00    +0.015 A 
ATOM     22  C   UNL     1      11.927   8.237  18.070  0.00  0.00    +0.015 A 
ATOM     24  C   UNL     1      12.648   8.820  17.028  0.00  0.00    +0.059 A 
BRANCH  24  26
ATOM      4  O   UNL     1      10.844   8.906  15.458  0.00  0.00    -0.245 OA
ATOM     26  C   UNL     1      11.953   9.294  15.841  0.00  0.00    +0.337 C 
BRANCH  26   3
ATOM      3  O   UNL     1      12.662  10.240  15.164  0.00  0.00    -0.477 OA
ATOM     31  H   UNL     1      12.274  11.134  15.274  0.00  0.00    +0.295 HD
ENDBRANCH  26   3
ENDBRANCH  24  26
ENDBRANCH  14  16
ENDBRANCH   5  14
TORSDOF 7
ENDMDL
MODEL 4
REMARK VINA RESULT:      -7.1     24.691     28.027
REMARK  Name = 26745347
REMARK  7 active torsions:
REMARK  status: ('A' for Active; 'I' for Inactive)
REMARK    1  A    between atoms: O_3  and  C_26
REMARK    2  A    between atoms: N_5  and  C_14
REMARK    3  A    between atoms: N_8  and  C_20
REMARK    4  A    between atoms: C_9  and  C_15
REMARK    5  A    between atoms: C_14  and  C_16
REMARK    6  A    between atoms: C_20  and  C_23
REMARK    7  A    between atoms: C_24  and  C_26
REMARK                            x       y       z     vdW  Elec       q    Type
REMARK                         _______ _______ _______ _____ _____    ______ ____
ROOT
ATOM      5  N   UNL     1      -6.015 -10.843  16.173  0.00  0.00    -0.281 NA
ATOM      6  N   UNL     1      -2.785 -10.440  14.320  0.00  0.00    -0.347 N 
ATOM      7  N   UNL     1      -1.843 -10.670  16.335  0.00  0.00    -0.240 NA
ATOM      9  C   UNL     1      -5.401 -11.655  17.262  0.00  0.00    +0.150 C 
ATOM     10  C   UNL     1      -3.958 -11.194  17.632  0.00  0.00    +0.085 C 
ATOM     11  C   UNL     1      -5.231 -10.922  14.908  0.00  0.00    +0.140 C 
ATOM     12  C   UNL     1      -3.791 -10.741  15.188  0.00  0.00    +0.053 A 
ATOM     13  C   UNL     1      -3.189 -10.883  16.411  0.00  0.00    +0.065 A 
ATOM     17  C   UNL     1      -1.629 -10.408  15.060  0.00  0.00    +0.197 A 
ATOM     29  H   UNL     1      -2.868 -10.276  13.326  0.00  0.00    +0.167 HD
ENDROOT
BRANCH   9  15
ATOM      1  O   UNL     1      -6.065 -10.587  19.290  0.00  0.00    -0.274 OA
ATOM      8  N   UNL     1      -7.150 -12.541  18.638  0.00  0.00    -0.307 N 
ATOM     15  C   UNL     1      -6.230 -11.514  18.503  0.00  0.00    +0.231 C 
ATOM     30  H   UNL     1      -7.218 -13.254  17.917  0.00  0.00    +0.149 HD
BRANCH   8  20
ATOM     20  C   UNL     1      -8.054 -12.648  19.759  0.00  0.00    +0.178 C 
BRANCH  20  23
ATOM      2  O   UNL     1      -9.552 -10.831  20.361  0.00  0.00    -0.466 OA
ATOM     23  C   UNL     1      -9.326 -11.883  19.530  0.00  0.00    +0.122 A 
ATOM     25  C   UNL     1     -10.355 -12.017  18.628  0.00  0.00    +0.046 A 
ATOM     27  C   UNL     1     -11.273 -10.981  18.923  0.00  0.00    +0.041 A 
ATOM     28  C   UNL     1     -10.739 -10.287  19.984  0.00  0.00    +0.195 A 
ENDBRANCH  20  23
ENDBRANCH   8  20
ENDBRANCH   9  15
BRANCH   5  14
ATOM     14  C   UNL     1      -7.399 -11.245  15.889  0.00  0.00    +0.120 C 
BRANCH  14  16
ATOM     16  C   UNL     1      -8.338 -10.073  15.904  0.00  0.00    -0.033 A 
ATOM     18  C   UNL     1      -8.407  -9.251  17.028  0.00  0.00    +0.006 A 
ATOM     19  C   UNL     1      -9.140  -9.808  14.794  0.00  0.00    +0.006 A 
ATOM     21  C   UNL     1      -9.280  -8.161  17.043  0.00  0.00    +0.015 A 
ATOM     22  C   UNL     1     -10.013  -8.720  14.809  0.00  0.00    +0.015 A 
ATOM     24  C   UNL     1     -10.082  -7.897  15.933  0.00  0.00    +0.059 A 
BRANCH  24  26
ATOM      4  O   UNL     1     -12.178  -6.798  16.288  0.00  0.00    -0.245 OA
ATOM     26  C   UNL     1     -10.991  -6.761  15.947  0.00  0.00    +0.337 C 
BRANCH  26   3
ATOM      3  O   UNL     1     -10.393  -5.609  15.535  0.00  0.00    -0.477 OA
ATOM     31  H   UNL     1      -9.634  -5.367  16.107  0.00  0.00    +0.295 HD
ENDBRANCH  26   3
ENDBRANCH  24  26
ENDBRANCH  14  16
ENDBRANCH   5  14
TORSDOF 7
ENDMDL
MODEL 5
REMARK VINA RESULT:      -7.0     13.566     17.068
REMARK  Name = 26745347
REMARK  7 active torsions:
REMARK  status: ('A' for Active; 'I' for Inactive)
REMARK    1  A    between atoms: O_3  and  C_26
REMARK    2  A    between atoms: N_5  and  C_14
REMARK    3  A    between atoms: N_8  and  C_20
REMARK    4  A    between atoms: C_9  and  C_15
REMARK    5  A    between atoms: C_14  and  C_16
REMARK    6  A    between atoms: C_20  and  C_23
REMARK    7  A    between atoms: C_24  and  C_26
REMARK                            x       y       z     vdW  Elec       q    Type
REMARK                         _______ _______ _______ _____ _____    ______ ____
ROOT
ATOM      5  N   UNL     1      13.184   9.299  21.426  0.00  0.00    -0.281 NA
ATOM      6  N   UNL     1      13.722  12.151  23.794  0.00  0.00    -0.347 N 
ATOM      7  N   UNL     1      12.469  13.312  22.351  0.00  0.00    -0.240 NA
ATOM      9  C   UNL     1      11.881   9.829  20.932  0.00  0.00    +0.150 C 
ATOM     10  C   UNL     1      11.852  11.384  20.823  0.00  0.00    +0.085 C 
ATOM     11  C   UNL     1      13.511   9.805  22.789  0.00  0.00    +0.140 C 
ATOM     12  C   UNL     1      13.274  11.262  22.864  0.00  0.00    +0.053 A 
ATOM     13  C   UNL     1      12.506  11.994  21.997  0.00  0.00    +0.065 A 
ATOM     17  C   UNL     1      13.210  13.375  23.440  0.00  0.00    +0.197 A 
ATOM     29  H   UNL     1      14.312  11.953  24.591  0.00  0.00    +0.167 HD
ENDROOT
BRANCH   9  15
ATOM      1  O   UNL     1      10.692   8.538  19.314  0.00  0.00    -0.274 OA
ATOM      8  N   UNL     1      12.568   9.739  18.640  0.00  0.00    -0.307 N 
ATOM     15  C   UNL     1      11.628   9.295  19.554  0.00  0.00    +0.231 C 
ATOM     30  H   UNL     1      13.297  10.380  18.938  0.00  0.00    +0.149 HD
BRANCH   8  20
ATOM     20  C   UNL     1      12.561   9.352  17.248  0.00  0.00    +0.178 C 
BRANCH  20  23
ATOM      2  O   UNL     1      13.163  10.408  15.143  0.00  0.00    -0.466 OA
ATOM     23  C   UNL     1      13.521  10.169  16.432  0.00  0.00    +0.122 A 
ATOM     25  C   UNL     1      14.734  10.753  16.714  0.00  0.00    +0.046 A 
ATOM     27  C   UNL     1      15.148  11.393  15.521  0.00  0.00    +0.041 A 
ATOM     28  C   UNL     1      14.158  11.154  14.596  0.00  0.00    +0.195 A 
ENDBRANCH  20  23
ENDBRANCH   8  20
ENDBRANCH   9  15
BRANCH   5  14
ATOM     14  C   UNL     1      13.218   7.832  21.452  0.00  0.00    +0.120 C 
BRANCH  14  16
ATOM     16  C   UNL     1      14.520   7.290  20.936  0.00  0.00    -0.033 A 
ATOM     18  C   UNL     1      14.672   7.019  19.577  0.00  0.00    +0.006 A 
ATOM     19  C   UNL     1      15.576   7.058  21.817  0.00  0.00    +0.006 A 
ATOM     21  C   UNL     1      15.882   6.516  19.096  0.00  0.00    +0.015 A 
ATOM     22  C   UNL     1      16.786   6.554  21.337  0.00  0.00    +0.015 A 
ATOM     24  C   UNL     1      16.938   6.284  19.977  0.00  0.00    +0.059 A 
BRANCH  24  26
ATOM      4  O   UNL     1      19.281   5.807  20.074  0.00  0.00    -0.245 OA
ATOM     26  C   UNL     1      18.200   5.760  19.478  0.00  0.00    +0.337 C 
BRANCH  26   3
ATOM      3  O   UNL     1      18.078   5.191  18.247  0.00  0.00    -0.477 OA
ATOM     31  H   UNL     1      17.436   4.450  18.249  0.00  0.00    +0.295 HD
ENDBRANCH  26   3
ENDBRANCH  24  26
ENDBRANCH  14  16
ENDBRANCH   5  14
TORSDOF 7
ENDMDL
MODEL 6
REMARK VINA RESULT:      -6.8     26.484     29.410
REMARK  Name = 26745347
REMARK  7 active torsions:
REMARK  status: ('A' for Active; 'I' for Inactive)
REMARK    1  A    between atoms: O_3  and  C_26
REMARK    2  A    between atoms: N_5  and  C_14
REMARK    3  A    between atoms: N_8  and  C_20
REMARK    4  A    between atoms: C_9  and  C_15
REMARK    5  A    between atoms: C_14  and  C_16
REMARK    6  A    between atoms: C_20  and  C_23
REMARK    7  A    between atoms: C_24  and  C_26
REMARK                            x       y       z     vdW  Elec       q    Type
REMARK                         _______ _______ _______ _____ _____    ______ ____
ROOT
ATOM      5  N   UNL     1     -15.431   6.706  21.391  0.00  0.00    -0.281 NA
ATOM      6  N   UNL     1     -15.737   3.314  22.950  0.00  0.00    -0.347 N 
ATOM      7  N   UNL     1     -16.028   4.447  24.856  0.00  0.00    -0.240 NA
ATOM      9  C   UNL     1     -16.283   7.363  22.423  0.00  0.00    +0.150 C 
ATOM     10  C   UNL     1     -16.079   6.776  23.852  0.00  0.00    +0.085 C 
ATOM     11  C   UNL     1     -15.723   5.249  21.273  0.00  0.00    +0.140 C 
ATOM     12  C   UNL     1     -15.798   4.633  22.614  0.00  0.00    +0.053 A 
ATOM     13  C   UNL     1     -15.983   5.304  23.795  0.00  0.00    +0.065 A 
ATOM     17  C   UNL     1     -15.880   3.254  24.315  0.00  0.00    +0.197 A 
ATOM     29  H   UNL     1     -15.615   2.531  22.323  0.00  0.00    +0.167 HD
ENDROOT
BRANCH   9  15
ATOM      1  O   UNL     1     -16.743   9.700  22.269  0.00  0.00    -0.274 OA
ATOM      8  N   UNL     1     -14.592   9.010  22.827  0.00  0.00    -0.307 N 
ATOM     15  C   UNL     1     -15.923   8.816  22.498  0.00  0.00    +0.231 C 
ATOM     30  H   UNL     1     -13.998   8.208  23.015  0.00  0.00    +0.149 HD
BRANCH   8  20
ATOM     20  C   UNL     1     -13.988  10.318  22.943  0.00  0.00    +0.178 C 
BRANCH  20  23
ATOM      2  O   UNL     1     -14.159  11.025  20.624  0.00  0.00    -0.466 OA
ATOM     23  C   UNL     1     -13.330  10.747  21.663  0.00  0.00    +0.122 A 
ATOM     25  C   UNL     1     -12.017  10.930  21.297  0.00  0.00    +0.046 A 
ATOM     27  C   UNL     1     -12.041  11.347  19.945  0.00  0.00    +0.041 A 
ATOM     28  C   UNL     1     -13.367  11.389  19.582  0.00  0.00    +0.195 A 
ENDBRANCH  20  23
ENDBRANCH   8  20
ENDBRANCH   9  15
BRANCH   5  14
ATOM     14  C   UNL     1     -15.583   7.321  20.066  0.00  0.00    +0.120 C 
BRANCH  14  16
ATOM     16  C   UNL     1     -14.257   7.584  19.413  0.00  0.00    -0.033 A 
ATOM     18  C   UNL     1     -14.208   8.068  18.106  0.00  0.00    +0.006 A 
ATOM     19  C   UNL     1     -13.075   7.344  20.113  0.00  0.00    +0.006 A 
ATOM     21  C   UNL     1     -12.976   8.313  17.498  0.00  0.00    +0.015 A 
ATOM     22  C   UNL     1     -11.843   7.588  19.506  0.00  0.00    +0.015 A 
ATOM     24  C   UNL     1     -11.795   8.073  18.198  0.00  0.00    +0.059 A 
BRANCH  24  26
ATOM      4  O   UNL     1      -9.774   9.292  17.804  0.00  0.00    -0.245 OA
ATOM     26  C   UNL     1     -10.510   8.329  17.566  0.00  0.00    +0.337 C 
BRANCH  26   3
ATOM      3  O   UNL     1     -10.178   7.373  16.654  0.00  0.00    -0.477 OA
ATOM     31  H   UNL     1     -10.896   7.226  16.002  0.00  0.00    +0.295 HD
ENDBRANCH  26   3
ENDBRANCH  24  26
ENDBRANCH  14  16
ENDBRANCH   5  14
TORSDOF 7
ENDMDL
MODEL 7
REMARK VINA RESULT:      -6.6     18.645     22.923
REMARK  Name = 26745347
REMARK  7 active torsions:
REMARK  status: ('A' for Active; 'I' for Inactive)
REMARK    1  A    between atoms: O_3  and  C_26
REMARK    2  A    between atoms: N_5  and  C_14
REMARK    3  A    between atoms: N_8  and  C_20
REMARK    4  A    between atoms: C_9  and  C_15
REMARK    5  A    between atoms: C_14  and  C_16
REMARK    6  A    between atoms: C_20  and  C_23
REMARK    7  A    between atoms: C_24  and  C_26
REMARK                            x       y       z     vdW  Elec       q    Type
REMARK                         _______ _______ _______ _____ _____    ______ ____
ROOT
ATOM      5  N   UNL     1      21.063   6.628  23.810  0.00  0.00    -0.281 NA
ATOM      6  N   UNL     1      20.130   6.750  27.435  0.00  0.00    -0.347 N 
ATOM      7  N   UNL     1      21.677   5.153  27.672  0.00  0.00    -0.240 NA
ATOM      9  C   UNL     1      22.452   6.161  24.084  0.00  0.00    +0.150 C 
ATOM     10  C   UNL     1      22.542   5.174  25.287  0.00  0.00    +0.085 C 
ATOM     11  C   UNL     1      20.480   7.357  24.972  0.00  0.00    +0.140 C 
ATOM     12  C   UNL     1      20.733   6.610  26.222  0.00  0.00    +0.053 A 
ATOM     13  C   UNL     1      21.679   5.633  26.394  0.00  0.00    +0.065 A 
ATOM     17  C   UNL     1      20.733   5.848  28.276  0.00  0.00    +0.197 A 
ATOM     29  H   UNL     1      19.386   7.392  27.675  0.00  0.00    +0.167 HD
ENDROOT
BRANCH   9  15
ATOM      1  O   UNL     1      23.901   5.849  22.213  0.00  0.00    -0.274 OA
ATOM      8  N   UNL     1      22.252   4.262  22.637  0.00  0.00    -0.307 N 
ATOM     15  C   UNL     1      22.964   5.424  22.883  0.00  0.00    +0.231 C 
ATOM     30  H   UNL     1      21.501   3.990  23.265  0.00  0.00    +0.149 HD
BRANCH   8  20
ATOM     20  C   UNL     1      22.532   3.383  21.526  0.00  0.00    +0.178 C 
BRANCH  20  23
ATOM      2  O   UNL     1      23.522   1.941  23.214  0.00  0.00    -0.466 OA
ATOM     23  C   UNL     1      23.495   2.293  21.901  0.00  0.00    +0.122 A 
ATOM     25  C   UNL     1      24.392   1.541  21.180  0.00  0.00    +0.046 A 
ATOM     27  C   UNL     1      25.010   0.670  22.108  0.00  0.00    +0.041 A 
ATOM     28  C   UNL     1      24.447   0.952  23.331  0.00  0.00    +0.195 A 
ENDBRANCH  20  23
ENDBRANCH   8  20
ENDBRANCH   9  15
BRANCH   5  14
ATOM     14  C   UNL     1      20.988   7.497  22.629  0.00  0.00    +0.120 C 
BRANCH  14  16
ATOM     16  C   UNL     1      19.825   7.147  21.746  0.00  0.00    -0.033 A 
ATOM     18  C   UNL     1      19.903   6.042  20.898  0.00  0.00    +0.006 A 
ATOM     19  C   UNL     1      18.669   7.925  21.773  0.00  0.00    +0.006 A 
ATOM     21  C   UNL     1      18.823   5.715  20.077  0.00  0.00    +0.015 A 
ATOM     22  C   UNL     1      17.589   7.599  20.952  0.00  0.00    +0.015 A 
ATOM     24  C   UNL     1      17.667   6.494  20.105  0.00  0.00    +0.059 A 
BRANCH  24  26
ATOM      4  O   UNL     1      15.382   6.560  19.397  0.00  0.00    -0.245 OA
ATOM     26  C   UNL     1      16.540   6.154  19.250  0.00  0.00    +0.337 C 
BRANCH  26   3
ATOM      3  O   UNL     1      16.889   5.317  18.235  0.00  0.00    -0.477 OA
ATOM     31  H   UNL     1      17.331   5.796  17.502  0.00  0.00    +0.295 HD
ENDBRANCH  26   3
ENDBRANCH  24  26
ENDBRANCH  14  16
ENDBRANCH   5  14
TORSDOF 7
ENDMDL
MODEL 8
REMARK VINA RESULT:      -6.6     14.178     17.510
REMARK  Name = 26745347
REMARK  7 active torsions:
REMARK  status: ('A' for Active; 'I' for Inactive)
REMARK    1  A    between atoms: O_3  and  C_26
REMARK    2  A    between atoms: N_5  and  C_14
REMARK    3  A    between atoms: N_8  and  C_20
REMARK    4  A    between atoms: C_9  and  C_15
REMARK    5  A    between atoms: C_14  and  C_16
REMARK    6  A    between atoms: C_20  and  C_23
REMARK    7  A    between atoms: C_24  and  C_26
REMARK                            x       y       z     vdW  Elec       q    Type
REMARK                         _______ _______ _______ _____ _____    ______ ____
ROOT
ATOM      5  N   UNL     1      16.745   9.528  20.436  0.00  0.00    -0.281 NA
ATOM      6  N   UNL     1      18.606  12.727  19.860  0.00  0.00    -0.347 N 
ATOM      7  N   UNL     1      16.825  13.299  18.635  0.00  0.00    -0.240 NA
ATOM      9  C   UNL     1      15.408  10.162  20.261  0.00  0.00    +0.150 C 
ATOM     10  C   UNL     1      15.393  11.274  19.168  0.00  0.00    +0.085 C 
ATOM     11  C   UNL     1      17.781  10.516  20.853  0.00  0.00    +0.140 C 
ATOM     12  C   UNL     1      17.688  11.734  20.023  0.00  0.00    +0.053 A 
ATOM     13  C   UNL     1      16.606  12.110  19.270  0.00  0.00    +0.065 A 
ATOM     17  C   UNL     1      18.040  13.647  19.013  0.00  0.00    +0.197 A 
ATOM     29  H   UNL     1      19.524  12.781  20.281  0.00  0.00    +0.167 HD
ENDROOT
BRANCH   9  15
ATOM      1  O   UNL     1      13.556   8.690  20.580  0.00  0.00    -0.274 OA
ATOM      8  N   UNL     1      14.641   8.707  18.521  0.00  0.00    -0.307 N 
ATOM     15  C   UNL     1      14.425   9.117  19.825  0.00  0.00    +0.231 C 
ATOM     30  H   UNL     1      15.381   9.137  17.973  0.00  0.00    +0.149 HD
BRANCH   8  20
ATOM     20  C   UNL     1      13.845   7.693  17.869  0.00  0.00    +0.178 C 
BRANCH  20  23
ATOM      2  O   UNL     1      11.473   7.843  17.358  0.00  0.00    -0.466 OA
ATOM     23  C   UNL     1      12.724   8.289  17.067  0.00  0.00    +0.122 A 
ATOM     25  C   UNL     1      12.682   9.225  16.060  0.00  0.00    +0.046 A 
ATOM     27  C   UNL     1      11.318   9.364  15.710  0.00  0.00    +0.041 A 
ATOM     28  C   UNL     1      10.623   8.503  16.528  0.00  0.00    +0.195 A 
ENDBRANCH  20  23
ENDBRANCH   8  20
ENDBRANCH   9  15
BRANCH   5  14
ATOM     14  C   UNL     1      16.722   8.435  21.416  0.00  0.00    +0.120 C 
BRANCH  14  16
ATOM     16  C   UNL     1      17.813   7.434  21.167  0.00  0.00    -0.033 A 
ATOM     18  C   UNL     1      17.716   6.550  20.093  0.00  0.00    +0.006 A 
ATOM     19  C   UNL     1      18.924   7.389  22.010  0.00  0.00    +0.006 A 
ATOM     21  C   UNL     1      18.730   5.619  19.861  0.00  0.00    +0.015 A 
ATOM     22  C   UNL     1      19.938   6.459  21.779  0.00  0.00    +0.015 A 
ATOM     24  C   UNL     1      19.840   5.574  20.704  0.00  0.00    +0.059 A 
BRANCH  24  26
ATOM      4  O   UNL     1      20.919   3.447  20.892  0.00  0.00    -0.245 OA
ATOM     26  C   UNL     1      20.898   4.606  20.463  0.00  0.00    +0.337 C 
BRANCH  26   3
ATOM      3  O   UNL     1      21.901   5.110  19.692  0.00  0.00    -0.477 OA
ATOM     31  H   UNL     1      22.473   4.401  19.327  0.00  0.00    +0.295 HD
ENDBRANCH  26   3
ENDBRANCH  24  26
ENDBRANCH  14  16
ENDBRANCH   5  14
TORSDOF 7
ENDMDL
MODEL 9
REMARK VINA RESULT:      -6.6      4.015      7.485
REMARK  Name = 26745347
REMARK  7 active torsions:
REMARK  status: ('A' for Active; 'I' for Inactive)
REMARK    1  A    between atoms: O_3  and  C_26
REMARK    2  A    between atoms: N_5  and  C_14
REMARK    3  A    between atoms: N_8  and  C_20
REMARK    4  A    between atoms: C_9  and  C_15
REMARK    5  A    between atoms: C_14  and  C_16
REMARK    6  A    between atoms: C_20  and  C_23
REMARK    7  A    between atoms: C_24  and  C_26
REMARK                            x       y       z     vdW  Elec       q    Type
REMARK                         _______ _______ _______ _____ _____    ______ ____
ROOT
ATOM      5  N   UNL     1       8.620   8.927   5.114  0.00  0.00    -0.281 NA
ATOM      6  N   UNL     1       5.388   9.975   3.538  0.00  0.00    -0.347 N 
ATOM      7  N   UNL     1       6.075  12.051   4.005  0.00  0.00    -0.240 NA
ATOM      9  C   UNL     1       9.313  10.201   4.769  0.00  0.00    +0.150 C 
ATOM     10  C   UNL     1       8.385  11.450   4.864  0.00  0.00    +0.085 C 
ATOM     11  C   UNL     1       7.476   8.649   4.200  0.00  0.00    +0.140 C 
ATOM     12  C   UNL     1       6.656   9.865   4.023  0.00  0.00    +0.053 A 
ATOM     13  C   UNL     1       7.056  11.148   4.296  0.00  0.00    +0.065 A 
ATOM     17  C   UNL     1       5.082  11.314   3.548  0.00  0.00    +0.197 A 
ATOM     29  H   UNL     1       4.788   9.223   3.227  0.00  0.00    +0.167 HD
ENDROOT
BRANCH   9  15
ATOM      1  O   UNL     1      10.231  10.771   6.897  0.00  0.00    -0.274 OA
ATOM      8  N   UNL     1      11.676  10.211   5.160  0.00  0.00    -0.307 N 
ATOM     15  C   UNL     1      10.435  10.424   5.738  0.00  0.00    +0.231 C 
ATOM     30  H   UNL     1      11.735   9.907   4.193  0.00  0.00    +0.149 HD
BRANCH   8  20
ATOM     20  C   UNL     1      12.919  10.380   5.875  0.00  0.00    +0.178 C 
BRANCH  20  23
ATOM      2  O   UNL     1      12.783   8.162   6.860  0.00  0.00    -0.466 OA
ATOM     23  C   UNL     1      13.562   9.063   6.205  0.00  0.00    +0.122 A 
ATOM     25  C   UNL     1      14.816   8.547   5.981  0.00  0.00    +0.046 A 
ATOM     27  C   UNL     1      14.808   7.244   6.534  0.00  0.00    +0.041 A 
ATOM     28  C   UNL     1      13.549   7.057   7.055  0.00  0.00    +0.195 A 
ENDBRANCH  20  23
ENDBRANCH   8  20
ENDBRANCH   9  15
BRANCH   5  14
ATOM     14  C   UNL     1       9.527   7.773   5.091  0.00  0.00    +0.120 C 
BRANCH  14  16
ATOM     16  C   UNL     1       9.480   6.994   6.374  0.00  0.00    -0.033 A 
ATOM     18  C   UNL     1       8.909   7.563   7.513  0.00  0.00    +0.006 A 
ATOM     19  C   UNL     1      10.007   5.704   6.427  0.00  0.00    +0.006 A 
ATOM     21  C   UNL     1       8.864   6.840   8.706  0.00  0.00    +0.015 A 
ATOM     22  C   UNL     1       9.962   4.981   7.620  0.00  0.00    +0.015 A 
ATOM     24  C   UNL     1       9.390   5.550   8.758  0.00  0.00    +0.059 A 
BRANCH  24  26
ATOM      4  O   UNL     1       8.362   4.179  10.428  0.00  0.00    -0.245 OA
ATOM     26  C   UNL     1       9.344   4.795  10.001  0.00  0.00    +0.337 C 
BRANCH  26   3
ATOM      3  O   UNL     1      10.526   4.829  10.676  0.00  0.00    -0.477 OA
ATOM     31  H   UNL     1      10.545   4.180  11.411  0.00  0.00    +0.295 HD
ENDBRANCH  26   3
ENDBRANCH  24  26
ENDBRANCH  14  16
ENDBRANCH   5  14
TORSDOF 7
ENDMDL
MODEL 10
REMARK VINA RESULT:      -6.5     23.578     25.711
REMARK  Name = 26745347
REMARK  7 active torsions:
REMARK  status: ('A' for Active; 'I' for Inactive)
REMARK    1  A    between atoms: O_3  and  C_26
REMARK    2  A    between atoms: N_5  and  C_14
REMARK    3  A    between atoms: N_8  and  C_20
REMARK    4  A    between atoms: C_9  and  C_15
REMARK    5  A    between atoms: C_14  and  C_16
REMARK    6  A    between atoms: C_20  and  C_23
REMARK    7  A    between atoms: C_24  and  C_26
REMARK                            x       y       z     vdW  Elec       q    Type
REMARK                         _______ _______ _______ _____ _____    ______ ____
ROOT
ATOM      5  N   UNL     1      -3.393 -11.876  14.127  0.00  0.00    -0.281 NA
ATOM      6  N   UNL     1      -1.186 -14.833  13.482  0.00  0.00    -0.347 N 
ATOM      7  N   UNL     1      -2.474 -15.138  11.680  0.00  0.00    -0.240 NA
ATOM      9  C   UNL     1      -3.720 -11.684  12.685  0.00  0.00    +0.150 C 
ATOM     10  C   UNL     1      -3.860 -13.025  11.903  0.00  0.00    +0.085 C 
ATOM     11  C   UNL     1      -2.098 -12.590  14.315  0.00  0.00    +0.140 C 
ATOM     12  C   UNL     1      -2.026 -13.762  13.419  0.00  0.00    +0.053 A 
ATOM     13  C   UNL     1      -2.799 -13.969  12.306  0.00  0.00    +0.065 A 
ATOM     17  C   UNL     1      -1.496 -15.635  12.412  0.00  0.00    +0.197 A 
ATOM     29  H   UNL     1      -0.471 -15.005  14.176  0.00  0.00    +0.167 HD
ENDROOT
BRANCH   9  15
ATOM      1  O   UNL     1      -6.079 -11.482  12.989  0.00  0.00    -0.274 OA
ATOM      8  N   UNL     1      -4.925  -9.750  11.947  0.00  0.00    -0.307 N 
ATOM     15  C   UNL     1      -5.039 -10.980  12.574  0.00  0.00    +0.231 C 
ATOM     30  H   UNL     1      -4.011  -9.417  11.655  0.00  0.00    +0.149 HD
BRANCH   8  20
ATOM     20  C   UNL     1      -6.053  -8.884  11.697  0.00  0.00    +0.178 C 
BRANCH  20  23
ATOM      2  O   UNL     1      -7.808  -8.527  10.055  0.00  0.00    -0.466 OA
ATOM     23  C   UNL     1      -6.563  -9.016  10.291  0.00  0.00    +0.122 A 
ATOM     25  C   UNL     1      -6.025  -9.546   9.141  0.00  0.00    +0.046 A 
ATOM     27  C   UNL     1      -7.002  -9.370   8.133  0.00  0.00    +0.041 A 
ATOM     28  C   UNL     1      -8.068  -8.746   8.739  0.00  0.00    +0.195 A 
ENDBRANCH  20  23
ENDBRANCH   8  20
ENDBRANCH   9  15
BRANCH   5  14
ATOM     14  C   UNL     1      -3.338 -10.607  14.862  0.00  0.00    +0.120 C 
BRANCH  14  16
ATOM     16  C   UNL     1      -4.106 -10.669  16.151  0.00  0.00    -0.033 A 
ATOM     18  C   UNL     1      -3.551 -11.304  17.262  0.00  0.00    +0.006 A 
ATOM     19  C   UNL     1      -5.373 -10.093  16.237  0.00  0.00    +0.006 A 
ATOM     21  C   UNL     1      -4.263 -11.362  18.461  0.00  0.00    +0.015 A 
ATOM     22  C   UNL     1      -6.086 -10.152  17.435  0.00  0.00    +0.015 A 
ATOM     24  C   UNL     1      -5.530 -10.786  18.546  0.00  0.00    +0.059 A 
BRANCH  24  26
ATOM      4  O   UNL     1      -5.870 -11.355  20.845  0.00  0.00    -0.245 OA
ATOM     26  C   UNL     1      -6.274 -10.845  19.795  0.00  0.00    +0.337 C 
BRANCH  26   3
ATOM      3  O   UNL     1      -7.502 -10.265  19.699  0.00  0.00    -0.477 OA
ATOM     31  H   UNL     1      -7.829 -10.254  18.774  0.00  0.00    +0.295 HD
ENDBRANCH  26   3
ENDBRANCH  24  26
ENDBRANCH  14  16
ENDBRANCH   5  14
TORSDOF 7
ENDMDL
