MODEL 1
REMARK VINA RESULT:      -7.5      0.000      0.000
REMARK  Name = 51137930
REMARK  5 active torsions:
REMARK  status: ('A' for Active; 'I' for Inactive)
REMARK    1  A    between atoms: O_2  and  C_16
REMARK    2  A    between atoms: O_2  and  C_25
REMARK    3  A    between atoms: C_8  and  C_12
REMARK    4  A    between atoms: C_14  and  C_15
REMARK    5  A    between atoms: C_23  and  C_24
REMARK                            x       y       z     vdW  Elec       q    Type
REMARK                         _______ _______ _______ _____ _____    ______ ____
ROOT
ATOM      3  N   UNL     1     -16.433   2.149  27.847  0.00  0.00    -0.299 N 
ATOM      5  N   UNL     1     -14.789   2.640  29.404  0.00  0.00    -0.179 NA
ATOM      6  N   UNL     1     -15.474   0.369  28.980  0.00  0.00    -0.223 NA
ATOM      8  C   UNL     1     -17.502   3.529  26.235  0.00  0.00    +0.095 C 
ATOM      9  C   UNL     1     -18.301   2.234  26.416  0.00  0.00    +0.033 C 
ATOM     10  C   UNL     1     -16.634   3.558  27.507  0.00  0.00    +0.121 C 
ATOM     11  C   UNL     1     -17.314   1.274  27.079  0.00  0.00    +0.109 C 
ATOM     13  C   UNL     1     -15.527   1.701  28.783  0.00  0.00    +0.221 A 
ATOM     16  C   UNL     1     -13.911   2.166  30.313  0.00  0.00    +0.219 A 
ATOM     17  C   UNL     1     -14.577  -0.035  29.903  0.00  0.00    +0.119 A 
ATOM     18  C   UNL     1     -13.761   0.827  30.608  0.00  0.00    +0.087 A 
ENDROOT
BRANCH   8  12
ATOM      1  O   UNL     1     -16.083   4.687  24.599  0.00  0.00    -0.420 OA
ATOM      4  N   UNL     1     -16.678   2.621  23.983  0.00  0.00    -0.112 NA
ATOM      7  N   UNL     1     -15.888   3.153  22.982  0.00  0.00    -0.107 NA
ATOM     12  C   UNL     1     -16.764   3.549  24.906  0.00  0.00    +0.222 A 
ATOM     14  C   UNL     1     -15.564   4.360  23.384  0.00  0.00    +0.248 A 
BRANCH  14  15
ATOM     15  C   UNL     1     -14.763   5.368  22.752  0.00  0.00    +0.038 A 
ATOM     19  C   UNL     1     -13.558   5.019  22.140  0.00  0.00    +0.013 A 
ATOM     20  C   UNL     1     -15.188   6.696  22.748  0.00  0.00    +0.013 A 
ATOM     21  C   UNL     1     -12.779   6.000  21.524  0.00  0.00    +0.004 A 
ATOM     22  C   UNL     1     -14.409   7.676  22.134  0.00  0.00    +0.004 A 
ATOM     23  C   UNL     1     -13.205   7.328  21.522  0.00  0.00    -0.050 A 
ATOM     24  C   UNL     1     -12.371   8.376  20.865  0.00  0.00    +0.044 C 
ENDBRANCH  14  15
ENDBRANCH   8  12
BRANCH  16   2
ATOM      2  O   UNL     1     -13.138   3.085  30.971  0.00  0.00    -0.480 OA
ATOM     25  C   UNL     1     -13.471   3.350  32.329  0.00  0.00    +0.279 C 
ENDBRANCH  16   2
TORSDOF 3
ENDMDL
MODEL 2
REMARK VINA RESULT:      -7.3     27.691     30.338
REMARK  Name = 51137930
REMARK  5 active torsions:
REMARK  status: ('A' for Active; 'I' for Inactive)
REMARK    1  A    between atoms: O_2  and  C_16
REMARK    2  A    between atoms: O_2  and  C_25
REMARK    3  A    between atoms: C_8  and  C_12
REMARK    4  A    between atoms: C_14  and  C_15
REMARK    5  A    between atoms: C_23  and  C_24
REMARK                            x       y       z     vdW  Elec       q    Type
REMARK                         _______ _______ _______ _____ _____    ______ ____
ROOT
ATOM      3  N   UNL     1      11.562   9.158  21.599  0.00  0.00    -0.299 N 
ATOM      5  N   UNL     1      11.081  11.424  21.542  0.00  0.00    -0.179 NA
ATOM      6  N   UNL     1      12.044  10.397  23.497  0.00  0.00    -0.223 NA
ATOM      8  C   UNL     1      11.548   7.527  19.872  0.00  0.00    +0.095 C 
ATOM      9  C   UNL     1      11.577   6.831  21.237  0.00  0.00    +0.033 C 
ATOM     10  C   UNL     1      11.071   8.946  20.237  0.00  0.00    +0.121 C 
ATOM     11  C   UNL     1      12.046   7.920  22.202  0.00  0.00    +0.109 C 
ATOM     13  C   UNL     1      11.562  10.378  22.239  0.00  0.00    +0.221 A 
ATOM     16  C   UNL     1      11.097  12.603  22.199  0.00  0.00    +0.219 A 
ATOM     17  C   UNL     1      12.029  11.607  24.095  0.00  0.00    +0.119 A 
ATOM     18  C   UNL     1      11.563  12.756  23.488  0.00  0.00    +0.087 A 
ENDROOT
BRANCH   8  12
ATOM      1  O   UNL     1      13.966   7.098  19.928  0.00  0.00    -0.420 OA
ATOM      4  N   UNL     1      13.179   7.595  17.895  0.00  0.00    -0.112 NA
ATOM      7  N   UNL     1      14.540   7.379  17.784  0.00  0.00    -0.107 NA
ATOM     12  C   UNL     1      12.888   7.421  19.162  0.00  0.00    +0.222 A 
ATOM     14  C   UNL     1      14.957   7.092  18.996  0.00  0.00    +0.248 A 
BRANCH  14  15
ATOM     15  C   UNL     1      16.271   6.779  19.478  0.00  0.00    +0.038 A 
ATOM     19  C   UNL     1      17.028   5.790  18.848  0.00  0.00    +0.013 A 
ATOM     20  C   UNL     1      16.793   7.464  20.576  0.00  0.00    +0.013 A 
ATOM     21  C   UNL     1      18.306   5.486  19.317  0.00  0.00    +0.004 A 
ATOM     22  C   UNL     1      18.070   7.159  21.044  0.00  0.00    +0.004 A 
ATOM     23  C   UNL     1      18.827   6.171  20.415  0.00  0.00    -0.050 A 
ATOM     24  C   UNL     1      20.193   5.845  20.917  0.00  0.00    +0.044 C 
ENDBRANCH  14  15
ENDBRANCH   8  12
BRANCH  16   2
ATOM      2  O   UNL     1      10.617  13.697  21.528  0.00  0.00    -0.480 OA
ATOM     25  C   UNL     1      11.544  14.743  21.263  0.00  0.00    +0.279 C 
ENDBRANCH  16   2
TORSDOF 3
ENDMDL
MODEL 3
REMARK VINA RESULT:      -7.1     32.376     34.733
REMARK  Name = 51137930
REMARK  5 active torsions:
REMARK  status: ('A' for Active; 'I' for Inactive)
REMARK    1  A    between atoms: O_2  and  C_16
REMARK    2  A    between atoms: O_2  and  C_25
REMARK    3  A    between atoms: C_8  and  C_12
REMARK    4  A    between atoms: C_14  and  C_15
REMARK    5  A    between atoms: C_23  and  C_24
REMARK                            x       y       z     vdW  Elec       q    Type
REMARK                         _______ _______ _______ _____ _____    ______ ____
ROOT
ATOM      3  N   UNL     1      21.048   5.649  21.733  0.00  0.00    -0.299 N 
ATOM      5  N   UNL     1      22.650   4.179  20.931  0.00  0.00    -0.179 NA
ATOM      6  N   UNL     1      21.826   4.023  23.190  0.00  0.00    -0.223 NA
ATOM      8  C   UNL     1      19.727   7.268  20.603  0.00  0.00    +0.095 C 
ATOM      9  C   UNL     1      19.678   7.526  22.113  0.00  0.00    +0.033 C 
ATOM     10  C   UNL     1      20.974   6.373  20.464  0.00  0.00    +0.121 C 
ATOM     11  C   UNL     1      20.143   6.208  22.733  0.00  0.00    +0.109 C 
ATOM     13  C   UNL     1      21.876   4.571  21.961  0.00  0.00    +0.221 A 
ATOM     16  C   UNL     1      23.448   3.121  21.189  0.00  0.00    +0.219 A 
ATOM     17  C   UNL     1      22.650   2.971  23.379  0.00  0.00    +0.119 A 
ATOM     18  C   UNL     1      23.491   2.471  22.405  0.00  0.00    +0.087 A 
ENDROOT
BRANCH   8  12
ATOM      1  O   UNL     1      17.279   7.360  20.432  0.00  0.00    -0.420 OA
ATOM      4  N   UNL     1      18.201   5.632  19.353  0.00  0.00    -0.112 NA
ATOM      7  N   UNL     1      16.832   5.563  19.175  0.00  0.00    -0.107 NA
ATOM     12  C   UNL     1      18.416   6.694  20.091  0.00  0.00    +0.222 A 
ATOM     14  C   UNL     1      16.335   6.592  19.823  0.00  0.00    +0.248 A 
BRANCH  14  15
ATOM     15  C   UNL     1      14.976   7.021  19.985  0.00  0.00    +0.038 A 
ATOM     19  C   UNL     1      14.173   7.231  18.863  0.00  0.00    +0.013 A 
ATOM     20  C   UNL     1      14.457   7.229  21.263  0.00  0.00    +0.013 A 
ATOM     21  C   UNL     1      12.851   7.649  19.021  0.00  0.00    +0.004 A 
ATOM     22  C   UNL     1      13.136   7.648  21.420  0.00  0.00    +0.004 A 
ATOM     23  C   UNL     1      12.333   7.857  20.299  0.00  0.00    -0.050 A 
ATOM     24  C   UNL     1      10.920   8.305  20.467  0.00  0.00    +0.044 C 
ENDBRANCH  14  15
ENDBRANCH   8  12
BRANCH  16   2
ATOM      2  O   UNL     1      24.253   2.685  20.170  0.00  0.00    -0.480 OA
ATOM     25  C   UNL     1      25.008   3.676  19.482  0.00  0.00    +0.279 C 
ENDBRANCH  16   2
TORSDOF 3
ENDMDL
MODEL 4
REMARK VINA RESULT:      -6.9     28.431     31.176
REMARK  Name = 51137930
REMARK  5 active torsions:
REMARK  status: ('A' for Active; 'I' for Inactive)
REMARK    1  A    between atoms: O_2  and  C_16
REMARK    2  A    between atoms: O_2  and  C_25
REMARK    3  A    between atoms: C_8  and  C_12
REMARK    4  A    between atoms: C_14  and  C_15
REMARK    5  A    between atoms: C_23  and  C_24
REMARK                            x       y       z     vdW  Elec       q    Type
REMARK                         _______ _______ _______ _____ _____    ______ ____
ROOT
ATOM      3  N   UNL     1      12.069  10.148  20.992  0.00  0.00    -0.299 N 
ATOM      5  N   UNL     1      12.735  11.921  22.328  0.00  0.00    -0.179 NA
ATOM      6  N   UNL     1      10.937  10.459  22.990  0.00  0.00    -0.223 NA
ATOM      8  C   UNL     1      13.060   9.221  19.041  0.00  0.00    +0.095 C 
ATOM      9  C   UNL     1      11.617   8.721  19.174  0.00  0.00    +0.033 C 
ATOM     10  C   UNL     1      13.065  10.455  19.964  0.00  0.00    +0.121 C 
ATOM     11  C   UNL     1      11.263   8.984  20.638  0.00  0.00    +0.109 C 
ATOM     13  C   UNL     1      11.907  10.873  22.152  0.00  0.00    +0.221 A 
ATOM     16  C   UNL     1      12.548  12.608  23.474  0.00  0.00    +0.219 A 
ATOM     17  C   UNL     1      10.805  11.191  24.115  0.00  0.00    +0.119 A 
ATOM     18  C   UNL     1      11.590  12.287  24.414  0.00  0.00    +0.087 A 
ENDROOT
BRANCH   8  12
ATOM      1  O   UNL     1      15.292   8.524  19.789  0.00  0.00    -0.420 OA
ATOM      4  N   UNL     1      13.929   6.823  19.292  0.00  0.00    -0.112 NA
ATOM      7  N   UNL     1      15.141   6.294  19.696  0.00  0.00    -0.107 NA
ATOM     12  C   UNL     1      14.063   8.126  19.363  0.00  0.00    +0.222 A 
ATOM     14  C   UNL     1      15.906   7.324  19.976  0.00  0.00    +0.248 A 
BRANCH  14  15
ATOM     15  C   UNL     1      17.262   7.377  20.439  0.00  0.00    +0.038 A 
ATOM     19  C   UNL     1      17.704   8.474  21.180  0.00  0.00    +0.013 A 
ATOM     20  C   UNL     1      18.140   6.333  20.149  0.00  0.00    +0.013 A 
ATOM     21  C   UNL     1      19.023   8.525  21.632  0.00  0.00    +0.004 A 
ATOM     22  C   UNL     1      19.459   6.385  20.599  0.00  0.00    +0.004 A 
ATOM     23  C   UNL     1      19.900   7.481  21.340  0.00  0.00    -0.050 A 
ATOM     24  C   UNL     1      21.311   7.537  21.822  0.00  0.00    +0.044 C 
ENDBRANCH  14  15
ENDBRANCH   8  12
BRANCH  16   2
ATOM      2  O   UNL     1      13.368  13.683  23.697  0.00  0.00    -0.480 OA
ATOM     25  C   UNL     1      14.185  14.101  22.609  0.00  0.00    +0.279 C 
ENDBRANCH  16   2
TORSDOF 3
ENDMDL
MODEL 5
REMARK VINA RESULT:      -6.7      1.670      2.737
REMARK  Name = 51137930
REMARK  5 active torsions:
REMARK  status: ('A' for Active; 'I' for Inactive)
REMARK    1  A    between atoms: O_2  and  C_16
REMARK    2  A    between atoms: O_2  and  C_25
REMARK    3  A    between atoms: C_8  and  C_12
REMARK    4  A    between atoms: C_14  and  C_15
REMARK    5  A    between atoms: C_23  and  C_24
REMARK                            x       y       z     vdW  Elec       q    Type
REMARK                         _______ _______ _______ _____ _____    ______ ____
ROOT
ATOM      3  N   UNL     1     -17.061   3.685  25.597  0.00  0.00    -0.299 N 
ATOM      5  N   UNL     1     -16.154   3.620  27.729  0.00  0.00    -0.179 NA
ATOM      6  N   UNL     1     -17.088   1.649  26.705  0.00  0.00    -0.223 NA
ATOM      8  C   UNL     1     -17.018   5.394  23.947  0.00  0.00    +0.095 C 
ATOM      9  C   UNL     1     -18.088   4.357  23.587  0.00  0.00    +0.033 C 
ATOM     10  C   UNL     1     -16.780   5.113  25.443  0.00  0.00    +0.121 C 
ATOM     11  C   UNL     1     -17.711   3.128  24.415  0.00  0.00    +0.109 C 
ATOM     13  C   UNL     1     -16.754   2.954  26.725  0.00  0.00    +0.221 A 
ATOM     16  C   UNL     1     -15.869   2.874  28.817  0.00  0.00    +0.219 A 
ATOM     17  C   UNL     1     -16.776   0.964  27.824  0.00  0.00    +0.119 A 
ATOM     18  C   UNL     1     -16.159   1.529  28.922  0.00  0.00    +0.087 A 
ENDROOT
BRANCH   8  12
ATOM      1  O   UNL     1     -15.194   6.455  22.691  0.00  0.00    -0.420 OA
ATOM      4  N   UNL     1     -15.248   4.227  22.507  0.00  0.00    -0.112 NA
ATOM      7  N   UNL     1     -14.182   4.692  21.758  0.00  0.00    -0.107 NA
ATOM     12  C   UNL     1     -15.809   5.290  23.033  0.00  0.00    +0.222 A 
ATOM     14  C   UNL     1     -14.190   5.997  21.895  0.00  0.00    +0.248 A 
BRANCH  14  15
ATOM     15  C   UNL     1     -13.320   6.996  21.345  0.00  0.00    +0.038 A 
ATOM     19  C   UNL     1     -12.105   6.622  20.769  0.00  0.00    +0.013 A 
ATOM     20  C   UNL     1     -13.688   8.341  21.386  0.00  0.00    +0.013 A 
ATOM     21  C   UNL     1     -11.259   7.594  20.233  0.00  0.00    +0.004 A 
ATOM     22  C   UNL     1     -12.841   9.312  20.851  0.00  0.00    +0.004 A 
ATOM     23  C   UNL     1     -11.627   8.938  20.275  0.00  0.00    -0.050 A 
ATOM     24  C   UNL     1     -10.722   9.977  19.704  0.00  0.00    +0.044 C 
ENDBRANCH  14  15
ENDBRANCH   8  12
BRANCH  16   2
ATOM      2  O   UNL     1     -15.256   3.509  29.865  0.00  0.00    -0.480 OA
ATOM     25  C   UNL     1     -14.021   2.962  30.312  0.00  0.00    +0.279 C 
ENDBRANCH  16   2
TORSDOF 3
ENDMDL
MODEL 6
REMARK VINA RESULT:      -6.6     18.325     19.977
REMARK  Name = 51137930
REMARK  5 active torsions:
REMARK  status: ('A' for Active; 'I' for Inactive)
REMARK    1  A    between atoms: O_2  and  C_16
REMARK    2  A    between atoms: O_2  and  C_25
REMARK    3  A    between atoms: C_8  and  C_12
REMARK    4  A    between atoms: C_14  and  C_15
REMARK    5  A    between atoms: C_23  and  C_24
REMARK                            x       y       z     vdW  Elec       q    Type
REMARK                         _______ _______ _______ _____ _____    ______ ____
ROOT
ATOM      3  N   UNL     1      -4.632 -11.809  17.002  0.00  0.00    -0.299 N 
ATOM      5  N   UNL     1      -4.163 -11.029  14.871  0.00  0.00    -0.179 NA
ATOM      6  N   UNL     1      -4.146 -13.385  15.374  0.00  0.00    -0.223 NA
ATOM      8  C   UNL     1      -5.467 -10.677  18.917  0.00  0.00    +0.095 C 
ATOM      9  C   UNL     1      -4.884 -12.032  19.333  0.00  0.00    +0.033 C 
ATOM     10  C   UNL     1      -4.832 -10.459  17.531  0.00  0.00    +0.121 C 
ATOM     11  C   UNL     1      -4.821 -12.828  18.030  0.00  0.00    +0.109 C 
ATOM     13  C   UNL     1      -4.300 -12.086  15.694  0.00  0.00    +0.221 A 
ATOM     16  C   UNL     1      -3.838 -11.337  13.598  0.00  0.00    +0.219 A 
ATOM     17  C   UNL     1      -3.820 -13.620  14.087  0.00  0.00    +0.119 A 
ATOM     18  C   UNL     1      -3.651 -12.626  13.144  0.00  0.00    +0.087 A 
ENDROOT
BRANCH   8  12
ATOM      1  O   UNL     1      -7.634  -9.773  18.197  0.00  0.00    -0.420 OA
ATOM      4  N   UNL     1      -7.793 -11.437  19.683  0.00  0.00    -0.112 NA
ATOM      7  N   UNL     1      -9.073 -11.025  19.366  0.00  0.00    -0.107 NA
ATOM     12  C   UNL     1      -6.986 -10.680  18.978  0.00  0.00    +0.222 A 
ATOM     14  C   UNL     1      -8.932 -10.052  18.496  0.00  0.00    +0.248 A 
BRANCH  14  15
ATOM     15  C   UNL     1      -9.916  -9.253  17.824  0.00  0.00    +0.038 A 
ATOM     19  C   UNL     1      -9.531  -8.095  17.147  0.00  0.00    +0.013 A 
ATOM     20  C   UNL     1     -11.258  -9.634  17.847  0.00  0.00    +0.013 A 
ATOM     21  C   UNL     1     -10.488  -7.319  16.493  0.00  0.00    +0.004 A 
ATOM     22  C   UNL     1     -12.214  -8.857  17.194  0.00  0.00    +0.004 A 
ATOM     23  C   UNL     1     -11.830  -7.700  16.518  0.00  0.00    -0.050 A 
ATOM     24  C   UNL     1     -12.853  -6.869  15.819  0.00  0.00    +0.044 C 
ENDBRANCH  14  15
ENDBRANCH   8  12
BRANCH  16   2
ATOM      2  O   UNL     1      -3.688 -10.293  12.724  0.00  0.00    -0.480 OA
ATOM     25  C   UNL     1      -2.601 -10.375  11.808  0.00  0.00    +0.279 C 
ENDBRANCH  16   2
TORSDOF 3
ENDMDL
MODEL 7
REMARK VINA RESULT:      -6.5      3.861      6.304
REMARK  Name = 51137930
REMARK  5 active torsions:
REMARK  status: ('A' for Active; 'I' for Inactive)
REMARK    1  A    between atoms: O_2  and  C_16
REMARK    2  A    between atoms: O_2  and  C_25
REMARK    3  A    between atoms: C_8  and  C_12
REMARK    4  A    between atoms: C_14  and  C_15
REMARK    5  A    between atoms: C_23  and  C_24
REMARK                            x       y       z     vdW  Elec       q    Type
REMARK                         _______ _______ _______ _____ _____    ______ ____
ROOT
ATOM      3  N   UNL     1     -16.830   4.769  22.397  0.00  0.00    -0.299 N 
ATOM      5  N   UNL     1     -17.055   2.749  23.512  0.00  0.00    -0.179 NA
ATOM      6  N   UNL     1     -18.141   3.140  21.396  0.00  0.00    -0.223 NA
ATOM      8  C   UNL     1     -15.400   6.619  22.816  0.00  0.00    +0.095 C 
ATOM      9  C   UNL     1     -16.517   7.039  21.854  0.00  0.00    +0.033 C 
ATOM     10  C   UNL     1     -15.972   5.332  23.440  0.00  0.00    +0.121 C 
ATOM     11  C   UNL     1     -17.059   5.717  21.311  0.00  0.00    +0.109 C 
ATOM     13  C   UNL     1     -17.364   3.499  22.437  0.00  0.00    +0.221 A 
ATOM     16  C   UNL     1     -17.594   1.512  23.518  0.00  0.00    +0.219 A 
ATOM     17  C   UNL     1     -18.647   1.892  21.468  0.00  0.00    +0.119 A 
ATOM     18  C   UNL     1     -18.405   1.024  22.514  0.00  0.00    +0.087 A 
ENDROOT
BRANCH   8  12
ATOM      1  O   UNL     1     -13.719   7.511  21.264  0.00  0.00    -0.420 OA
ATOM      4  N   UNL     1     -13.168   5.540  22.166  0.00  0.00    -0.112 NA
ATOM      7  N   UNL     1     -12.144   5.923  21.320  0.00  0.00    -0.107 NA
ATOM     12  C   UNL     1     -14.065   6.495  22.102  0.00  0.00    +0.222 A 
ATOM     14  C   UNL     1     -12.509   7.079  20.816  0.00  0.00    +0.248 A 
BRANCH  14  15
ATOM     15  C   UNL     1     -11.841   7.940  19.883  0.00  0.00    +0.038 A 
ATOM     19  C   UNL     1     -11.431   7.442  18.645  0.00  0.00    +0.013 A 
ATOM     20  C   UNL     1     -11.602   9.274  20.212  0.00  0.00    +0.013 A 
ATOM     21  C   UNL     1     -10.782   8.280  17.737  0.00  0.00    +0.004 A 
ATOM     22  C   UNL     1     -10.953  10.110  19.305  0.00  0.00    +0.004 A 
ATOM     23  C   UNL     1     -10.543   9.614  18.068  0.00  0.00    -0.050 A 
ATOM     24  C   UNL     1      -9.848  10.508  17.097  0.00  0.00    +0.044 C 
ENDBRANCH  14  15
ENDBRANCH   8  12
BRANCH  16   2
ATOM      2  O   UNL     1     -17.306   0.712  24.592  0.00  0.00    -0.480 OA
ATOM     25  C   UNL     1     -16.732   1.348  25.728  0.00  0.00    +0.279 C 
ENDBRANCH  16   2
TORSDOF 3
ENDMDL
MODEL 8
REMARK VINA RESULT:      -6.4     18.558     20.430
REMARK  Name = 51137930
REMARK  5 active torsions:
REMARK  status: ('A' for Active; 'I' for Inactive)
REMARK    1  A    between atoms: O_2  and  C_16
REMARK    2  A    between atoms: O_2  and  C_25
REMARK    3  A    between atoms: C_8  and  C_12
REMARK    4  A    between atoms: C_14  and  C_15
REMARK    5  A    between atoms: C_23  and  C_24
REMARK                            x       y       z     vdW  Elec       q    Type
REMARK                         _______ _______ _______ _____ _____    ______ ____
ROOT
ATOM      3  N   UNL     1      -4.396 -11.648  16.375  0.00  0.00    -0.299 N 
ATOM      5  N   UNL     1      -2.991 -10.900  14.690  0.00  0.00    -0.179 NA
ATOM      6  N   UNL     1      -3.710 -13.198  14.793  0.00  0.00    -0.223 NA
ATOM      8  C   UNL     1      -5.605 -10.448  18.031  0.00  0.00    +0.095 C 
ATOM      9  C   UNL     1      -5.551 -11.933  18.407  0.00  0.00    +0.033 C 
ATOM     10  C   UNL     1      -4.462 -10.329  17.004  0.00  0.00    +0.121 C 
ATOM     11  C   UNL     1      -5.188 -12.637  17.100  0.00  0.00    +0.109 C 
ATOM     13  C   UNL     1      -3.669 -11.926  15.238  0.00  0.00    +0.221 A 
ATOM     16  C   UNL     1      -2.291 -11.208  13.578  0.00  0.00    +0.219 A 
ATOM     17  C   UNL     1      -2.987 -13.435  13.680  0.00  0.00    +0.119 A 
ATOM     18  C   UNL     1      -2.251 -12.470  13.023  0.00  0.00    +0.087 A 
ENDROOT
BRANCH   8  12
ATOM      1  O   UNL     1      -8.013 -10.200  18.443  0.00  0.00    -0.420 OA
ATOM      4  N   UNL     1      -7.369  -9.549  16.403  0.00  0.00    -0.112 NA
ATOM      7  N   UNL     1      -8.734  -9.357  16.501  0.00  0.00    -0.107 NA
ATOM     12  C   UNL     1      -6.991 -10.041  17.559  0.00  0.00    +0.222 A 
ATOM     14  C   UNL     1      -9.066  -9.751  17.708  0.00  0.00    +0.248 A 
BRANCH  14  15
ATOM     15  C   UNL     1     -10.344  -9.780  18.359  0.00  0.00    +0.038 A 
ATOM     19  C   UNL     1     -11.490  -9.393  17.664  0.00  0.00    +0.013 A 
ATOM     20  C   UNL     1     -10.442 -10.196  19.687  0.00  0.00    +0.013 A 
ATOM     21  C   UNL     1     -12.733  -9.422  18.296  0.00  0.00    +0.004 A 
ATOM     22  C   UNL     1     -11.684 -10.224  20.320  0.00  0.00    +0.004 A 
ATOM     23  C   UNL     1     -12.830  -9.838  19.625  0.00  0.00    -0.050 A 
ATOM     24  C   UNL     1     -14.159  -9.868  20.301  0.00  0.00    +0.044 C 
ENDBRANCH  14  15
ENDBRANCH   8  12
BRANCH  16   2
ATOM      2  O   UNL     1      -1.587 -10.194  12.985  0.00  0.00    -0.480 OA
ATOM     25  C   UNL     1      -1.819  -9.980  11.597  0.00  0.00    +0.279 C 
ENDBRANCH  16   2
TORSDOF 3
ENDMDL
MODEL 9
REMARK VINA RESULT:      -6.3     31.297     35.317
REMARK  Name = 51137930
REMARK  5 active torsions:
REMARK  status: ('A' for Active; 'I' for Inactive)
REMARK    1  A    between atoms: O_2  and  C_16
REMARK    2  A    between atoms: O_2  and  C_25
REMARK    3  A    between atoms: C_8  and  C_12
REMARK    4  A    between atoms: C_14  and  C_15
REMARK    5  A    between atoms: C_23  and  C_24
REMARK                            x       y       z     vdW  Elec       q    Type
REMARK                         _______ _______ _______ _____ _____    ______ ____
ROOT
ATOM      3  N   UNL     1      10.800   7.139   4.545  0.00  0.00    -0.299 N 
ATOM      5  N   UNL     1      10.651   6.213   6.665  0.00  0.00    -0.179 NA
ATOM      6  N   UNL     1       9.135   7.941   5.944  0.00  0.00    -0.223 NA
ATOM      8  C   UNL     1      12.092   6.492   2.660  0.00  0.00    +0.095 C 
ATOM      9  C   UNL     1      11.561   7.915   2.456  0.00  0.00    +0.033 C 
ATOM     10  C   UNL     1      11.943   6.301   4.181  0.00  0.00    +0.121 C 
ATOM     11  C   UNL     1      10.412   8.032   3.458  0.00  0.00    +0.109 C 
ATOM     13  C   UNL     1      10.169   7.095   5.770  0.00  0.00    +0.221 A 
ATOM     16  C   UNL     1      10.009   6.197   7.852  0.00  0.00    +0.219 A 
ATOM     17  C   UNL     1       8.541   7.873   7.153  0.00  0.00    +0.119 A 
ATOM     18  C   UNL     1       8.938   7.012   8.155  0.00  0.00    +0.087 A 
ENDROOT
BRANCH   8  12
ATOM      1  O   UNL     1      11.800   5.385   0.487  0.00  0.00    -0.420 OA
ATOM      4  N   UNL     1      10.364   4.697   2.058  0.00  0.00    -0.112 NA
ATOM      7  N   UNL     1      10.091   3.999   0.896  0.00  0.00    -0.107 NA
ATOM     12  C   UNL     1      11.367   5.493   1.773  0.00  0.00    +0.222 A 
ATOM     14  C   UNL     1      10.954   4.433   0.006  0.00  0.00    +0.248 A 
BRANCH  14  15
ATOM     15  C   UNL     1      11.137   4.067  -1.368  0.00  0.00    +0.038 A 
ATOM     19  C   UNL     1      10.396   4.702  -2.365  0.00  0.00    +0.013 A 
ATOM     20  C   UNL     1      12.058   3.076  -1.709  0.00  0.00    +0.013 A 
ATOM     21  C   UNL     1      10.575   4.345  -3.702  0.00  0.00    +0.004 A 
ATOM     22  C   UNL     1      12.236   2.719  -3.045  0.00  0.00    +0.004 A 
ATOM     23  C   UNL     1      11.495   3.354  -4.041  0.00  0.00    -0.050 A 
ATOM     24  C   UNL     1      11.686   2.972  -5.471  0.00  0.00    +0.044 C 
ENDBRANCH  14  15
ENDBRANCH   8  12
BRANCH  16   2
ATOM      2  O   UNL     1      10.465   5.314   8.795  0.00  0.00    -0.480 OA
ATOM     25  C   UNL     1       9.481   4.561   9.495  0.00  0.00    +0.279 C 
ENDBRANCH  16   2
TORSDOF 3
ENDMDL
MODEL 10
REMARK VINA RESULT:      -6.3     20.422     22.851
REMARK  Name = 51137930
REMARK  5 active torsions:
REMARK  status: ('A' for Active; 'I' for Inactive)
REMARK    1  A    between atoms: O_2  and  C_16
REMARK    2  A    between atoms: O_2  and  C_25
REMARK    3  A    between atoms: C_8  and  C_12
REMARK    4  A    between atoms: C_14  and  C_15
REMARK    5  A    between atoms: C_23  and  C_24
REMARK                            x       y       z     vdW  Elec       q    Type
REMARK                         _______ _______ _______ _____ _____    ______ ____
ROOT
ATOM      3  N   UNL     1      -3.977 -11.240  11.606  0.00  0.00    -0.299 N 
ATOM      5  N   UNL     1      -5.708  -9.907  10.833  0.00  0.00    -0.179 NA
ATOM      6  N   UNL     1      -5.876 -12.311  10.820  0.00  0.00    -0.223 NA
ATOM      8  C   UNL     1      -1.984 -10.671  12.768  0.00  0.00    +0.095 C 
ATOM      9  C   UNL     1      -1.869 -12.095  12.214  0.00  0.00    +0.033 C 
ATOM     10  C   UNL     1      -3.138 -10.086  11.930  0.00  0.00    +0.121 C 
ATOM     11  C   UNL     1      -3.314 -12.501  11.922  0.00  0.00    +0.109 C 
ATOM     13  C   UNL     1      -5.241 -11.148  11.064  0.00  0.00    +0.221 A 
ATOM     16  C   UNL     1      -6.948  -9.855  10.302  0.00  0.00    +0.219 A 
ATOM     17  C   UNL     1      -7.109 -12.185  10.287  0.00  0.00    +0.119 A 
ATOM     18  C   UNL     1      -7.703 -10.971  10.005  0.00  0.00    +0.087 A 
ENDROOT
BRANCH   8  12
ATOM      1  O   UNL     1      -3.451 -10.672  14.738  0.00  0.00    -0.420 OA
ATOM      4  N   UNL     1      -1.269 -10.671  15.230  0.00  0.00    -0.112 NA
ATOM      7  N   UNL     1      -1.974 -10.672  16.419  0.00  0.00    -0.107 NA
ATOM     12  C   UNL     1      -2.170 -10.671  14.276  0.00  0.00    +0.222 A 
ATOM     14  C   UNL     1      -3.244 -10.672  16.083  0.00  0.00    +0.248 A 
BRANCH  14  15
ATOM     15  C   UNL     1      -4.423 -10.672  16.900  0.00  0.00    +0.038 A 
ATOM     19  C   UNL     1      -4.424 -11.343  18.123  0.00  0.00    +0.013 A 
ATOM     20  C   UNL     1      -5.568 -10.000  16.472  0.00  0.00    +0.013 A 
ATOM     21  C   UNL     1      -5.570 -11.343  18.918  0.00  0.00    +0.004 A 
ATOM     22  C   UNL     1      -6.714 -10.000  17.267  0.00  0.00    +0.004 A 
ATOM     23  C   UNL     1      -6.715 -10.672  18.489  0.00  0.00    -0.050 A 
ATOM     24  C   UNL     1      -7.941 -10.672  19.339  0.00  0.00    +0.044 C 
ENDBRANCH  14  15
ENDBRANCH   8  12
BRANCH  16   2
ATOM      2  O   UNL     1      -7.466  -8.612  10.050  0.00  0.00    -0.480 OA
ATOM     25  C   UNL     1      -7.275  -8.092   8.740  0.00  0.00    +0.279 C 
ENDBRANCH  16   2
TORSDOF 3
ENDMDL
