REMARK  Name = 75536401
REMARK  10 active torsions:
REMARK  status: ('A' for Active; 'I' for Inactive)
REMARK    1  A    between atoms: O_3  and  C_9
REMARK    2  A    between atoms: O_5  and  C_30
REMARK    3  A    between atoms: O_5  and  C_31
REMARK    4  A    between atoms: N_6  and  C_13
REMARK    5  A    between atoms: N_6  and  C_16
REMARK    6  A    between atoms: C_8  and  C_13
REMARK    7  A    between atoms: C_10  and  C_14
REMARK    8  A    between atoms: C_14  and  C_15
REMARK    9  A    between atoms: C_16  and  C_18
REMARK   10  A    between atoms: C_19  and  C_20
REMARK                            x       y       z     vdW  Elec       q    Type
REMARK                         _______ _______ _______ _____ _____    ______ ____
ROOT
ATOM      2  O   UNL     1       3.464  -0.417   0.926  0.00  0.00    -0.369 OA
ATOM      8  C   UNL     1       4.121   0.857   0.946  0.00  0.00    +0.161 C 
ATOM      9  C   UNL     1       5.631   0.709   0.717  0.00  0.00    +0.145 C 
ATOM     10  C   UNL     1       3.679  -1.194  -0.254  0.00  0.00    +0.125 C 
ATOM     11  C   UNL     1       5.953  -0.158  -0.497  0.00  0.00    +0.036 C 
ATOM     12  C   UNL     1       5.168  -1.466  -0.457  0.00  0.00    +0.034 C 
ENDROOT
BRANCH   9   3
ATOM      3  O   UNL     1       6.212   0.086   1.865  0.00  0.00    -0.389 OA
ATOM     33  H   UNL     1       7.173   0.044   1.722  0.00  0.00    +0.210 HD
ENDBRANCH   9   3
BRANCH   8  13
ATOM     13  C   UNL     1       3.463   1.831  -0.029  0.00  0.00    +0.115 C 
BRANCH  13   6
ATOM      6  N   UNL     1       2.039   1.954   0.243  0.00  0.00    -0.309 NA
ATOM     32  H   UNL     1       1.658   1.034   0.466  0.00  0.00    +0.122 HD
BRANCH   6  16
ATOM     16  C   UNL     1       1.331   2.489  -0.913  0.00  0.00    +0.116 C 
BRANCH  16  18
ATOM      1 CL   UNL     1      -3.576   1.288  -2.198  0.00  0.00    -0.084 Cl
ATOM     18  C   UNL     1      -0.144   2.637  -0.647  0.00  0.00    -0.032 A 
ATOM     21  C   UNL     1      -1.069   1.971  -1.451  0.00  0.00    +0.025 A 
ATOM     22  C   UNL     1      -0.585   3.442   0.404  0.00  0.00    +0.005 A 
ATOM     25  C   UNL     1      -2.434   2.109  -1.205  0.00  0.00    +0.041 A 
ATOM     26  C   UNL     1      -1.951   3.580   0.650  0.00  0.00    +0.002 A 
ATOM     27  C   UNL     1      -2.876   2.914  -0.154  0.00  0.00    +0.020 A 
ENDBRANCH  16  18
ENDBRANCH   6  16
ENDBRANCH  13   6
ENDBRANCH   8  13
BRANCH  10  14
ATOM     14  C   UNL     1       2.906  -2.498  -0.091  0.00  0.00    +0.090 C 
BRANCH  14  15
ATOM      4  O   UNL     1      -0.414  -2.225  -1.466  0.00  0.00    -0.354 OA
ATOM      7  N   UNL     1       0.950  -2.466  -1.583  0.00  0.00    -0.083 NA
ATOM     15  C   UNL     1       1.435  -2.311  -0.349  0.00  0.00    +0.087 A 
ATOM     17  C   UNL     1       0.435  -1.975   0.580  0.00  0.00    +0.076 A 
ATOM     19  C   UNL     1      -0.708  -1.933  -0.173  0.00  0.00    +0.167 A 
BRANCH  19  20
ATOM     20  C   UNL     1      -2.088  -1.662   0.105  0.00  0.00    +0.020 A 
ATOM     23  C   UNL     1      -2.433  -0.791   1.139  0.00  0.00    +0.015 A 
ATOM     24  C   UNL     1      -3.086  -2.267  -0.659  0.00  0.00    +0.015 A 
ATOM     28  C   UNL     1      -3.776  -0.526   1.410  0.00  0.00    +0.046 A 
ATOM     29  C   UNL     1      -4.429  -2.002  -0.389  0.00  0.00    +0.046 A 
ATOM     30  C   UNL     1      -4.773  -1.132   0.646  0.00  0.00    +0.120 A 
BRANCH  30   5
ATOM      5  O   UNL     1      -6.083  -0.871   0.907  0.00  0.00    -0.495 OA
ATOM     31  C   UNL     1      -6.365   0.030   1.977  0.00  0.00    +0.277 C 
ENDBRANCH  30   5
ENDBRANCH  19  20
ENDBRANCH  14  15
ENDBRANCH  10  14
TORSDOF 9
