MODEL 1
REMARK VINA RESULT:      -8.1      0.000      0.000
REMARK  Name = 45784226
REMARK  6 active torsions:
REMARK  status: ('A' for Active; 'I' for Inactive)
REMARK    1  A    between atoms: S_1  and  C_23
REMARK    2  A    between atoms: S_1  and  C_26
REMARK    3  A    between atoms: N_4  and  C_12
REMARK    4  A    between atoms: C_7  and  C_11
REMARK    5  A    between atoms: C_12  and  C_13
REMARK    6  A    between atoms: C_20  and  C_25
REMARK                            x       y       z     vdW  Elec       q    Type
REMARK                         _______ _______ _______ _____ _____    ______ ____
ROOT
ATOM      4  N   UNL     1      13.915   6.985  20.177  0.00  0.00    -0.297 NA
ATOM      7  C   UNL     1      12.663   8.172  21.764  0.00  0.00    +0.070 C 
ATOM      8  C   UNL     1      11.719   7.320  20.896  0.00  0.00    +0.028 C 
ATOM      9  C   UNL     1      13.985   8.203  20.985  0.00  0.00    +0.096 C 
ATOM     10  C   UNL     1      12.543   6.944  19.671  0.00  0.00    +0.085 C 
ENDROOT
BRANCH   7  11
ATOM      5  N   UNL     1      11.936   9.935  23.397  0.00  0.00    -0.342 N 
ATOM      6  N   UNL     1      11.842  10.506  21.252  0.00  0.00    -0.232 NA
ATOM     11  C   UNL     1      12.144   9.550  22.101  0.00  0.00    +0.113 A 
ATOM     14  C   UNL     1      11.469  11.224  23.382  0.00  0.00    +0.066 A 
ATOM     15  C   UNL     1      11.418  11.558  22.031  0.00  0.00    +0.089 A 
ATOM     18  C   UNL     1      11.096  12.099  24.402  0.00  0.00    +0.031 A 
ATOM     19  C   UNL     1      10.974  12.838  21.658  0.00  0.00    +0.030 A 
ATOM     20  C   UNL     1      10.657  13.368  24.013  0.00  0.00    -0.048 A 
ATOM     24  C   UNL     1      10.596  13.733  22.666  0.00  0.00    +0.005 A 
ATOM     25  C   UNL     1      10.245  14.352  25.060  0.00  0.00    +0.044 C 
ATOM     27  H   UNL     1      12.095   9.371  24.221  0.00  0.00    +0.167 HD
ENDBRANCH   7  11
BRANCH   4  12
ATOM     12  C   UNL     1      14.900   6.972  19.104  0.00  0.00    +0.119 C 
BRANCH  12  13
ATOM     13  C   UNL     1      16.282   6.668  19.616  0.00  0.00    -0.033 A 
ATOM     16  C   UNL     1      17.098   5.768  18.929  0.00  0.00    +0.007 A 
ATOM     17  C   UNL     1      16.748   7.285  20.777  0.00  0.00    +0.007 A 
ATOM     21  C   UNL     1      18.379   5.486  19.404  0.00  0.00    +0.027 A 
ATOM     22  C   UNL     1      18.028   7.003  21.251  0.00  0.00    +0.027 A 
ATOM     23  C   UNL     1      18.844   6.104  20.566  0.00  0.00    +0.088 A 
BRANCH  23   1
ATOM      1  S   UNL     1      20.449   5.752  21.158  0.00  0.00    -0.006 S 
ATOM      2  O   UNL     1      20.458   5.892  22.607  0.00  0.00    -0.170 OA
ATOM      3  O   UNL     1      20.889   4.505  20.548  0.00  0.00    -0.170 OA
ATOM     26  C   UNL     1      21.457   7.065  20.505  0.00  0.00    +0.200 C 
ENDBRANCH  23   1
ENDBRANCH  12  13
ENDBRANCH   4  12
TORSDOF 4
ENDMDL
MODEL 2
REMARK VINA RESULT:      -7.9     17.791     19.792
REMARK  Name = 45784226
REMARK  6 active torsions:
REMARK  status: ('A' for Active; 'I' for Inactive)
REMARK    1  A    between atoms: S_1  and  C_23
REMARK    2  A    between atoms: S_1  and  C_26
REMARK    3  A    between atoms: N_4  and  C_12
REMARK    4  A    between atoms: C_7  and  C_11
REMARK    5  A    between atoms: C_12  and  C_13
REMARK    6  A    between atoms: C_20  and  C_25
REMARK                            x       y       z     vdW  Elec       q    Type
REMARK                         _______ _______ _______ _____ _____    ______ ____
ROOT
ATOM      4  N   UNL     1      12.033   4.093   1.590  0.00  0.00    -0.297 NA
ATOM      7  C   UNL     1      10.411   5.038   2.995  0.00  0.00    +0.070 C 
ATOM      8  C   UNL     1      11.220   6.158   2.316  0.00  0.00    +0.028 C 
ATOM      9  C   UNL     1      11.250   3.770   2.784  0.00  0.00    +0.096 C 
ATOM     10  C   UNL     1      12.475   5.474   1.789  0.00  0.00    +0.085 C 
ENDROOT
BRANCH   7  11
ATOM      5  N   UNL     1      10.271   4.326   5.398  0.00  0.00    -0.342 N 
ATOM      6  N   UNL     1       9.580   6.392   4.959  0.00  0.00    -0.232 NA
ATOM     11  C   UNL     1      10.074   5.288   4.446  0.00  0.00    +0.113 A 
ATOM     14  C   UNL     1       9.877   4.844   6.605  0.00  0.00    +0.066 A 
ATOM     15  C   UNL     1       9.449   6.134   6.305  0.00  0.00    +0.089 A 
ATOM     18  C   UNL     1       9.858   4.311   7.894  0.00  0.00    +0.031 A 
ATOM     19  C   UNL     1       8.972   6.956   7.340  0.00  0.00    +0.030 A 
ATOM     20  C   UNL     1       9.380   5.142   8.912  0.00  0.00    -0.048 A 
ATOM     24  C   UNL     1       8.945   6.442   8.642  0.00  0.00    +0.005 A 
ATOM     25  C   UNL     1       9.336   4.629  10.314  0.00  0.00    +0.044 C 
ATOM     27  H   UNL     1      10.640   3.397   5.243  0.00  0.00    +0.167 HD
ENDBRANCH   7  11
BRANCH   4  12
ATOM     12  C   UNL     1      13.149   3.179   1.393  0.00  0.00    +0.119 C 
BRANCH  12  13
ATOM     13  C   UNL     1      14.105   3.678   0.344  0.00  0.00    -0.033 A 
ATOM     16  C   UNL     1      13.652   3.924  -0.952  0.00  0.00    +0.007 A 
ATOM     17  C   UNL     1      15.444   3.896   0.668  0.00  0.00    +0.007 A 
ATOM     21  C   UNL     1      14.539   4.387  -1.925  0.00  0.00    +0.027 A 
ATOM     22  C   UNL     1      16.330   4.359  -0.304  0.00  0.00    +0.027 A 
ATOM     23  C   UNL     1      15.879   4.604  -1.600  0.00  0.00    +0.088 A 
BRANCH  23   1
ATOM      1  S   UNL     1      16.988   5.187  -2.817  0.00  0.00    -0.006 S 
ATOM      2  O   UNL     1      16.551   4.709  -4.121  0.00  0.00    -0.170 OA
ATOM      3  O   UNL     1      17.185   6.613  -2.598  0.00  0.00    -0.170 OA
ATOM     26  C   UNL     1      18.520   4.361  -2.449  0.00  0.00    +0.200 C 
ENDBRANCH  23   1
ENDBRANCH  12  13
ENDBRANCH   4  12
TORSDOF 4
ENDMDL
MODEL 3
REMARK VINA RESULT:      -7.6      5.178     10.678
REMARK  Name = 45784226
REMARK  6 active torsions:
REMARK  status: ('A' for Active; 'I' for Inactive)
REMARK    1  A    between atoms: S_1  and  C_23
REMARK    2  A    between atoms: S_1  and  C_26
REMARK    3  A    between atoms: N_4  and  C_12
REMARK    4  A    between atoms: C_7  and  C_11
REMARK    5  A    between atoms: C_12  and  C_13
REMARK    6  A    between atoms: C_20  and  C_25
REMARK                            x       y       z     vdW  Elec       q    Type
REMARK                         _______ _______ _______ _____ _____    ______ ____
ROOT
ATOM      4  N   UNL     1      17.716   6.205  20.337  0.00  0.00    -0.297 NA
ATOM      7  C   UNL     1      19.829   5.828  21.282  0.00  0.00    +0.070 C 
ATOM      8  C   UNL     1      19.352   7.247  21.639  0.00  0.00    +0.028 C 
ATOM      9  C   UNL     1      18.913   5.387  20.132  0.00  0.00    +0.096 C 
ATOM     10  C   UNL     1      18.222   7.540  20.660  0.00  0.00    +0.085 C 
ENDROOT
BRANCH   7  11
ATOM      5  N   UNL     1      21.861   4.520  20.604  0.00  0.00    -0.342 N 
ATOM      6  N   UNL     1      22.175   6.696  20.927  0.00  0.00    -0.232 NA
ATOM     11  C   UNL     1      21.297   5.718  20.943  0.00  0.00    +0.113 A 
ATOM     14  C   UNL     1      23.191   4.739  20.353  0.00  0.00    +0.066 A 
ATOM     15  C   UNL     1      23.363   6.104  20.561  0.00  0.00    +0.089 A 
ATOM     18  C   UNL     1      24.228   3.886  19.973  0.00  0.00    +0.031 A 
ATOM     19  C   UNL     1      24.637   6.670  20.384  0.00  0.00    +0.030 A 
ATOM     20  C   UNL     1      25.489   4.465  19.802  0.00  0.00    -0.048 A 
ATOM     24  C   UNL     1      25.692   5.832  20.003  0.00  0.00    +0.005 A 
ATOM     25  C   UNL     1      26.640   3.603  19.395  0.00  0.00    +0.044 C 
ATOM     27  H   UNL     1      21.386   3.629  20.549  0.00  0.00    +0.167 HD
ENDBRANCH   7  11
BRANCH   4  12
ATOM     12  C   UNL     1      16.842   6.212  19.173  0.00  0.00    +0.119 C 
BRANCH  12  13
ATOM     13  C   UNL     1      15.484   6.773  19.496  0.00  0.00    -0.033 A 
ATOM     16  C   UNL     1      14.763   7.461  18.520  0.00  0.00    +0.007 A 
ATOM     17  C   UNL     1      14.945   6.605  20.772  0.00  0.00    +0.007 A 
ATOM     21  C   UNL     1      13.503   7.981  18.820  0.00  0.00    +0.027 A 
ATOM     22  C   UNL     1      13.686   7.125  21.071  0.00  0.00    +0.027 A 
ATOM     23  C   UNL     1      12.966   7.813  20.096  0.00  0.00    +0.088 A 
BRANCH  23   1
ATOM      1  S   UNL     1      11.388   8.462  20.470  0.00  0.00    -0.006 S 
ATOM      2  O   UNL     1      11.552   9.702  21.216  0.00  0.00    -0.170 OA
ATOM      3  O   UNL     1      10.598   8.453  19.247  0.00  0.00    -0.170 OA
ATOM     26  C   UNL     1      10.676   7.275  21.588  0.00  0.00    +0.200 C 
ENDBRANCH  23   1
ENDBRANCH  12  13
ENDBRANCH   4  12
TORSDOF 4
ENDMDL
MODEL 4
REMARK VINA RESULT:      -7.5     28.684     31.048
REMARK  Name = 45784226
REMARK  6 active torsions:
REMARK  status: ('A' for Active; 'I' for Inactive)
REMARK    1  A    between atoms: S_1  and  C_23
REMARK    2  A    between atoms: S_1  and  C_26
REMARK    3  A    between atoms: N_4  and  C_12
REMARK    4  A    between atoms: C_7  and  C_11
REMARK    5  A    between atoms: C_12  and  C_13
REMARK    6  A    between atoms: C_20  and  C_25
REMARK                            x       y       z     vdW  Elec       q    Type
REMARK                         _______ _______ _______ _____ _____    ______ ____
ROOT
ATOM      4  N   UNL     1     -17.058   4.158  25.724  0.00  0.00    -0.297 NA
ATOM      7  C   UNL     1     -16.262   4.852  23.631  0.00  0.00    +0.070 C 
ATOM      8  C   UNL     1     -15.614   3.507  24.007  0.00  0.00    +0.028 C 
ATOM      9  C   UNL     1     -16.855   5.380  24.944  0.00  0.00    +0.096 C 
ATOM     10  C   UNL     1     -15.848   3.364  25.506  0.00  0.00    +0.085 C 
ENDROOT
BRANCH   7  11
ATOM      5  N   UNL     1     -14.283   5.420  22.195  0.00  0.00    -0.342 N 
ATOM      6  N   UNL     1     -15.404   7.149  23.025  0.00  0.00    -0.232 NA
ATOM     11  C   UNL     1     -15.333   5.839  22.964  0.00  0.00    +0.113 A 
ATOM     14  C   UNL     1     -13.632   6.534  21.731  0.00  0.00    +0.066 A 
ATOM     15  C   UNL     1     -14.351   7.601  22.262  0.00  0.00    +0.089 A 
ATOM     18  C   UNL     1     -12.511   6.695  20.916  0.00  0.00    +0.031 A 
ATOM     19  C   UNL     1     -13.941   8.914  21.974  0.00  0.00    +0.030 A 
ATOM     20  C   UNL     1     -12.117   8.007  20.640  0.00  0.00    -0.048 A 
ATOM     24  C   UNL     1     -12.818   9.099  21.158  0.00  0.00    +0.005 A 
ATOM     25  C   UNL     1     -10.924   8.246  19.773  0.00  0.00    +0.044 C 
ATOM     27  H   UNL     1     -14.027   4.460  22.003  0.00  0.00    +0.167 HD
ENDBRANCH   7  11
BRANCH   4  12
ATOM     12  C   UNL     1     -17.294   4.431  27.135  0.00  0.00    +0.119 C 
BRANCH  12  13
ATOM     13  C   UNL     1     -16.754   3.337  28.015  0.00  0.00    -0.033 A 
ATOM     16  C   UNL     1     -15.707   3.605  28.898  0.00  0.00    +0.007 A 
ATOM     17  C   UNL     1     -17.300   2.055  27.949  0.00  0.00    +0.007 A 
ATOM     21  C   UNL     1     -15.207   2.590  29.715  0.00  0.00    +0.027 A 
ATOM     22  C   UNL     1     -16.799   1.041  28.765  0.00  0.00    +0.027 A 
ATOM     23  C   UNL     1     -15.753   1.308  29.647  0.00  0.00    +0.088 A 
BRANCH  23   1
ATOM      1  S   UNL     1     -15.129   0.039  30.672  0.00  0.00    -0.006 S 
ATOM      2  O   UNL     1     -14.757   0.611  31.958  0.00  0.00    -0.170 OA
ATOM      3  O   UNL     1     -16.060  -1.080  30.619  0.00  0.00    -0.170 OA
ATOM     26  C   UNL     1     -13.620  -0.469  29.876  0.00  0.00    +0.200 C 
ENDBRANCH  23   1
ENDBRANCH  12  13
ENDBRANCH   4  12
TORSDOF 4
ENDMDL
MODEL 5
REMARK VINA RESULT:      -7.5     27.596     29.784
REMARK  Name = 45784226
REMARK  6 active torsions:
REMARK  status: ('A' for Active; 'I' for Inactive)
REMARK    1  A    between atoms: S_1  and  C_23
REMARK    2  A    between atoms: S_1  and  C_26
REMARK    3  A    between atoms: N_4  and  C_12
REMARK    4  A    between atoms: C_7  and  C_11
REMARK    5  A    between atoms: C_12  and  C_13
REMARK    6  A    between atoms: C_20  and  C_25
REMARK                            x       y       z     vdW  Elec       q    Type
REMARK                         _______ _______ _______ _____ _____    ______ ____
ROOT
ATOM      4  N   UNL     1     -14.275   6.331  21.669  0.00  0.00    -0.297 NA
ATOM      7  C   UNL     1     -15.693   4.692  22.565  0.00  0.00    +0.070 C 
ATOM      8  C   UNL     1     -16.417   6.050  22.559  0.00  0.00    +0.028 C 
ATOM      9  C   UNL     1     -14.213   5.038  22.354  0.00  0.00    +0.096 C 
ATOM     10  C   UNL     1     -15.312   7.084  22.377  0.00  0.00    +0.085 C 
ENDROOT
BRANCH   7  11
ATOM      5  N   UNL     1     -15.744   4.357  25.052  0.00  0.00    -0.342 N 
ATOM      6  N   UNL     1     -16.329   2.598  23.827  0.00  0.00    -0.232 NA
ATOM     11  C   UNL     1     -15.932   3.850  23.796  0.00  0.00    +0.113 A 
ATOM     14  C   UNL     1     -16.039   3.366  25.953  0.00  0.00    +0.066 A 
ATOM     15  C   UNL     1     -16.401   2.278  25.164  0.00  0.00    +0.089 A 
ATOM     18  C   UNL     1     -16.020   3.329  27.347  0.00  0.00    +0.031 A 
ATOM     19  C   UNL     1     -16.771   1.074  25.786  0.00  0.00    +0.030 A 
ATOM     20  C   UNL     1     -16.390   2.123  27.950  0.00  0.00    -0.048 A 
ATOM     24  C   UNL     1     -16.759   1.014  27.185  0.00  0.00    +0.005 A 
ATOM     25  C   UNL     1     -16.390   2.020  29.440  0.00  0.00    +0.044 C 
ATOM     27  H   UNL     1     -15.440   5.294  25.280  0.00  0.00    +0.167 HD
ENDBRANCH   7  11
BRANCH   4  12
ATOM     12  C   UNL     1     -12.994   7.022  21.668  0.00  0.00    +0.119 C 
BRANCH  12  13
ATOM     13  C   UNL     1     -12.607   7.483  20.289  0.00  0.00    -0.033 A 
ATOM     16  C   UNL     1     -13.588   7.677  19.317  0.00  0.00    +0.007 A 
ATOM     17  C   UNL     1     -11.266   7.716  19.982  0.00  0.00    +0.007 A 
ATOM     21  C   UNL     1     -13.229   8.105  18.038  0.00  0.00    +0.027 A 
ATOM     22  C   UNL     1     -10.907   8.143  18.705  0.00  0.00    +0.027 A 
ATOM     23  C   UNL     1     -11.888   8.337  17.733  0.00  0.00    +0.088 A 
BRANCH  23   1
ATOM      1  S   UNL     1     -11.439   8.876  16.133  0.00  0.00    -0.006 S 
ATOM      2  O   UNL     1     -10.492   7.926  15.564  0.00  0.00    -0.170 OA
ATOM      3  O   UNL     1     -12.660   9.201  15.410  0.00  0.00    -0.170 OA
ATOM     26  C   UNL     1     -10.548  10.391  16.411  0.00  0.00    +0.200 C 
ENDBRANCH  23   1
ENDBRANCH  12  13
ENDBRANCH   4  12
TORSDOF 4
ENDMDL
MODEL 6
REMARK VINA RESULT:      -7.4      4.713      9.114
REMARK  Name = 45784226
REMARK  6 active torsions:
REMARK  status: ('A' for Active; 'I' for Inactive)
REMARK    1  A    between atoms: S_1  and  C_23
REMARK    2  A    between atoms: S_1  and  C_26
REMARK    3  A    between atoms: N_4  and  C_12
REMARK    4  A    between atoms: C_7  and  C_11
REMARK    5  A    between atoms: C_12  and  C_13
REMARK    6  A    between atoms: C_20  and  C_25
REMARK                            x       y       z     vdW  Elec       q    Type
REMARK                         _______ _______ _______ _____ _____    ______ ____
ROOT
ATOM      4  N   UNL     1      11.620   8.380  21.401  0.00  0.00    -0.297 NA
ATOM      7  C   UNL     1      13.423   7.767  20.033  0.00  0.00    +0.070 C 
ATOM      8  C   UNL     1      12.355   6.660  20.003  0.00  0.00    +0.028 C 
ATOM      9  C   UNL     1      13.054   8.631  21.247  0.00  0.00    +0.096 C 
ATOM     10  C   UNL     1      11.466   6.938  21.208  0.00  0.00    +0.085 C 
ENDROOT
BRANCH   7  11
ATOM      5  N   UNL     1      15.713   7.668  21.056  0.00  0.00    -0.342 N 
ATOM      6  N   UNL     1      15.419   6.446  19.225  0.00  0.00    -0.232 NA
ATOM     11  C   UNL     1      14.850   7.272  20.073  0.00  0.00    +0.113 A 
ATOM     14  C   UNL     1      16.919   7.058  20.827  0.00  0.00    +0.066 A 
ATOM     15  C   UNL     1      16.710   6.300  19.678  0.00  0.00    +0.089 A 
ATOM     18  C   UNL     1      18.138   7.101  21.505  0.00  0.00    +0.031 A 
ATOM     19  C   UNL     1      17.769   5.534  19.161  0.00  0.00    +0.030 A 
ATOM     20  C   UNL     1      19.180   6.334  20.977  0.00  0.00    -0.048 A 
ATOM     24  C   UNL     1      19.001   5.563  19.825  0.00  0.00    +0.005 A 
ATOM     25  C   UNL     1      20.510   6.338  21.658  0.00  0.00    +0.044 C 
ATOM     27  H   UNL     1      15.504   8.300  21.818  0.00  0.00    +0.167 HD
ENDBRANCH   7  11
BRANCH   4  12
ATOM     12  C   UNL     1      11.114   8.823  22.692  0.00  0.00    +0.119 C 
BRANCH  12  13
ATOM     13  C   UNL     1      11.104  10.323  22.806  0.00  0.00    -0.033 A 
ATOM     16  C   UNL     1      10.938  10.927  24.052  0.00  0.00    +0.007 A 
ATOM     17  C   UNL     1      11.261  11.110  21.665  0.00  0.00    +0.007 A 
ATOM     21  C   UNL     1      10.929  12.319  24.158  0.00  0.00    +0.027 A 
ATOM     22  C   UNL     1      11.252  12.500  21.770  0.00  0.00    +0.027 A 
ATOM     23  C   UNL     1      11.085  13.105  23.016  0.00  0.00    +0.088 A 
BRANCH  23   1
ATOM      1  S   UNL     1      11.077  14.846  23.148  0.00  0.00    -0.006 S 
ATOM      2  O   UNL     1      11.942  15.240  24.251  0.00  0.00    -0.170 OA
ATOM      3  O   UNL     1      11.302  15.398  21.820  0.00  0.00    -0.170 OA
ATOM     26  C   UNL     1       9.411  15.244  23.629  0.00  0.00    +0.200 C 
ENDBRANCH  23   1
ENDBRANCH  12  13
ENDBRANCH   4  12
TORSDOF 4
ENDMDL
MODEL 7
REMARK VINA RESULT:      -7.4      4.636      8.603
REMARK  Name = 45784226
REMARK  6 active torsions:
REMARK  status: ('A' for Active; 'I' for Inactive)
REMARK    1  A    between atoms: S_1  and  C_23
REMARK    2  A    between atoms: S_1  and  C_26
REMARK    3  A    between atoms: N_4  and  C_12
REMARK    4  A    between atoms: C_7  and  C_11
REMARK    5  A    between atoms: C_12  and  C_13
REMARK    6  A    between atoms: C_20  and  C_25
REMARK                            x       y       z     vdW  Elec       q    Type
REMARK                         _______ _______ _______ _____ _____    ______ ____
ROOT
ATOM      4  N   UNL     1      12.225   8.546  19.266  0.00  0.00    -0.297 NA
ATOM      7  C   UNL     1      14.524   8.349  18.850  0.00  0.00    +0.070 C 
ATOM      8  C   UNL     1      13.743   7.491  17.839  0.00  0.00    +0.028 C 
ATOM      9  C   UNL     1      13.509   8.664  19.958  0.00  0.00    +0.096 C 
ATOM     10  C   UNL     1      12.351   7.345  18.439  0.00  0.00    +0.085 C 
ENDROOT
BRANCH   7  11
ATOM      5  N   UNL     1      16.497   8.280  20.401  0.00  0.00    -0.342 N 
ATOM      6  N   UNL     1      16.353   6.608  18.944  0.00  0.00    -0.232 NA
ATOM     11  C   UNL     1      15.792   7.716  19.374  0.00  0.00    +0.113 A 
ATOM     14  C   UNL     1      17.585   7.483  20.650  0.00  0.00    +0.066 A 
ATOM     15  C   UNL     1      17.473   6.447  19.728  0.00  0.00    +0.089 A 
ATOM     18  C   UNL     1      18.626   7.578  21.573  0.00  0.00    +0.031 A 
ATOM     19  C   UNL     1      18.448   5.435  19.712  0.00  0.00    +0.030 A 
ATOM     20  C   UNL     1      19.588   6.564  21.544  0.00  0.00    -0.048 A 
ATOM     24  C   UNL     1      19.502   5.510  20.631  0.00  0.00    +0.005 A 
ATOM     25  C   UNL     1      20.728   6.608  22.509  0.00  0.00    +0.044 C 
ATOM     27  H   UNL     1      16.262   9.132  20.891  0.00  0.00    +0.167 HD
ENDBRANCH   7  11
BRANCH   4  12
ATOM     12  C   UNL     1      11.102   8.466  20.189  0.00  0.00    +0.119 C 
BRANCH  12  13
ATOM     13  C   UNL     1      11.193   9.504  21.274  0.00  0.00    -0.033 A 
ATOM     16  C   UNL     1      11.642  10.790  20.974  0.00  0.00    +0.007 A 
ATOM     17  C   UNL     1      10.829   9.180  22.581  0.00  0.00    +0.007 A 
ATOM     21  C   UNL     1      11.727  11.752  21.981  0.00  0.00    +0.027 A 
ATOM     22  C   UNL     1      10.914  10.142  23.587  0.00  0.00    +0.027 A 
ATOM     23  C   UNL     1      11.363  11.427  23.288  0.00  0.00    +0.088 A 
BRANCH  23   1
ATOM      1  S   UNL     1      11.466  12.633  24.548  0.00  0.00    -0.006 S 
ATOM      2  O   UNL     1      11.454  13.954  23.937  0.00  0.00    -0.170 OA
ATOM      3  O   UNL     1      10.485  12.298  25.570  0.00  0.00    -0.170 OA
ATOM     26  C   UNL     1      13.086  12.401  25.249  0.00  0.00    +0.200 C 
ENDBRANCH  23   1
ENDBRANCH  12  13
ENDBRANCH   4  12
TORSDOF 4
ENDMDL
MODEL 8
REMARK VINA RESULT:      -7.4      5.274     10.957
REMARK  Name = 45784226
REMARK  6 active torsions:
REMARK  status: ('A' for Active; 'I' for Inactive)
REMARK    1  A    between atoms: S_1  and  C_23
REMARK    2  A    between atoms: S_1  and  C_26
REMARK    3  A    between atoms: N_4  and  C_12
REMARK    4  A    between atoms: C_7  and  C_11
REMARK    5  A    between atoms: C_12  and  C_13
REMARK    6  A    between atoms: C_20  and  C_25
REMARK                            x       y       z     vdW  Elec       q    Type
REMARK                         _______ _______ _______ _____ _____    ______ ____
ROOT
ATOM      4  N   UNL     1      18.777   7.034  20.800  0.00  0.00    -0.297 NA
ATOM      7  C   UNL     1      20.659   5.669  20.495  0.00  0.00    +0.070 C 
ATOM      8  C   UNL     1      19.494   5.137  19.641  0.00  0.00    +0.028 C 
ATOM      9  C   UNL     1      20.002   6.632  21.493  0.00  0.00    +0.096 C 
ATOM     10  C   UNL     1      18.249   5.800  20.218  0.00  0.00    +0.085 C 
ENDROOT
BRANCH   7  11
ATOM      5  N   UNL     1      22.350   3.815  20.447  0.00  0.00    -0.342 N 
ATOM      6  N   UNL     1      21.509   4.306  22.444  0.00  0.00    -0.232 NA
ATOM     11  C   UNL     1      21.493   4.603  21.165  0.00  0.00    +0.113 A 
ATOM     14  C   UNL     1      22.959   2.953  21.322  0.00  0.00    +0.066 A 
ATOM     15  C   UNL     1      22.418   3.279  22.562  0.00  0.00    +0.089 A 
ATOM     18  C   UNL     1      23.908   1.946  21.141  0.00  0.00    +0.031 A 
ATOM     19  C   UNL     1      22.837   2.570  23.701  0.00  0.00    +0.030 A 
ATOM     20  C   UNL     1      24.314   1.251  22.284  0.00  0.00    -0.048 A 
ATOM     24  C   UNL     1      23.789   1.555  23.543  0.00  0.00    +0.005 A 
ATOM     25  C   UNL     1      25.329   0.162  22.155  0.00  0.00    +0.044 C 
ATOM     27  H   UNL     1      22.508   3.857  19.449  0.00  0.00    +0.167 HD
ENDBRANCH   7  11
BRANCH   4  12
ATOM     12  C   UNL     1      17.821   7.679  21.689  0.00  0.00    +0.119 C 
BRANCH  12  13
ATOM     13  C   UNL     1      16.464   7.811  21.053  0.00  0.00    -0.033 A 
ATOM     16  C   UNL     1      16.226   8.818  20.118  0.00  0.00    +0.007 A 
ATOM     17  C   UNL     1      15.443   6.925  21.399  0.00  0.00    +0.007 A 
ATOM     21  C   UNL     1      14.967   8.939  19.528  0.00  0.00    +0.027 A 
ATOM     22  C   UNL     1      14.185   7.046  20.810  0.00  0.00    +0.027 A 
ATOM     23  C   UNL     1      13.947   8.053  19.875  0.00  0.00    +0.088 A 
BRANCH  23   1
ATOM      1  S   UNL     1      12.372   8.203  19.135  0.00  0.00    -0.006 S 
ATOM      2  O   UNL     1      12.341   9.419  18.335  0.00  0.00    -0.170 OA
ATOM      3  O   UNL     1      12.041   6.925  18.521  0.00  0.00    -0.170 OA
ATOM     26  C   UNL     1      11.263   8.455  20.503  0.00  0.00    +0.200 C 
ENDBRANCH  23   1
ENDBRANCH  12  13
ENDBRANCH   4  12
TORSDOF 4
ENDMDL
MODEL 9
REMARK VINA RESULT:      -7.2     27.093     29.126
REMARK  Name = 45784226
REMARK  6 active torsions:
REMARK  status: ('A' for Active; 'I' for Inactive)
REMARK    1  A    between atoms: S_1  and  C_23
REMARK    2  A    between atoms: S_1  and  C_26
REMARK    3  A    between atoms: N_4  and  C_12
REMARK    4  A    between atoms: C_7  and  C_11
REMARK    5  A    between atoms: C_12  and  C_13
REMARK    6  A    between atoms: C_20  and  C_25
REMARK                            x       y       z     vdW  Elec       q    Type
REMARK                         _______ _______ _______ _____ _____    ______ ____
ROOT
ATOM      4  N   UNL     1      -1.971 -10.949  13.781  0.00  0.00    -0.297 NA
ATOM      7  C   UNL     1      -3.131 -10.178  15.667  0.00  0.00    +0.070 C 
ATOM      8  C   UNL     1      -1.719 -10.631  16.081  0.00  0.00    +0.028 C 
ATOM      9  C   UNL     1      -3.340 -10.783  14.272  0.00  0.00    +0.096 C 
ATOM     10  C   UNL     1      -1.223 -11.483  14.920  0.00  0.00    +0.085 C 
ENDROOT
BRANCH   7  11
ATOM      5  N   UNL     1      -5.475 -10.001  16.545  0.00  0.00    -0.342 N 
ATOM      6  N   UNL     1      -4.133 -11.387  17.646  0.00  0.00    -0.232 NA
ATOM     11  C   UNL     1      -4.226 -10.546  16.641  0.00  0.00    +0.113 A 
ATOM     14  C   UNL     1      -6.240 -10.524  17.556  0.00  0.00    +0.066 A 
ATOM     15  C   UNL     1      -5.380 -11.387  18.229  0.00  0.00    +0.089 A 
ATOM     18  C   UNL     1      -7.570 -10.323  17.928  0.00  0.00    +0.031 A 
ATOM     19  C   UNL     1      -5.858 -12.101  19.341  0.00  0.00    +0.030 A 
ATOM     20  C   UNL     1      -8.028 -11.041  19.037  0.00  0.00    -0.048 A 
ATOM     24  C   UNL     1      -7.189 -11.915  19.732  0.00  0.00    +0.005 A 
ATOM     25  C   UNL     1      -9.443 -10.869  19.485  0.00  0.00    +0.044 C 
ATOM     27  H   UNL     1      -5.785  -9.329  15.855  0.00  0.00    +0.167 HD
ENDBRANCH   7  11
BRANCH   4  12
ATOM     12  C   UNL     1      -1.901 -11.820  12.616  0.00  0.00    +0.119 C 
BRANCH  12  13
ATOM     13  C   UNL     1      -2.846 -11.381  11.530  0.00  0.00    -0.033 A 
ATOM     16  C   UNL     1      -2.815 -10.065  11.069  0.00  0.00    +0.007 A 
ATOM     17  C   UNL     1      -3.752 -12.290  10.984  0.00  0.00    +0.007 A 
ATOM     21  C   UNL     1      -3.691  -9.658  10.061  0.00  0.00    +0.027 A 
ATOM     22  C   UNL     1      -4.628 -11.884   9.978  0.00  0.00    +0.027 A 
ATOM     23  C   UNL     1      -4.598 -10.568   9.517  0.00  0.00    +0.088 A 
BRANCH  23   1
ATOM      1  S   UNL     1      -5.692 -10.060   8.254  0.00  0.00    -0.006 S 
ATOM      2  O   UNL     1      -6.146  -8.706   8.541  0.00  0.00    -0.170 OA
ATOM      3  O   UNL     1      -5.068 -10.358   6.973  0.00  0.00    -0.170 OA
ATOM     26  C   UNL     1      -7.103 -11.129   8.436  0.00  0.00    +0.200 C 
ENDBRANCH  23   1
ENDBRANCH  12  13
ENDBRANCH   4  12
TORSDOF 4
ENDMDL
MODEL 10
REMARK VINA RESULT:      -7.0     21.939     24.067
REMARK  Name = 45784226
REMARK  6 active torsions:
REMARK  status: ('A' for Active; 'I' for Inactive)
REMARK    1  A    between atoms: S_1  and  C_23
REMARK    2  A    between atoms: S_1  and  C_26
REMARK    3  A    between atoms: N_4  and  C_12
REMARK    4  A    between atoms: C_7  and  C_11
REMARK    5  A    between atoms: C_12  and  C_13
REMARK    6  A    between atoms: C_20  and  C_25
REMARK                            x       y       z     vdW  Elec       q    Type
REMARK                         _______ _______ _______ _____ _____    ______ ____
ROOT
ATOM      4  N   UNL     1      -2.251   9.492   5.305  0.00  0.00    -0.297 NA
ATOM      7  C   UNL     1      -1.344  11.468   6.183  0.00  0.00    +0.070 C 
ATOM      8  C   UNL     1      -0.700  11.169   4.817  0.00  0.00    +0.028 C 
ATOM      9  C   UNL     1      -2.019  10.152   6.591  0.00  0.00    +0.096 C 
ATOM     10  C   UNL     1      -1.019   9.705   4.544  0.00  0.00    +0.085 C 
ENDROOT
BRANCH   7  11
ATOM      5  N   UNL     1       0.963  11.946   7.049  0.00  0.00    -0.342 N 
ATOM      6  N   UNL     1      -0.712  12.532   8.386  0.00  0.00    -0.232 NA
ATOM     11  C   UNL     1      -0.391  11.993   7.231  0.00  0.00    +0.113 A 
ATOM     14  C   UNL     1       1.555  12.491   8.160  0.00  0.00    +0.066 A 
ATOM     15  C   UNL     1       0.488  12.849   8.980  0.00  0.00    +0.089 A 
ATOM     18  C   UNL     1       2.890  12.695   8.508  0.00  0.00    +0.031 A 
ATOM     19  C   UNL     1       0.751  13.448  10.223  0.00  0.00    +0.030 A 
ATOM     20  C   UNL     1       3.134  13.291   9.749  0.00  0.00    -0.048 A 
ATOM     24  C   UNL     1       2.084  13.662  10.593  0.00  0.00    +0.005 A 
ATOM     25  C   UNL     1       4.543  13.537  10.178  0.00  0.00    +0.044 C 
ATOM     27  H   UNL     1       1.447  11.576   6.242  0.00  0.00    +0.167 HD
ENDBRANCH   7  11
BRANCH   4  12
ATOM     12  C   UNL     1      -2.572   8.080   5.455  0.00  0.00    +0.119 C 
BRANCH  12  13
ATOM     13  C   UNL     1      -3.990   7.782   5.051  0.00  0.00    -0.033 A 
ATOM     16  C   UNL     1      -4.803   8.800   4.552  0.00  0.00    +0.007 A 
ATOM     17  C   UNL     1      -4.493   6.486   5.176  0.00  0.00    +0.007 A 
ATOM     21  C   UNL     1      -6.118   8.522   4.178  0.00  0.00    +0.027 A 
ATOM     22  C   UNL     1      -5.807   6.209   4.802  0.00  0.00    +0.027 A 
ATOM     23  C   UNL     1      -6.620   7.227   4.304  0.00  0.00    +0.088 A 
BRANCH  23   1
ATOM      1  S   UNL     1      -8.266   6.879   3.832  0.00  0.00    -0.006 S 
ATOM      2  O   UNL     1      -8.654   7.794   2.769  0.00  0.00    -0.170 OA
ATOM      3  O   UNL     1      -8.380   5.442   3.629  0.00  0.00    -0.170 OA
ATOM     26  C   UNL     1      -9.234   7.307   5.263  0.00  0.00    +0.200 C 
ENDBRANCH  23   1
ENDBRANCH  12  13
ENDBRANCH   4  12
TORSDOF 4
ENDMDL
