MODEL 1
REMARK VINA RESULT:      -7.4      0.000      0.000
REMARK  Name = 51136914
REMARK  5 active torsions:
REMARK  status: ('A' for Active; 'I' for Inactive)
REMARK    1  A    between atoms: N_2  and  C_13
REMARK    2  A    between atoms: C_9  and  C_14
REMARK    3  A    between atoms: C_13  and  C_15
REMARK    4  A    between atoms: C_16  and  C_19
REMARK    5  A    between atoms: C_25  and  C_26
REMARK                            x       y       z     vdW  Elec       q    Type
REMARK                         _______ _______ _______ _____ _____    ______ ____
ROOT
ATOM      1  O   UNL     1      14.971   8.684  19.703  0.00  0.00    -0.336 OA
ATOM      3  N   UNL     1      15.837   6.746  18.991  0.00  0.00    -0.190 NA
ATOM      4  N   UNL     1      16.161   8.502  20.420  0.00  0.00    -0.056 NA
ATOM     14  C   UNL     1      14.855   7.606  18.885  0.00  0.00    +0.245 A 
ATOM     16  C   UNL     1      16.613   7.339  19.943  0.00  0.00    +0.204 A 
ENDROOT
BRANCH  16  19
ATOM      6  N   UNL     1      19.558   5.074  20.089  0.00  0.00    -0.254 NA
ATOM     19  C   UNL     1      17.834   6.740  20.399  0.00  0.00    +0.041 A 
ATOM     22  C   UNL     1      18.476   7.203  21.543  0.00  0.00    +0.015 A 
ATOM     23  C   UNL     1      18.411   5.683  19.714  0.00  0.00    +0.123 A 
ATOM     24  C   UNL     1      19.659   6.601  21.960  0.00  0.00    +0.029 A 
ATOM     25  C   UNL     1      20.153   5.550  21.206  0.00  0.00    +0.074 A 
BRANCH  25  26
ATOM      7  N   UNL     1      23.489   4.889  22.730  0.00  0.00    -0.243 NA
ATOM      8  N   UNL     1      22.797   2.938  21.498  0.00  0.00    -0.243 NA
ATOM     26  C   UNL     1      21.376   4.879  21.578  0.00  0.00    +0.037 A 
ATOM     27  C   UNL     1      22.335   5.484  22.365  0.00  0.00    +0.124 A 
ATOM     28  C   UNL     1      21.664   3.593  21.169  0.00  0.00    +0.124 A 
ATOM     29  C   UNL     1      23.654   3.634  22.269  0.00  0.00    +0.221 A 
ENDBRANCH  25  26
ENDBRANCH  16  19
BRANCH  14   9
ATOM      2  N   UNL     1      12.536   8.416  18.492  0.00  0.00    -0.287 NA
ATOM      9  C   UNL     1      13.633   7.564  17.992  0.00  0.00    +0.146 C 
ATOM     10  C   UNL     1      13.918   8.087  16.572  0.00  0.00    +0.030 C 
ATOM     11  C   UNL     1      12.892   9.188  16.341  0.00  0.00    +0.017 C 
ATOM     12  C   UNL     1      11.783   8.852  17.316  0.00  0.00    +0.085 C 
BRANCH   2  13
ATOM     13  C   UNL     1      11.687   7.745  19.468  0.00  0.00    +0.120 C 
BRANCH  13  15
ATOM      5  N   UNL     1      10.926  10.218  22.904  0.00  0.00    -0.263 NA
ATOM     15  C   UNL     1      11.421   8.611  20.671  0.00  0.00    -0.030 A 
ATOM     17  C   UNL     1      11.830   9.940  20.679  0.00  0.00    +0.024 A 
ATOM     18  C   UNL     1      10.764   8.084  21.778  0.00  0.00    +0.024 A 
ATOM     20  C   UNL     1      11.562  10.694  21.809  0.00  0.00    +0.111 A 
ATOM     21  C   UNL     1      10.543   8.922  22.859  0.00  0.00    +0.111 A 
ENDBRANCH  13  15
ENDBRANCH   2  13
ENDBRANCH  14   9
TORSDOF 5
ENDMDL
MODEL 2
REMARK VINA RESULT:      -7.3      1.629      3.625
REMARK  Name = 51136914
REMARK  5 active torsions:
REMARK  status: ('A' for Active; 'I' for Inactive)
REMARK    1  A    between atoms: N_2  and  C_13
REMARK    2  A    between atoms: C_9  and  C_14
REMARK    3  A    between atoms: C_13  and  C_15
REMARK    4  A    between atoms: C_16  and  C_19
REMARK    5  A    between atoms: C_25  and  C_26
REMARK                            x       y       z     vdW  Elec       q    Type
REMARK                         _______ _______ _______ _____ _____    ______ ____
ROOT
ATOM      1  O   UNL     1      14.423   6.855  19.461  0.00  0.00    -0.336 OA
ATOM      3  N   UNL     1      15.642   7.516  21.219  0.00  0.00    -0.190 NA
ATOM      4  N   UNL     1      15.700   6.308  19.278  0.00  0.00    -0.056 NA
ATOM     14  C   UNL     1      14.475   7.552  20.626  0.00  0.00    +0.245 A 
ATOM     16  C   UNL     1      16.359   6.742  20.355  0.00  0.00    +0.204 A 
ENDROOT
BRANCH  16  19
ATOM      6  N   UNL     1      19.742   6.782  21.900  0.00  0.00    -0.254 NA
ATOM     19  C   UNL     1      17.737   6.422  20.597  0.00  0.00    +0.041 A 
ATOM     22  C   UNL     1      18.404   5.487  19.814  0.00  0.00    +0.015 A 
ATOM     23  C   UNL     1      18.444   7.037  21.619  0.00  0.00    +0.123 A 
ATOM     24  C   UNL     1      19.740   5.199  20.073  0.00  0.00    +0.029 A 
ATOM     25  C   UNL     1      20.358   5.867  21.117  0.00  0.00    +0.074 A 
BRANCH  25  26
ATOM      7  N   UNL     1      23.980   5.073  20.748  0.00  0.00    -0.243 NA
ATOM      8  N   UNL     1      23.497   5.435  23.080  0.00  0.00    -0.243 NA
ATOM     26  C   UNL     1      21.741   5.618  21.444  0.00  0.00    +0.037 A 
ATOM     27  C   UNL     1      22.680   5.313  20.479  0.00  0.00    +0.124 A 
ATOM     28  C   UNL     1      22.212   5.665  22.740  0.00  0.00    +0.124 A 
ATOM     29  C   UNL     1      24.315   5.149  22.051  0.00  0.00    +0.221 A 
ENDBRANCH  25  26
ENDBRANCH  16  19
BRANCH  14   9
ATOM      2  N   UNL     1      12.384   8.692  19.907  0.00  0.00    -0.287 NA
ATOM      9  C   UNL     1      13.200   8.247  21.055  0.00  0.00    +0.146 C 
ATOM     10  C   UNL     1      12.267   7.330  21.866  0.00  0.00    +0.030 C 
ATOM     11  C   UNL     1      10.934   7.370  21.133  0.00  0.00    +0.017 C 
ATOM     12  C   UNL     1      10.992   8.671  20.358  0.00  0.00    +0.085 C 
BRANCH   2  13
ATOM     13  C   UNL     1      12.775  10.000  19.397  0.00  0.00    +0.120 C 
BRANCH  13  15
ATOM      5  N   UNL     1      13.854   9.838  15.237  0.00  0.00    -0.263 NA
ATOM     15  C   UNL     1      13.153   9.944  17.941  0.00  0.00    -0.030 A 
ATOM     17  C   UNL     1      14.365  10.474  17.512  0.00  0.00    +0.024 A 
ATOM     18  C   UNL     1      12.291   9.360  17.018  0.00  0.00    +0.024 A 
ATOM     20  C   UNL     1      14.666  10.397  16.162  0.00  0.00    +0.111 A 
ATOM     21  C   UNL     1      12.685   9.332  15.690  0.00  0.00    +0.111 A 
ENDBRANCH  13  15
ENDBRANCH   2  13
ENDBRANCH  14   9
TORSDOF 5
ENDMDL
MODEL 3
REMARK VINA RESULT:      -7.1      2.472     10.578
REMARK  Name = 51136914
REMARK  5 active torsions:
REMARK  status: ('A' for Active; 'I' for Inactive)
REMARK    1  A    between atoms: N_2  and  C_13
REMARK    2  A    between atoms: C_9  and  C_14
REMARK    3  A    between atoms: C_13  and  C_15
REMARK    4  A    between atoms: C_16  and  C_19
REMARK    5  A    between atoms: C_25  and  C_26
REMARK                            x       y       z     vdW  Elec       q    Type
REMARK                         _______ _______ _______ _____ _____    ______ ____
ROOT
ATOM      1  O   UNL     1      21.048   5.171  21.030  0.00  0.00    -0.336 OA
ATOM      3  N   UNL     1      19.627   6.615  21.984  0.00  0.00    -0.190 NA
ATOM      4  N   UNL     1      19.945   5.257  20.171  0.00  0.00    -0.056 NA
ATOM     14  C   UNL     1      20.780   6.001  22.072  0.00  0.00    +0.245 A 
ATOM     16  C   UNL     1      19.152   6.128  20.802  0.00  0.00    +0.204 A 
ENDROOT
BRANCH  16  19
ATOM      6  N   UNL     1      16.088   6.169  18.694  0.00  0.00    -0.254 NA
ATOM     19  C   UNL     1      17.877   6.530  20.280  0.00  0.00    +0.041 A 
ATOM     22  C   UNL     1      17.198   7.621  20.810  0.00  0.00    +0.015 A 
ATOM     23  C   UNL     1      17.285   5.843  19.232  0.00  0.00    +0.123 A 
ATOM     24  C   UNL     1      15.964   7.987  20.282  0.00  0.00    +0.029 A 
ATOM     25  C   UNL     1      15.458   7.236  19.235  0.00  0.00    +0.074 A 
BRANCH  25  26
ATOM      7  N   UNL     1      11.811   7.903  18.855  0.00  0.00    -0.243 NA
ATOM      8  N   UNL     1      12.871   8.129  16.703  0.00  0.00    -0.243 NA
ATOM     26  C   UNL     1      14.183   7.557  18.639  0.00  0.00    +0.037 A 
ATOM     27  C   UNL     1      13.019   7.609  19.378  0.00  0.00    +0.124 A 
ATOM     28  C   UNL     1      14.047   7.828  17.293  0.00  0.00    +0.124 A 
ATOM     29  C   UNL     1      11.809   8.149  17.530  0.00  0.00    +0.221 A 
ENDBRANCH  25  26
ENDBRANCH  16  19
BRANCH  14   9
ATOM      2  N   UNL     1      22.916   5.099  22.973  0.00  0.00    -0.287 NA
ATOM      9  C   UNL     1      21.835   6.088  23.154  0.00  0.00    +0.146 C 
ATOM     10  C   UNL     1      22.551   7.451  23.177  0.00  0.00    +0.030 C 
ATOM     11  C   UNL     1      24.033   7.123  23.065  0.00  0.00    +0.017 C 
ATOM     12  C   UNL     1      24.120   5.693  23.555  0.00  0.00    +0.085 C 
BRANCH   2  13
ATOM     13  C   UNL     1      22.610   3.800  23.555  0.00  0.00    +0.120 C 
BRANCH  13  15
ATOM      5  N   UNL     1      24.840   0.636  21.680  0.00  0.00    -0.263 NA
ATOM     15  C   UNL     1      23.390   2.692  22.898  0.00  0.00    -0.030 A 
ATOM     17  C   UNL     1      23.443   2.602  21.512  0.00  0.00    +0.024 A 
ATOM     18  C   UNL     1      24.062   1.756  23.677  0.00  0.00    +0.024 A 
ATOM     20  C   UNL     1      24.174   1.564  20.957  0.00  0.00    +0.111 A 
ATOM     21  C   UNL     1      24.766   0.756  23.025  0.00  0.00    +0.111 A 
ENDBRANCH  13  15
ENDBRANCH   2  13
ENDBRANCH  14   9
TORSDOF 5
ENDMDL
MODEL 4
REMARK VINA RESULT:      -7.0     16.202     20.475
REMARK  Name = 51136914
REMARK  5 active torsions:
REMARK  status: ('A' for Active; 'I' for Inactive)
REMARK    1  A    between atoms: N_2  and  C_13
REMARK    2  A    between atoms: C_9  and  C_14
REMARK    3  A    between atoms: C_13  and  C_15
REMARK    4  A    between atoms: C_16  and  C_19
REMARK    5  A    between atoms: C_25  and  C_26
REMARK                            x       y       z     vdW  Elec       q    Type
REMARK                         _______ _______ _______ _____ _____    ______ ____
ROOT
ATOM      1  O   UNL     1      10.391   7.153  -0.841  0.00  0.00    -0.336 OA
ATOM      3  N   UNL     1      10.444   5.232   0.309  0.00  0.00    -0.190 NA
ATOM      4  N   UNL     1      10.166   7.494   0.499  0.00  0.00    -0.056 NA
ATOM     14  C   UNL     1      10.544   5.803  -0.865  0.00  0.00    +0.245 A 
ATOM     16  C   UNL     1      10.212   6.310   1.113  0.00  0.00    +0.204 A 
ENDROOT
BRANCH  16  19
ATOM      6  N   UNL     1      10.528   4.959   4.564  0.00  0.00    -0.254 NA
ATOM     19  C   UNL     1      10.029   6.166   2.529  0.00  0.00    +0.041 A 
ATOM     22  C   UNL     1       9.215   7.042   3.239  0.00  0.00    +0.015 A 
ATOM     23  C   UNL     1      10.658   5.150   3.232  0.00  0.00    +0.123 A 
ATOM     24  C   UNL     1       9.057   6.877   4.611  0.00  0.00    +0.029 A 
ATOM     25  C   UNL     1       9.728   5.830   5.220  0.00  0.00    +0.074 A 
BRANCH  25  26
ATOM      7  N   UNL     1       8.976   6.369   8.830  0.00  0.00    -0.243 NA
ATOM      8  N   UNL     1       9.916   4.169   8.552  0.00  0.00    -0.243 NA
ATOM     26  C   UNL     1       9.611   5.599   6.640  0.00  0.00    +0.037 A 
ATOM     27  C   UNL     1       9.097   6.550   7.499  0.00  0.00    +0.124 A 
ATOM     28  C   UNL     1      10.009   4.416   7.229  0.00  0.00    +0.124 A 
ATOM     29  C   UNL     1       9.398   5.173   9.283  0.00  0.00    +0.221 A 
ENDBRANCH  25  26
ENDBRANCH  16  19
BRANCH  14   9
ATOM      2  N   UNL     1      11.601   3.938  -2.127  0.00  0.00    -0.287 NA
ATOM      9  C   UNL     1      10.804   5.177  -2.219  0.00  0.00    +0.146 C 
ATOM     10  C   UNL     1       9.508   4.756  -2.937  0.00  0.00    +0.030 C 
ATOM     11  C   UNL     1       9.696   3.281  -3.264  0.00  0.00    +0.017 C 
ATOM     12  C   UNL     1      11.200   3.104  -3.260  0.00  0.00    +0.085 C 
BRANCH   2  13
ATOM     13  C   UNL     1      13.038   4.179  -2.106  0.00  0.00    +0.120 C 
BRANCH  13  15
ATOM      5  N   UNL     1      14.755   3.312   1.741  0.00  0.00    -0.263 NA
ATOM     15  C   UNL     1      13.638   3.876  -0.759  0.00  0.00    -0.030 A 
ATOM     17  C   UNL     1      12.865   3.286   0.235  0.00  0.00    +0.024 A 
ATOM     18  C   UNL     1      14.971   4.183  -0.504  0.00  0.00    +0.024 A 
ATOM     20  C   UNL     1      13.464   3.027   1.456  0.00  0.00    +0.111 A 
ATOM     21  C   UNL     1      15.477   3.884   0.750  0.00  0.00    +0.111 A 
ENDBRANCH  13  15
ENDBRANCH   2  13
ENDBRANCH  14   9
TORSDOF 5
ENDMDL
MODEL 5
REMARK VINA RESULT:      -7.0     26.314     30.327
REMARK  Name = 51136914
REMARK  5 active torsions:
REMARK  status: ('A' for Active; 'I' for Inactive)
REMARK    1  A    between atoms: N_2  and  C_13
REMARK    2  A    between atoms: C_9  and  C_14
REMARK    3  A    between atoms: C_13  and  C_15
REMARK    4  A    between atoms: C_16  and  C_19
REMARK    5  A    between atoms: C_25  and  C_26
REMARK                            x       y       z     vdW  Elec       q    Type
REMARK                         _______ _______ _______ _____ _____    ______ ____
ROOT
ATOM      1  O   UNL     1      -4.867 -11.435  17.098  0.00  0.00    -0.336 OA
ATOM      3  N   UNL     1      -5.548 -10.122  15.417  0.00  0.00    -0.190 NA
ATOM      4  N   UNL     1      -6.157 -11.007  17.436  0.00  0.00    -0.056 NA
ATOM     14  C   UNL     1      -4.585 -10.869  15.896  0.00  0.00    +0.245 A 
ATOM     16  C   UNL     1      -6.491 -10.238  16.396  0.00  0.00    +0.204 A 
ENDROOT
BRANCH  16  19
ATOM      6  N   UNL     1      -9.659  -8.924  14.960  0.00  0.00    -0.254 NA
ATOM     19  C   UNL     1      -7.757  -9.569  16.305  0.00  0.00    +0.041 A 
ATOM     22  C   UNL     1      -8.312  -8.933  17.410  0.00  0.00    +0.015 A 
ATOM     23  C   UNL     1      -8.464  -9.537  15.114  0.00  0.00    +0.123 A 
ATOM     24  C   UNL     1      -9.541  -8.292  17.290  0.00  0.00    +0.029 A 
ATOM     25  C   UNL     1     -10.168  -8.316  16.056  0.00  0.00    +0.074 A 
BRANCH  25  26
ATOM      7  N   UNL     1     -13.837  -7.668  16.122  0.00  0.00    -0.243 NA
ATOM      8  N   UNL     1     -12.742  -5.826  15.020  0.00  0.00    -0.243 NA
ATOM     26  C   UNL     1     -11.445  -7.673  15.859  0.00  0.00    +0.037 A 
ATOM     27  C   UNL     1     -12.627  -8.239  16.291  0.00  0.00    +0.124 A 
ATOM     28  C   UNL     1     -11.565  -6.454  15.223  0.00  0.00    +0.124 A 
ATOM     29  C   UNL     1     -13.822  -6.480  15.488  0.00  0.00    +0.221 A 
ENDBRANCH  25  26
ENDBRANCH  16  19
BRANCH  14   9
ATOM      2  N   UNL     1      -2.986 -10.474  14.031  0.00  0.00    -0.287 NA
ATOM      9  C   UNL     1      -3.227 -11.183  15.303  0.00  0.00    +0.146 C 
ATOM     10  C   UNL     1      -2.066 -10.751  16.218  0.00  0.00    +0.030 C 
ATOM     11  C   UNL     1      -1.193  -9.851  15.354  0.00  0.00    +0.017 C 
ATOM     12  C   UNL     1      -1.541 -10.269  13.940  0.00  0.00    +0.085 C 
BRANCH   2  13
ATOM     13  C   UNL     1      -3.513 -11.180  12.871  0.00  0.00    +0.120 C 
BRANCH  13  15
ATOM      5  N   UNL     1      -4.796  -8.468   9.789  0.00  0.00    -0.263 NA
ATOM     15  C   UNL     1      -3.963 -10.231  11.792  0.00  0.00    -0.030 A 
ATOM     17  C   UNL     1      -5.191  -9.587  11.895  0.00  0.00    +0.024 A 
ATOM     18  C   UNL     1      -3.150  -9.994  10.689  0.00  0.00    +0.024 A 
ATOM     20  C   UNL     1      -5.559  -8.724  10.876  0.00  0.00    +0.111 A 
ATOM     21  C   UNL     1      -3.609  -9.112   9.723  0.00  0.00    +0.111 A 
ENDBRANCH  13  15
ENDBRANCH   2  13
ENDBRANCH  14   9
TORSDOF 5
ENDMDL
MODEL 6
REMARK VINA RESULT:      -6.9      2.548     10.601
REMARK  Name = 51136914
REMARK  5 active torsions:
REMARK  status: ('A' for Active; 'I' for Inactive)
REMARK    1  A    between atoms: N_2  and  C_13
REMARK    2  A    between atoms: C_9  and  C_14
REMARK    3  A    between atoms: C_13  and  C_15
REMARK    4  A    between atoms: C_16  and  C_19
REMARK    5  A    between atoms: C_25  and  C_26
REMARK                            x       y       z     vdW  Elec       q    Type
REMARK                         _______ _______ _______ _____ _____    ______ ____
ROOT
ATOM      1  O   UNL     1      21.069   6.835  22.732  0.00  0.00    -0.336 OA
ATOM      3  N   UNL     1      20.435   5.776  20.864  0.00  0.00    -0.190 NA
ATOM      4  N   UNL     1      19.767   7.274  22.458  0.00  0.00    -0.056 NA
ATOM     14  C   UNL     1      21.385   5.956  21.746  0.00  0.00    +0.245 A 
ATOM     16  C   UNL     1      19.462   6.605  21.344  0.00  0.00    +0.204 A 
ENDROOT
BRANCH  16  19
ATOM      6  N   UNL     1      16.068   7.874  20.513  0.00  0.00    -0.254 NA
ATOM     19  C   UNL     1      18.197   6.742  20.681  0.00  0.00    +0.041 A 
ATOM     22  C   UNL     1      17.858   5.926  19.608  0.00  0.00    +0.015 A 
ATOM     23  C   UNL     1      17.275   7.692  21.092  0.00  0.00    +0.123 A 
ATOM     24  C   UNL     1      16.623   6.084  18.987  0.00  0.00    +0.029 A 
ATOM     25  C   UNL     1      15.772   7.062  19.472  0.00  0.00    +0.074 A 
BRANCH  25  26
ATOM      7  N   UNL     1      13.137   8.023  17.019  0.00  0.00    -0.243 NA
ATOM      8  N   UNL     1      12.074   7.184  19.012  0.00  0.00    -0.243 NA
ATOM     26  C   UNL     1      14.476   7.282  18.876  0.00  0.00    +0.037 A 
ATOM     27  C   UNL     1      14.330   7.802  17.606  0.00  0.00    +0.124 A 
ATOM     28  C   UNL     1      13.302   6.989  19.539  0.00  0.00    +0.124 A 
ATOM     29  C   UNL     1      12.065   7.696  17.767  0.00  0.00    +0.221 A 
ENDBRANCH  25  26
ENDBRANCH  16  19
BRANCH  14   9
ATOM      2  N   UNL     1      22.983   4.325  20.757  0.00  0.00    -0.287 NA
ATOM      9  C   UNL     1      22.762   5.330  21.816  0.00  0.00    +0.146 C 
ATOM     10  C   UNL     1      23.892   6.357  21.622  0.00  0.00    +0.030 C 
ATOM     11  C   UNL     1      24.731   5.813  20.474  0.00  0.00    +0.017 C 
ATOM     12  C   UNL     1      24.418   4.331  20.474  0.00  0.00    +0.085 C 
BRANCH   2  13
ATOM     13  C   UNL     1      22.501   2.997  21.115  0.00  0.00    +0.120 C 
BRANCH  13  15
ATOM      5  N   UNL     1      25.450   0.757  23.301  0.00  0.00    -0.263 NA
ATOM     15  C   UNL     1      23.533   2.212  21.880  0.00  0.00    -0.030 A 
ATOM     17  C   UNL     1      24.358   1.310  21.217  0.00  0.00    +0.024 A 
ATOM     18  C   UNL     1      23.667   2.388  23.253  0.00  0.00    +0.024 A 
ATOM     20  C   UNL     1      25.291   0.613  21.966  0.00  0.00    +0.111 A 
ATOM     21  C   UNL     1      24.632   1.643  23.911  0.00  0.00    +0.111 A 
ENDBRANCH  13  15
ENDBRANCH   2  13
ENDBRANCH  14   9
TORSDOF 5
ENDMDL
MODEL 7
REMARK VINA RESULT:      -6.8      2.704     10.246
REMARK  Name = 51136914
REMARK  5 active torsions:
REMARK  status: ('A' for Active; 'I' for Inactive)
REMARK    1  A    between atoms: N_2  and  C_13
REMARK    2  A    between atoms: C_9  and  C_14
REMARK    3  A    between atoms: C_13  and  C_15
REMARK    4  A    between atoms: C_16  and  C_19
REMARK    5  A    between atoms: C_25  and  C_26
REMARK                            x       y       z     vdW  Elec       q    Type
REMARK                         _______ _______ _______ _____ _____    ______ ____
ROOT
ATOM      1  O   UNL     1      21.433   4.693  20.849  0.00  0.00    -0.336 OA
ATOM      3  N   UNL     1      20.539   6.741  20.985  0.00  0.00    -0.190 NA
ATOM      4  N   UNL     1      20.124   4.580  20.364  0.00  0.00    -0.056 NA
ATOM     14  C   UNL     1      21.596   5.997  21.193  0.00  0.00    +0.245 A 
ATOM     16  C   UNL     1      19.663   5.828  20.475  0.00  0.00    +0.204 A 
ENDROOT
BRANCH  16  19
ATOM      6  N   UNL     1      16.453   5.888  18.599  0.00  0.00    -0.254 NA
ATOM     19  C   UNL     1      18.331   6.197  20.089  0.00  0.00    +0.041 A 
ATOM     22  C   UNL     1      17.630   7.178  20.782  0.00  0.00    +0.015 A 
ATOM     23  C   UNL     1      17.704   5.587  19.014  0.00  0.00    +0.123 A 
ATOM     24  C   UNL     1      16.341   7.515  20.383  0.00  0.00    +0.029 A 
ATOM     25  C   UNL     1      15.803   6.847  19.296  0.00  0.00    +0.074 A 
BRANCH  25  26
ATOM      7  N   UNL     1      12.998   7.919  17.088  0.00  0.00    -0.243 NA
ATOM      8  N   UNL     1      12.095   7.232  19.214  0.00  0.00    -0.243 NA
ATOM     26  C   UNL     1      14.470   7.143  18.827  0.00  0.00    +0.037 A 
ATOM     27  C   UNL     1      14.229   7.630  17.558  0.00  0.00    +0.124 A 
ATOM     28  C   UNL     1      13.354   6.963  19.619  0.00  0.00    +0.124 A 
ATOM     29  C   UNL     1      11.991   7.700  17.956  0.00  0.00    +0.221 A 
ENDBRANCH  25  26
ENDBRANCH  16  19
BRANCH  14   9
ATOM      2  N   UNL     1      23.536   5.325  22.598  0.00  0.00    -0.287 NA
ATOM      9  C   UNL     1      22.948   6.383  21.754  0.00  0.00    +0.146 C 
ATOM     10  C   UNL     1      23.996   6.634  20.654  0.00  0.00    +0.030 C 
ATOM     11  C   UNL     1      25.161   5.717  20.999  0.00  0.00    +0.017 C 
ATOM     12  C   UNL     1      24.988   5.463  22.482  0.00  0.00    +0.085 C 
BRANCH   2  13
ATOM     13  C   UNL     1      23.089   5.380  23.984  0.00  0.00    +0.120 C 
BRANCH  13  15
ATOM      5  N   UNL     1      22.840   1.464  25.745  0.00  0.00    -0.263 NA
ATOM     15  C   UNL     1      23.002   4.009  24.601  0.00  0.00    -0.030 A 
ATOM     17  C   UNL     1      23.215   3.842  25.965  0.00  0.00    +0.024 A 
ATOM     18  C   UNL     1      22.708   2.905  23.808  0.00  0.00    +0.024 A 
ATOM     20  C   UNL     1      23.123   2.561  26.484  0.00  0.00    +0.111 A 
ATOM     21  C   UNL     1      22.639   1.666  24.423  0.00  0.00    +0.111 A 
ENDBRANCH  13  15
ENDBRANCH   2  13
ENDBRANCH  14   9
TORSDOF 5
ENDMDL
MODEL 8
REMARK VINA RESULT:      -6.7     27.076     30.633
REMARK  Name = 51136914
REMARK  5 active torsions:
REMARK  status: ('A' for Active; 'I' for Inactive)
REMARK    1  A    between atoms: N_2  and  C_13
REMARK    2  A    between atoms: C_9  and  C_14
REMARK    3  A    between atoms: C_13  and  C_15
REMARK    4  A    between atoms: C_16  and  C_19
REMARK    5  A    between atoms: C_25  and  C_26
REMARK                            x       y       z     vdW  Elec       q    Type
REMARK                         _______ _______ _______ _____ _____    ______ ____
ROOT
ATOM      1  O   UNL     1      -5.073  -9.791  15.825  0.00  0.00    -0.336 OA
ATOM      3  N   UNL     1      -5.186 -11.752  16.900  0.00  0.00    -0.190 NA
ATOM      4  N   UNL     1      -6.283  -9.780  16.530  0.00  0.00    -0.056 NA
ATOM     14  C   UNL     1      -4.490 -10.988  16.097  0.00  0.00    +0.245 A 
ATOM     16  C   UNL     1      -6.277 -10.968  17.139  0.00  0.00    +0.204 A 
ENDROOT
BRANCH  16  19
ATOM      6  N   UNL     1      -9.622 -11.127  18.755  0.00  0.00    -0.254 NA
ATOM     19  C   UNL     1      -7.346 -11.406  17.990  0.00  0.00    +0.041 A 
ATOM     22  C   UNL     1      -7.181 -12.485  18.851  0.00  0.00    +0.015 A 
ATOM     23  C   UNL     1      -8.575 -10.766  17.979  0.00  0.00    +0.123 A 
ATOM     24  C   UNL     1      -8.235 -12.885  19.665  0.00  0.00    +0.029 A 
ATOM     25  C   UNL     1      -9.424 -12.180  19.580  0.00  0.00    +0.074 A 
BRANCH  25  26
ATOM      7  N   UNL     1     -12.812 -12.114  21.132  0.00  0.00    -0.243 NA
ATOM      8  N   UNL     1     -11.592 -13.998  22.008  0.00  0.00    -0.243 NA
ATOM     26  C   UNL     1     -10.561 -12.539  20.393  0.00  0.00    +0.037 A 
ATOM     27  C   UNL     1     -11.732 -11.808  20.384  0.00  0.00    +0.124 A 
ATOM     28  C   UNL     1     -10.548 -13.634  21.233  0.00  0.00    +0.124 A 
ATOM     29  C   UNL     1     -12.675 -13.205  21.910  0.00  0.00    +0.221 A 
ENDBRANCH  25  26
ENDBRANCH  16  19
BRANCH  14   9
ATOM      2  N   UNL     1      -2.979 -10.507  14.180  0.00  0.00    -0.287 NA
ATOM      9  C   UNL     1      -3.148 -11.249  15.445  0.00  0.00    +0.146 C 
ATOM     10  C   UNL     1      -1.964 -10.803  16.322  0.00  0.00    +0.030 C 
ATOM     11  C   UNL     1      -1.153  -9.860  15.445  0.00  0.00    +0.017 C 
ATOM     12  C   UNL     1      -1.544 -10.258  14.037  0.00  0.00    +0.085 C 
BRANCH   2  13
ATOM     13  C   UNL     1      -3.532 -11.203  13.026  0.00  0.00    +0.120 C 
BRANCH  13  15
ATOM      5  N   UNL     1      -4.852  -8.467   9.983  0.00  0.00    -0.263 NA
ATOM     15  C   UNL     1      -3.995 -10.245  11.961  0.00  0.00    -0.030 A 
ATOM     17  C   UNL     1      -5.221  -9.602  12.085  0.00  0.00    +0.024 A 
ATOM     18  C   UNL     1      -3.196 -10.000  10.849  0.00  0.00    +0.024 A 
ATOM     20  C   UNL     1      -5.601  -8.730  11.077  0.00  0.00    +0.111 A 
ATOM     21  C   UNL     1      -3.666  -9.110   9.897  0.00  0.00    +0.111 A 
ENDBRANCH  13  15
ENDBRANCH   2  13
ENDBRANCH  14   9
TORSDOF 5
ENDMDL
MODEL 9
REMARK VINA RESULT:      -6.7      2.249      4.058
REMARK  Name = 51136914
REMARK  5 active torsions:
REMARK  status: ('A' for Active; 'I' for Inactive)
REMARK    1  A    between atoms: N_2  and  C_13
REMARK    2  A    between atoms: C_9  and  C_14
REMARK    3  A    between atoms: C_13  and  C_15
REMARK    4  A    between atoms: C_16  and  C_19
REMARK    5  A    between atoms: C_25  and  C_26
REMARK                            x       y       z     vdW  Elec       q    Type
REMARK                         _______ _______ _______ _____ _____    ______ ____
ROOT
ATOM      1  O   UNL     1      18.417   9.018  21.960  0.00  0.00    -0.336 OA
ATOM      3  N   UNL     1      18.038   6.924  21.262  0.00  0.00    -0.190 NA
ATOM      4  N   UNL     1      19.606   8.311  22.182  0.00  0.00    -0.056 NA
ATOM     14  C   UNL     1      17.546   8.128  21.417  0.00  0.00    +0.245 A 
ATOM     16  C   UNL     1      19.303   7.086  21.745  0.00  0.00    +0.204 A 
ENDROOT
BRANCH  16  19
ATOM      6  N   UNL     1      21.929   4.768  22.994  0.00  0.00    -0.254 NA
ATOM     19  C   UNL     1      20.240   6.001  21.780  0.00  0.00    +0.041 A 
ATOM     22  C   UNL     1      20.387   5.145  20.693  0.00  0.00    +0.015 A 
ATOM     23  C   UNL     1      21.028   5.771  22.897  0.00  0.00    +0.123 A 
ATOM     24  C   UNL     1      21.304   4.102  20.756  0.00  0.00    +0.029 A 
ATOM     25  C   UNL     1      22.044   3.958  21.918  0.00  0.00    +0.074 A 
BRANCH  25  26
ATOM      7  N   UNL     1      24.363   1.475  23.451  0.00  0.00    -0.243 NA
ATOM      8  N   UNL     1      24.469   1.261  21.053  0.00  0.00    -0.243 NA
ATOM     26  C   UNL     1      23.013   2.897  22.054  0.00  0.00    +0.037 A 
ATOM     27  C   UNL     1      23.457   2.461  23.286  0.00  0.00    +0.124 A 
ATOM     28  C   UNL     1      23.560   2.254  20.962  0.00  0.00    +0.124 A 
ATOM     29  C   UNL     1      24.821   0.927  22.309  0.00  0.00    +0.221 A 
ENDBRANCH  25  26
ENDBRANCH  16  19
BRANCH  14   9
ATOM      2  N   UNL     1      15.090   7.882  21.730  0.00  0.00    -0.287 NA
ATOM      9  C   UNL     1      16.167   8.653  21.078  0.00  0.00    +0.146 C 
ATOM     10  C   UNL     1      15.952  10.103  21.550  0.00  0.00    +0.030 C 
ATOM     11  C   UNL     1      14.697  10.057  22.412  0.00  0.00    +0.017 C 
ATOM     12  C   UNL     1      13.980   8.812  21.932  0.00  0.00    +0.085 C 
BRANCH   2  13
ATOM     13  C   UNL     1      14.687   6.704  20.973  0.00  0.00    +0.120 C 
BRANCH  13  15
ATOM      5  N   UNL     1      13.013   7.748  17.151  0.00  0.00    -0.263 NA
ATOM     15  C   UNL     1      14.102   7.070  19.635  0.00  0.00    -0.030 A 
ATOM     17  C   UNL     1      14.938   7.364  18.563  0.00  0.00    +0.024 A 
ATOM     18  C   UNL     1      12.722   7.114  19.466  0.00  0.00    +0.024 A 
ATOM     20  C   UNL     1      14.349   7.695  17.353  0.00  0.00    +0.111 A 
ATOM     21  C   UNL     1      12.233   7.455  18.215  0.00  0.00    +0.111 A 
ENDBRANCH  13  15
ENDBRANCH   2  13
ENDBRANCH  14   9
TORSDOF 5
ENDMDL
MODEL 10
REMARK VINA RESULT:      -6.7     29.673     31.889
REMARK  Name = 51136914
REMARK  5 active torsions:
REMARK  status: ('A' for Active; 'I' for Inactive)
REMARK    1  A    between atoms: N_2  and  C_13
REMARK    2  A    between atoms: C_9  and  C_14
REMARK    3  A    between atoms: C_13  and  C_15
REMARK    4  A    between atoms: C_16  and  C_19
REMARK    5  A    between atoms: C_25  and  C_26
REMARK                            x       y       z     vdW  Elec       q    Type
REMARK                         _______ _______ _______ _____ _____    ______ ____
ROOT
ATOM      1  O   UNL     1     -14.324  -5.532  13.322  0.00  0.00    -0.336 OA
ATOM      3  N   UNL     1     -12.156  -5.079  13.650  0.00  0.00    -0.190 NA
ATOM      4  N   UNL     1     -13.838  -6.541  14.162  0.00  0.00    -0.056 NA
ATOM     14  C   UNL     1     -13.270  -4.713  13.067  0.00  0.00    +0.245 A 
ATOM     16  C   UNL     1     -12.555  -6.204  14.310  0.00  0.00    +0.204 A 
ENDROOT
BRANCH  16  19
ATOM      6  N   UNL     1     -10.309  -8.971  15.374  0.00  0.00    -0.254 NA
ATOM     19  C   UNL     1     -11.642  -6.971  15.108  0.00  0.00    +0.041 A 
ATOM     22  C   UNL     1     -11.204  -6.506  16.344  0.00  0.00    +0.015 A 
ATOM     23  C   UNL     1     -11.169  -8.199  14.673  0.00  0.00    +0.123 A 
ATOM     24  C   UNL     1     -10.319  -7.272  17.095  0.00  0.00    +0.029 A 
ATOM     25  C   UNL     1      -9.906  -8.486  16.571  0.00  0.00    +0.074 A 
BRANCH  25  26
ATOM      7  N   UNL     1      -6.739 -10.064  17.740  0.00  0.00    -0.243 NA
ATOM      8  N   UNL     1      -8.586 -11.053  18.930  0.00  0.00    -0.243 NA
ATOM     26  C   UNL     1      -8.988  -9.333  17.294  0.00  0.00    +0.037 A 
ATOM     27  C   UNL     1      -7.625  -9.287  17.085  0.00  0.00    +0.124 A 
ATOM     28  C   UNL     1      -9.416 -10.245  18.238  0.00  0.00    +0.124 A 
ATOM     29  C   UNL     1      -7.280 -10.912  18.636  0.00  0.00    +0.221 A 
ENDBRANCH  25  26
ENDBRANCH  16  19
BRANCH  14   9
ATOM      2  N   UNL     1     -13.244  -3.809  10.750  0.00  0.00    -0.287 NA
ATOM      9  C   UNL     1     -13.539  -3.525  12.168  0.00  0.00    +0.146 C 
ATOM     10  C   UNL     1     -15.017  -3.093  12.182  0.00  0.00    +0.030 C 
ATOM     11  C   UNL     1     -15.448  -3.105  10.721  0.00  0.00    +0.017 C 
ATOM     12  C   UNL     1     -14.144  -2.965   9.964  0.00  0.00    +0.085 C 
BRANCH   2  13
ATOM     13  C   UNL     1     -11.846  -3.595  10.399  0.00  0.00    +0.120 C 
BRANCH  13  15
ATOM      5  N   UNL     1     -10.108  -7.067   8.551  0.00  0.00    -0.263 NA
ATOM     15  C   UNL     1     -11.237  -4.810   9.752  0.00  0.00    -0.030 A 
ATOM     17  C   UNL     1     -10.170  -4.672   8.871  0.00  0.00    +0.024 A 
ATOM     18  C   UNL     1     -11.740  -6.076  10.033  0.00  0.00    +0.024 A 
ATOM     20  C   UNL     1      -9.645  -5.821   8.302  0.00  0.00    +0.111 A 
ATOM     21  C   UNL     1     -11.145  -7.163   9.412  0.00  0.00    +0.111 A 
ENDBRANCH  13  15
ENDBRANCH   2  13
ENDBRANCH  14   9
TORSDOF 5
ENDMDL
