MODEL 1
REMARK VINA RESULT:      -7.3      0.000      0.000
REMARK  Name = 7143831
REMARK  7 active torsions:
REMARK  status: ('A' for Active; 'I' for Inactive)
REMARK    1  A    between atoms: S_1  and  C_26
REMARK    2  A    between atoms: S_1  and  C_28
REMARK    3  A    between atoms: O_4  and  C_21
REMARK    4  A    between atoms: O_4  and  C_27
REMARK    5  A    between atoms: C_16  and  C_19
REMARK    6  A    between atoms: C_17  and  C_20
REMARK    7  A    between atoms: C_19  and  C_21
REMARK                            x       y       z     vdW  Elec       q    Type
REMARK                         _______ _______ _______ _____ _____    ______ ____
ROOT
ATOM      2  O   UNL     1      15.405   6.197  21.651  0.00  0.00    -0.267 OA
ATOM      3  O   UNL     1      12.056   7.242  17.615  0.00  0.00    -0.276 OA
ATOM      5  N   UNL     1      12.186   9.054  19.065  0.00  0.00    -0.300 N 
ATOM      6  N   UNL     1      14.353   8.243  21.265  0.00  0.00    -0.311 N 
ATOM      7  C   UNL     1      11.821   8.551  21.483  0.00  0.00    +0.027 C 
ATOM      8  C   UNL     1      13.232  10.456  20.832  0.00  0.00    +0.054 C 
ATOM      9  C   UNL     1      12.166   9.996  21.824  0.00  0.00    +0.018 C 
ATOM     10  C   UNL     1      11.282   8.450  20.045  0.00  0.00    +0.113 C 
ATOM     11  C   UNL     1      13.065   7.681  21.695  0.00  0.00    +0.130 C 
ATOM     12  C   UNL     1      12.663  10.403  19.401  0.00  0.00    +0.117 C 
ATOM     13  C   UNL     1      14.475   9.591  20.924  0.00  0.00    +0.027 A 
ATOM     14  C   UNL     1      15.682  10.110  20.651  0.00  0.00    +0.022 A 
ATOM     15  C   UNL     1      15.467   7.383  21.322  0.00  0.00    +0.259 A 
ATOM     16  C   UNL     1      12.466   8.375  17.878  0.00  0.00    +0.218 C 
ATOM     17  C   UNL     1      16.802   7.985  20.974  0.00  0.00    +0.047 A 
ATOM     18  C   UNL     1      16.860   9.290  20.672  0.00  0.00    +0.015 A 
ENDROOT
BRANCH  17  20
ATOM     20  C   UNL     1      18.027   7.166  20.955  0.00  0.00    -0.013 A 
ATOM     22  C   UNL     1      18.184   6.167  19.994  0.00  0.00    +0.010 A 
ATOM     23  C   UNL     1      19.032   7.390  21.898  0.00  0.00    +0.010 A 
ATOM     24  C   UNL     1      19.343   5.391  19.976  0.00  0.00    +0.015 A 
ATOM     25  C   UNL     1      20.191   6.614  21.880  0.00  0.00    +0.015 A 
ATOM     26  C   UNL     1      20.347   5.615  20.919  0.00  0.00    +0.008 A 
BRANCH  26   1
ATOM      1  S   UNL     1      21.827   4.623  20.897  0.00  0.00    -0.129 S 
ATOM     28  C   UNL     1      22.169   4.429  22.669  0.00  0.00    +0.090 C 
ENDBRANCH  26   1
ENDBRANCH  17  20
BRANCH  16  19
ATOM     19  C   UNL     1      13.335   9.095  16.878  0.00  0.00    +0.124 C 
BRANCH  19  21
ATOM     21  C   UNL     1      12.516   9.440  15.652  0.00  0.00    +0.168 C 
BRANCH  21   4
ATOM      4  O   UNL     1      13.189  10.441  14.898  0.00  0.00    -0.382 OA
ATOM     27  C   UNL     1      14.538  10.591  15.317  0.00  0.00    +0.194 C 
ENDBRANCH  21   4
ENDBRANCH  19  21
ENDBRANCH  16  19
TORSDOF 5
ENDMDL
MODEL 2
REMARK VINA RESULT:      -6.1     14.274     17.931
REMARK  Name = 7143831
REMARK  7 active torsions:
REMARK  status: ('A' for Active; 'I' for Inactive)
REMARK    1  A    between atoms: S_1  and  C_26
REMARK    2  A    between atoms: S_1  and  C_28
REMARK    3  A    between atoms: O_4  and  C_21
REMARK    4  A    between atoms: O_4  and  C_27
REMARK    5  A    between atoms: C_16  and  C_19
REMARK    6  A    between atoms: C_17  and  C_20
REMARK    7  A    between atoms: C_19  and  C_21
REMARK                            x       y       z     vdW  Elec       q    Type
REMARK                         _______ _______ _______ _____ _____    ______ ____
ROOT
ATOM      2  O   UNL     1      10.006   7.286   2.104  0.00  0.00    -0.267 OA
ATOM      3  O   UNL     1      12.856   9.428   6.090  0.00  0.00    -0.276 OA
ATOM      5  N   UNL     1      11.097   8.161   6.927  0.00  0.00    -0.300 N 
ATOM      6  N   UNL     1       9.673   6.872   4.375  0.00  0.00    -0.311 N 
ATOM      7  C   UNL     1       8.837   8.671   5.994  0.00  0.00    +0.027 C 
ATOM      8  C   UNL     1       9.332   6.411   6.828  0.00  0.00    +0.054 C 
ATOM      9  C   UNL     1       8.261   7.499   6.779  0.00  0.00    +0.018 C 
ATOM     10  C   UNL     1      10.104   9.209   6.681  0.00  0.00    +0.113 C 
ATOM     11  C   UNL     1       9.109   8.217   4.555  0.00  0.00    +0.130 C 
ATOM     12  C   UNL     1      10.575   6.944   7.566  0.00  0.00    +0.117 C 
ATOM     13  C   UNL     1       9.717   5.959   5.432  0.00  0.00    +0.027 A 
ATOM     14  C   UNL     1      10.124   4.699   5.216  0.00  0.00    +0.022 A 
ATOM     15  C   UNL     1      10.062   6.520   3.068  0.00  0.00    +0.259 A 
ATOM     16  C   UNL     1      12.438   8.399   6.627  0.00  0.00    +0.218 C 
ATOM     17  C   UNL     1      10.549   5.110   2.866  0.00  0.00    +0.047 A 
ATOM     18  C   UNL     1      10.551   4.273   3.914  0.00  0.00    +0.015 A 
ENDROOT
BRANCH  17  20
ATOM     20  C   UNL     1      11.025   4.648   1.550  0.00  0.00    -0.013 A 
ATOM     22  C   UNL     1      12.281   4.051   1.431  0.00  0.00    +0.010 A 
ATOM     23  C   UNL     1      10.220   4.806   0.421  0.00  0.00    +0.010 A 
ATOM     24  C   UNL     1      12.731   3.615   0.186  0.00  0.00    +0.015 A 
ATOM     25  C   UNL     1      10.670   4.370  -0.825  0.00  0.00    +0.015 A 
ATOM     26  C   UNL     1      11.926   3.774  -0.943  0.00  0.00    +0.008 A 
BRANCH  26   1
ATOM      1  S   UNL     1      12.502   3.217  -2.535  0.00  0.00    -0.129 S 
ATOM     28  C   UNL     1      10.952   2.711  -3.333  0.00  0.00    +0.090 C 
ENDBRANCH  26   1
ENDBRANCH  17  20
BRANCH  16  19
ATOM     19  C   UNL     1      13.414   7.308   6.988  0.00  0.00    +0.124 C 
BRANCH  19  21
ATOM     21  C   UNL     1      14.797   7.685   6.499  0.00  0.00    +0.168 C 
BRANCH  21   4
ATOM      4  O   UNL     1      15.071   7.007   5.279  0.00  0.00    -0.382 OA
ATOM     27  C   UNL     1      15.523   7.905   4.275  0.00  0.00    +0.194 C 
ENDBRANCH  21   4
ENDBRANCH  19  21
ENDBRANCH  16  19
TORSDOF 5
ENDMDL
MODEL 3
REMARK VINA RESULT:      -6.1     31.270     32.740
REMARK  Name = 7143831
REMARK  7 active torsions:
REMARK  status: ('A' for Active; 'I' for Inactive)
REMARK    1  A    between atoms: S_1  and  C_26
REMARK    2  A    between atoms: S_1  and  C_28
REMARK    3  A    between atoms: O_4  and  C_21
REMARK    4  A    between atoms: O_4  and  C_27
REMARK    5  A    between atoms: C_16  and  C_19
REMARK    6  A    between atoms: C_17  and  C_20
REMARK    7  A    between atoms: C_19  and  C_21
REMARK                            x       y       z     vdW  Elec       q    Type
REMARK                         _______ _______ _______ _____ _____    ______ ____
ROOT
ATOM      2  O   UNL     1     -11.568  -7.549  10.018  0.00  0.00    -0.267 OA
ATOM      3  O   UNL     1     -16.610  -5.768  10.090  0.00  0.00    -0.276 OA
ATOM      5  N   UNL     1     -15.244  -4.419  11.399  0.00  0.00    -0.300 N 
ATOM      6  N   UNL     1     -12.292  -5.587  11.052  0.00  0.00    -0.311 N 
ATOM      7  C   UNL     1     -13.838  -5.598  13.093  0.00  0.00    +0.027 C 
ATOM      8  C   UNL     1     -13.075  -3.460  12.149  0.00  0.00    +0.054 C 
ATOM      9  C   UNL     1     -13.163  -4.276  13.437  0.00  0.00    +0.018 C 
ATOM     10  C   UNL     1     -15.247  -5.353  12.526  0.00  0.00    +0.113 C 
ATOM     11  C   UNL     1     -12.947  -6.368  12.111  0.00  0.00    +0.130 C 
ATOM     12  C   UNL     1     -14.495  -3.174  11.621  0.00  0.00    +0.117 C 
ATOM     13  C   UNL     1     -12.270  -4.192  11.091  0.00  0.00    +0.027 A 
ATOM     14  C   UNL     1     -11.565  -3.503  10.181  0.00  0.00    +0.022 A 
ATOM     15  C   UNL     1     -11.600  -6.318  10.066  0.00  0.00    +0.259 A 
ATOM     16  C   UNL     1     -15.987  -4.716  10.257  0.00  0.00    +0.218 C 
ATOM     17  C   UNL     1     -10.849  -5.517   9.037  0.00  0.00    +0.047 A 
ATOM     18  C   UNL     1     -10.849  -4.179   9.136  0.00  0.00    +0.015 A 
ENDROOT
BRANCH  17  20
ATOM     20  C   UNL     1     -10.129  -6.176   7.933  0.00  0.00    -0.013 A 
ATOM     22  C   UNL     1      -8.756  -6.401   8.030  0.00  0.00    +0.010 A 
ATOM     23  C   UNL     1     -10.821  -6.577   6.789  0.00  0.00    +0.010 A 
ATOM     24  C   UNL     1      -8.075  -7.025   6.985  0.00  0.00    +0.015 A 
ATOM     25  C   UNL     1     -10.140  -7.200   5.743  0.00  0.00    +0.015 A 
ATOM     26  C   UNL     1      -8.767  -7.425   5.841  0.00  0.00    +0.008 A 
BRANCH  26   1
ATOM      1  S   UNL     1      -7.897  -8.220   4.505  0.00  0.00    -0.129 S 
ATOM     28  C   UNL     1      -6.756  -9.310   5.404  0.00  0.00    +0.090 C 
ENDBRANCH  26   1
ENDBRANCH  17  20
BRANCH  16  19
ATOM     19  C   UNL     1     -16.006  -3.669   9.172  0.00  0.00    +0.124 C 
BRANCH  19  21
ATOM     21  C   UNL     1     -14.866  -3.919   8.208  0.00  0.00    +0.168 C 
BRANCH  21   4
ATOM      4  O   UNL     1     -14.092  -2.734   8.070  0.00  0.00    -0.382 OA
ATOM     27  C   UNL     1     -14.916  -1.581   7.975  0.00  0.00    +0.194 C 
ENDBRANCH  21   4
ENDBRANCH  19  21
ENDBRANCH  16  19
TORSDOF 5
ENDMDL
MODEL 4
REMARK VINA RESULT:      -6.1     17.849     20.576
REMARK  Name = 7143831
REMARK  7 active torsions:
REMARK  status: ('A' for Active; 'I' for Inactive)
REMARK    1  A    between atoms: S_1  and  C_26
REMARK    2  A    between atoms: S_1  and  C_28
REMARK    3  A    between atoms: O_4  and  C_21
REMARK    4  A    between atoms: O_4  and  C_27
REMARK    5  A    between atoms: C_16  and  C_19
REMARK    6  A    between atoms: C_17  and  C_20
REMARK    7  A    between atoms: C_19  and  C_21
REMARK                            x       y       z     vdW  Elec       q    Type
REMARK                         _______ _______ _______ _____ _____    ______ ____
ROOT
ATOM      2  O   UNL     1      12.047   7.889   1.975  0.00  0.00    -0.267 OA
ATOM      3  O   UNL     1      12.771   5.353  -2.677  0.00  0.00    -0.276 OA
ATOM      5  N   UNL     1      13.372   3.988  -0.895  0.00  0.00    -0.300 N 
ATOM      6  N   UNL     1      12.692   5.660   1.739  0.00  0.00    -0.311 N 
ATOM      7  C   UNL     1      14.957   4.979   0.760  0.00  0.00    +0.027 C 
ATOM      8  C   UNL     1      13.366   3.248   1.480  0.00  0.00    +0.054 C 
ATOM      9  C   UNL     1      14.805   3.739   1.633  0.00  0.00    +0.018 C 
ATOM     10  C   UNL     1      14.669   4.641  -0.713  0.00  0.00    +0.113 C 
ATOM     11  C   UNL     1      14.028   6.076   1.292  0.00  0.00    +0.130 C 
ATOM     12  C   UNL     1      13.107   2.860   0.011  0.00  0.00    +0.117 C 
ATOM     13  C   UNL     1      12.376   4.311   1.914  0.00  0.00    +0.027 A 
ATOM     14  C   UNL     1      11.191   3.959   2.437  0.00  0.00    +0.022 A 
ATOM     15  C   UNL     1      11.792   6.689   2.083  0.00  0.00    +0.259 A 
ATOM     16  C   UNL     1      12.531   4.403  -1.927  0.00  0.00    +0.218 C 
ATOM     17  C   UNL     1      10.457   6.261   2.632  0.00  0.00    +0.047 A 
ATOM     18  C   UNL     1      10.218   4.952   2.795  0.00  0.00    +0.015 A 
ENDROOT
BRANCH  17  20
ATOM     20  C   UNL     1       9.423   7.251   2.980  0.00  0.00    -0.013 A 
ATOM     22  C   UNL     1       8.897   8.087   1.994  0.00  0.00    +0.010 A 
ATOM     23  C   UNL     1       8.968   7.354   4.296  0.00  0.00    +0.010 A 
ATOM     24  C   UNL     1       7.918   9.025   2.324  0.00  0.00    +0.015 A 
ATOM     25  C   UNL     1       7.989   8.292   4.625  0.00  0.00    +0.015 A 
ATOM     26  C   UNL     1       7.464   9.127   3.639  0.00  0.00    +0.008 A 
BRANCH  26   1
ATOM      1  S   UNL     1       6.215  10.326   4.060  0.00  0.00    -0.129 S 
ATOM     28  C   UNL     1       5.051  10.148   2.678  0.00  0.00    +0.090 C 
ENDBRANCH  26   1
ENDBRANCH  17  20
BRANCH  16  19
ATOM     19  C   UNL     1      11.250   3.628  -2.108  0.00  0.00    +0.124 C 
BRANCH  19  21
ATOM     21  C   UNL     1      10.103   4.591  -2.332  0.00  0.00    +0.168 C 
BRANCH  21   4
ATOM      4  O   UNL     1       9.633   5.069  -1.077  0.00  0.00    -0.382 OA
ATOM     27  C   UNL     1       9.648   6.489  -1.023  0.00  0.00    +0.194 C 
ENDBRANCH  21   4
ENDBRANCH  19  21
ENDBRANCH  16  19
TORSDOF 5
ENDMDL
MODEL 5
REMARK VINA RESULT:      -6.0     27.199     29.758
REMARK  Name = 7143831
REMARK  7 active torsions:
REMARK  status: ('A' for Active; 'I' for Inactive)
REMARK    1  A    between atoms: S_1  and  C_26
REMARK    2  A    between atoms: S_1  and  C_28
REMARK    3  A    between atoms: O_4  and  C_21
REMARK    4  A    between atoms: O_4  and  C_27
REMARK    5  A    between atoms: C_16  and  C_19
REMARK    6  A    between atoms: C_17  and  C_20
REMARK    7  A    between atoms: C_19  and  C_21
REMARK                            x       y       z     vdW  Elec       q    Type
REMARK                         _______ _______ _______ _____ _____    ______ ____
ROOT
ATOM      2  O   UNL     1      -6.650 -10.296  14.193  0.00  0.00    -0.267 OA
ATOM      3  O   UNL     1      -4.097 -14.664  12.461  0.00  0.00    -0.276 OA
ATOM      5  N   UNL     1      -2.580 -12.999  13.033  0.00  0.00    -0.300 N 
ATOM      6  N   UNL     1      -4.336 -10.591  14.181  0.00  0.00    -0.311 N 
ATOM      7  C   UNL     1      -2.981 -10.754  12.015  0.00  0.00    +0.027 C 
ATOM      8  C   UNL     1      -1.840 -10.923  14.186  0.00  0.00    +0.054 C 
ATOM      9  C   UNL     1      -1.840 -10.184  12.849  0.00  0.00    +0.018 C 
ATOM     10  C   UNL     1      -2.779 -12.262  11.783  0.00  0.00    +0.113 C 
ATOM     11  C   UNL     1      -4.309 -10.451  12.718  0.00  0.00    +0.130 C 
ATOM     12  C   UNL     1      -1.582 -12.424  13.946  0.00  0.00    +0.117 C 
ATOM     13  C   UNL     1      -3.157 -10.737  14.915  0.00  0.00    +0.027 A 
ATOM     14  C   UNL     1      -3.195 -10.743  16.256  0.00  0.00    +0.022 A 
ATOM     15  C   UNL     1      -5.593 -10.460  14.804  0.00  0.00    +0.259 A 
ATOM     16  C   UNL     1      -3.262 -14.198  13.240  0.00  0.00    +0.218 C 
ATOM     17  C   UNL     1      -5.607 -10.507  16.309  0.00  0.00    +0.047 A 
ATOM     18  C   UNL     1      -4.441 -10.631  16.960  0.00  0.00    +0.015 A 
ENDROOT
BRANCH  17  20
ATOM     20  C   UNL     1      -6.870 -10.427  17.063  0.00  0.00    -0.013 A 
ATOM     22  C   UNL     1      -7.640  -9.264  17.015  0.00  0.00    +0.010 A 
ATOM     23  C   UNL     1      -7.300 -11.515  17.824  0.00  0.00    +0.010 A 
ATOM     24  C   UNL     1      -8.835  -9.188  17.729  0.00  0.00    +0.015 A 
ATOM     25  C   UNL     1      -8.496 -11.439  18.538  0.00  0.00    +0.015 A 
ATOM     26  C   UNL     1      -9.263 -10.276  18.491  0.00  0.00    +0.008 A 
BRANCH  26   1
ATOM      1  S   UNL     1     -10.791 -10.178  19.404  0.00  0.00    -0.129 S 
ATOM     28  C   UNL     1     -10.889 -11.836  20.138  0.00  0.00    +0.090 C 
ENDBRANCH  26   1
ENDBRANCH  17  20
BRANCH  16  19
ATOM     19  C   UNL     1      -2.942 -14.945  14.510  0.00  0.00    +0.124 C 
BRANCH  19  21
ATOM     21  C   UNL     1      -4.221 -15.213  15.275  0.00  0.00    +0.168 C 
BRANCH  21   4
ATOM      4  O   UNL     1      -4.861 -13.980  15.579  0.00  0.00    -0.382 OA
ATOM     27  C   UNL     1      -6.267 -14.064  15.395  0.00  0.00    +0.194 C 
ENDBRANCH  21   4
ENDBRANCH  19  21
ENDBRANCH  16  19
TORSDOF 5
ENDMDL
MODEL 6
REMARK VINA RESULT:      -6.0      4.993      9.995
REMARK  Name = 7143831
REMARK  7 active torsions:
REMARK  status: ('A' for Active; 'I' for Inactive)
REMARK    1  A    between atoms: S_1  and  C_26
REMARK    2  A    between atoms: S_1  and  C_28
REMARK    3  A    between atoms: O_4  and  C_21
REMARK    4  A    between atoms: O_4  and  C_27
REMARK    5  A    between atoms: C_16  and  C_19
REMARK    6  A    between atoms: C_17  and  C_20
REMARK    7  A    between atoms: C_19  and  C_21
REMARK                            x       y       z     vdW  Elec       q    Type
REMARK                         _______ _______ _______ _____ _____    ______ ____
ROOT
ATOM      2  O   UNL     1      20.079   3.754  20.524  0.00  0.00    -0.267 OA
ATOM      3  O   UNL     1      22.997   3.616  25.003  0.00  0.00    -0.276 OA
ATOM      5  N   UNL     1      24.206   4.572  23.264  0.00  0.00    -0.300 N 
ATOM      6  N   UNL     1      22.201   4.687  20.782  0.00  0.00    -0.311 N 
ATOM      7  C   UNL     1      24.297   3.261  21.141  0.00  0.00    +0.027 C 
ATOM      8  C   UNL     1      24.483   5.711  21.071  0.00  0.00    +0.054 C 
ATOM      9  C   UNL     1      25.029   4.417  20.471  0.00  0.00    +0.018 C 
ATOM     10  C   UNL     1      24.535   3.279  22.661  0.00  0.00    +0.113 C 
ATOM     11  C   UNL     1      22.807   3.348  20.790  0.00  0.00    +0.130 C 
ATOM     12  C   UNL     1      24.777   5.743  22.584  0.00  0.00    +0.117 C 
ATOM     13  C   UNL     1      22.990   5.838  20.834  0.00  0.00    +0.027 A 
ATOM     14  C   UNL     1      22.425   7.048  20.704  0.00  0.00    +0.022 A 
ATOM     15  C   UNL     1      20.804   4.746  20.609  0.00  0.00    +0.259 A 
ATOM     16  C   UNL     1      23.468   4.611  24.447  0.00  0.00    +0.218 C 
ATOM     17  C   UNL     1      20.195   6.119  20.503  0.00  0.00    +0.047 A 
ATOM     18  C   UNL     1      21.006   7.187  20.542  0.00  0.00    +0.015 A 
ENDROOT
BRANCH  17  20
ATOM     20  C   UNL     1      18.740   6.300  20.368  0.00  0.00    -0.013 A 
ATOM     22  C   UNL     1      18.083   5.845  19.224  0.00  0.00    +0.010 A 
ATOM     23  C   UNL     1      18.016   6.925  21.385  0.00  0.00    +0.010 A 
ATOM     24  C   UNL     1      16.704   6.017  19.096  0.00  0.00    +0.015 A 
ATOM     25  C   UNL     1      16.637   7.097  21.256  0.00  0.00    +0.015 A 
ATOM     26  C   UNL     1      15.982   6.643  20.112  0.00  0.00    +0.008 A 
BRANCH  26   1
ATOM      1  S   UNL     1      14.221   6.863  19.947  0.00  0.00    -0.129 S 
ATOM     28  C   UNL     1      13.783   7.562  21.565  0.00  0.00    +0.090 C 
ENDBRANCH  26   1
ENDBRANCH  17  20
BRANCH  16  19
ATOM     19  C   UNL     1      23.241   5.971  25.057  0.00  0.00    +0.124 C 
BRANCH  19  21
ATOM     21  C   UNL     1      21.889   6.499  24.627  0.00  0.00    +0.168 C 
BRANCH  21   4
ATOM      4  O   UNL     1      20.913   6.158  25.604  0.00  0.00    -0.382 OA
ATOM     27  C   UNL     1      20.328   7.317  26.182  0.00  0.00    +0.194 C 
ENDBRANCH  21   4
ENDBRANCH  19  21
ENDBRANCH  16  19
TORSDOF 5
ENDMDL
MODEL 7
REMARK VINA RESULT:      -5.9     13.536     17.864
REMARK  Name = 7143831
REMARK  7 active torsions:
REMARK  status: ('A' for Active; 'I' for Inactive)
REMARK    1  A    between atoms: S_1  and  C_26
REMARK    2  A    between atoms: S_1  and  C_28
REMARK    3  A    between atoms: O_4  and  C_21
REMARK    4  A    between atoms: O_4  and  C_27
REMARK    5  A    between atoms: C_16  and  C_19
REMARK    6  A    between atoms: C_17  and  C_20
REMARK    7  A    between atoms: C_19  and  C_21
REMARK                            x       y       z     vdW  Elec       q    Type
REMARK                         _______ _______ _______ _____ _____    ______ ____
ROOT
ATOM      2  O   UNL     1      12.005   7.968   2.884  0.00  0.00    -0.267 OA
ATOM      3  O   UNL     1      11.820   6.092   7.888  0.00  0.00    -0.276 OA
ATOM      5  N   UNL     1      10.423   7.934   7.650  0.00  0.00    -0.300 N 
ATOM      6  N   UNL     1      10.588   8.746   4.566  0.00  0.00    -0.311 N 
ATOM      7  C   UNL     1      11.456   9.970   6.640  0.00  0.00    +0.027 C 
ATOM      8  C   UNL     1       9.045   9.568   6.379  0.00  0.00    +0.054 C 
ATOM      9  C   UNL     1      10.092  10.649   6.639  0.00  0.00    +0.018 C 
ATOM     10  C   UNL     1      11.524   8.895   7.738  0.00  0.00    +0.113 C 
ATOM     11  C   UNL     1      11.721   9.389   5.247  0.00  0.00    +0.130 C 
ATOM     12  C   UNL     1       9.084   8.526   7.514  0.00  0.00    +0.117 C 
ATOM     13  C   UNL     1       9.284   8.885   5.045  0.00  0.00    +0.027 A 
ATOM     14  C   UNL     1       8.252   8.392   4.343  0.00  0.00    +0.022 A 
ATOM     15  C   UNL     1      10.872   8.082   3.356  0.00  0.00    +0.259 A 
ATOM     16  C   UNL     1      10.689   6.570   7.776  0.00  0.00    +0.218 C 
ATOM     17  C   UNL     1       9.698   7.507   2.610  0.00  0.00    +0.047 A 
ATOM     18  C   UNL     1       8.467   7.688   3.111  0.00  0.00    +0.015 A 
ENDROOT
BRANCH  17  20
ATOM     20  C   UNL     1       9.884   6.752   1.359  0.00  0.00    -0.013 A 
ATOM     22  C   UNL     1       9.772   7.401   0.129  0.00  0.00    +0.010 A 
ATOM     23  C   UNL     1      10.175   5.387   1.403  0.00  0.00    +0.010 A 
ATOM     24  C   UNL     1       9.948   6.686  -1.056  0.00  0.00    +0.015 A 
ATOM     25  C   UNL     1      10.350   4.673   0.218  0.00  0.00    +0.015 A 
ATOM     26  C   UNL     1      10.237   5.321  -1.011  0.00  0.00    +0.008 A 
BRANCH  26   1
ATOM      1  S   UNL     1      10.461   4.408  -2.525  0.00  0.00    -0.129 S 
ATOM     28  C   UNL     1      11.476   5.553  -3.501  0.00  0.00    +0.090 C 
ENDBRANCH  26   1
ENDBRANCH  17  20
BRANCH  16  19
ATOM     19  C   UNL     1       9.497   5.646   7.761  0.00  0.00    +0.124 C 
BRANCH  19  21
ATOM     21  C   UNL     1       9.904   4.287   8.290  0.00  0.00    +0.168 C 
BRANCH  21   4
ATOM      4  O   UNL     1      10.008   4.341   9.708  0.00  0.00    -0.382 OA
ATOM     27  C   UNL     1       8.760   4.655  10.310  0.00  0.00    +0.194 C 
ENDBRANCH  21   4
ENDBRANCH  19  21
ENDBRANCH  16  19
TORSDOF 5
ENDMDL
MODEL 8
REMARK VINA RESULT:      -5.9     27.648     29.796
REMARK  Name = 7143831
REMARK  7 active torsions:
REMARK  status: ('A' for Active; 'I' for Inactive)
REMARK    1  A    between atoms: S_1  and  C_26
REMARK    2  A    between atoms: S_1  and  C_28
REMARK    3  A    between atoms: O_4  and  C_21
REMARK    4  A    between atoms: O_4  and  C_27
REMARK    5  A    between atoms: C_16  and  C_19
REMARK    6  A    between atoms: C_17  and  C_20
REMARK    7  A    between atoms: C_19  and  C_21
REMARK                            x       y       z     vdW  Elec       q    Type
REMARK                         _______ _______ _______ _____ _____    ______ ____
ROOT
ATOM      2  O   UNL     1      -5.114 -12.824  10.246  0.00  0.00    -0.267 OA
ATOM      3  O   UNL     1      -5.789 -12.566  15.544  0.00  0.00    -0.276 OA
ATOM      5  N   UNL     1      -3.532 -12.494  14.999  0.00  0.00    -0.300 N 
ATOM      6  N   UNL     1      -3.415 -12.492  11.808  0.00  0.00    -0.311 N 
ATOM      7  C   UNL     1      -2.711 -14.298  13.480  0.00  0.00    +0.027 C 
ATOM      8  C   UNL     1      -1.586 -12.112  13.498  0.00  0.00    +0.054 C 
ATOM      9  C   UNL     1      -1.348 -13.619  13.428  0.00  0.00    +0.018 C 
ATOM     10  C   UNL     1      -3.443 -13.939  14.786  0.00  0.00    +0.113 C 
ATOM     11  C   UNL     1      -3.514 -13.893  12.239  0.00  0.00    +0.130 C 
ATOM     12  C   UNL     1      -2.270 -11.758  14.833  0.00  0.00    +0.117 C 
ATOM     13  C   UNL     1      -2.444 -11.639  12.339  0.00  0.00    +0.027 A 
ATOM     14  C   UNL     1      -2.293 -10.401  11.846  0.00  0.00    +0.022 A 
ATOM     15  C   UNL     1      -4.270 -12.091  10.763  0.00  0.00    +0.259 A 
ATOM     16  C   UNL     1      -4.740 -11.932  15.411  0.00  0.00    +0.218 C 
ATOM     17  C   UNL     1      -4.101 -10.683  10.256  0.00  0.00    +0.047 A 
ATOM     18  C   UNL     1      -3.140  -9.917  10.792  0.00  0.00    +0.015 A 
ENDROOT
BRANCH  17  20
ATOM     20  C   UNL     1      -4.972 -10.143   9.198  0.00  0.00    -0.013 A 
ATOM     22  C   UNL     1      -6.001  -9.259   9.524  0.00  0.00    +0.010 A 
ATOM     23  C   UNL     1      -4.770 -10.516   7.868  0.00  0.00    +0.010 A 
ATOM     24  C   UNL     1      -6.827  -8.748   8.523  0.00  0.00    +0.015 A 
ATOM     25  C   UNL     1      -5.596 -10.005   6.867  0.00  0.00    +0.015 A 
ATOM     26  C   UNL     1      -6.624  -9.121   7.194  0.00  0.00    +0.008 A 
BRANCH  26   1
ATOM      1  S   UNL     1      -7.680  -8.470   5.914  0.00  0.00    -0.129 S 
ATOM     28  C   UNL     1      -8.379  -7.003   6.723  0.00  0.00    +0.090 C 
ENDBRANCH  26   1
ENDBRANCH  17  20
BRANCH  16  19
ATOM     19  C   UNL     1      -4.734 -10.451  15.694  0.00  0.00    +0.124 C 
BRANCH  19  21
ATOM     21  C   UNL     1      -5.389 -10.190  17.035  0.00  0.00    +0.168 C 
BRANCH  21   4
ATOM      4  O   UNL     1      -4.608 -10.779  18.068  0.00  0.00    -0.382 OA
ATOM     27  C   UNL     1      -5.427 -11.373  19.065  0.00  0.00    +0.194 C 
ENDBRANCH  21   4
ENDBRANCH  19  21
ENDBRANCH  16  19
TORSDOF 5
ENDMDL
MODEL 9
REMARK VINA RESULT:      -5.8     21.386     23.792
REMARK  Name = 7143831
REMARK  7 active torsions:
REMARK  status: ('A' for Active; 'I' for Inactive)
REMARK    1  A    between atoms: S_1  and  C_26
REMARK    2  A    between atoms: S_1  and  C_28
REMARK    3  A    between atoms: O_4  and  C_21
REMARK    4  A    between atoms: O_4  and  C_27
REMARK    5  A    between atoms: C_16  and  C_19
REMARK    6  A    between atoms: C_17  and  C_20
REMARK    7  A    between atoms: C_19  and  C_21
REMARK                            x       y       z     vdW  Elec       q    Type
REMARK                         _______ _______ _______ _____ _____    ______ ____
ROOT
ATOM      2  O   UNL     1       9.398  -9.439  32.757  0.00  0.00    -0.267 OA
ATOM      3  O   UNL     1       8.765  -7.674  37.765  0.00  0.00    -0.276 OA
ATOM      5  N   UNL     1       8.429  -5.954  36.240  0.00  0.00    -0.300 N 
ATOM      6  N   UNL     1       8.695  -7.297  33.355  0.00  0.00    -0.311 N 
ATOM      7  C   UNL     1      10.230  -5.626  34.541  0.00  0.00    +0.027 C 
ATOM      8  C   UNL     1       7.916  -4.992  34.004  0.00  0.00    +0.054 C 
ATOM      9  C   UNL     1       9.375  -4.567  33.856  0.00  0.00    +0.018 C 
ATOM     10  C   UNL     1       9.861  -5.736  36.031  0.00  0.00    +0.113 C 
ATOM     11  C   UNL     1      10.053  -6.959  33.804  0.00  0.00    +0.130 C 
ATOM     12  C   UNL     1       7.543  -5.044  35.499  0.00  0.00    +0.117 C 
ATOM     13  C   UNL     1       7.672  -6.346  33.365  0.00  0.00    +0.027 A 
ATOM     14  C   UNL     1       6.474  -6.641  32.839  0.00  0.00    +0.022 A 
ATOM     15  C   UNL     1       8.512  -8.585  32.815  0.00  0.00    +0.259 A 
ATOM     16  C   UNL     1       8.006  -6.920  37.153  0.00  0.00    +0.218 C 
ATOM     17  C   UNL     1       7.145  -8.898  32.266  0.00  0.00    +0.047 A 
ATOM     18  C   UNL     1       6.209  -7.939  32.287  0.00  0.00    +0.015 A 
ENDROOT
BRANCH  17  20
ATOM     20  C   UNL     1       6.828 -10.230  31.721  0.00  0.00    -0.013 A 
ATOM     22  C   UNL     1       6.393 -11.247  32.571  0.00  0.00    +0.010 A 
ATOM     23  C   UNL     1       6.962 -10.475  30.353  0.00  0.00    +0.010 A 
ATOM     24  C   UNL     1       6.094 -12.508  32.056  0.00  0.00    +0.015 A 
ATOM     25  C   UNL     1       6.663 -11.736  29.838  0.00  0.00    +0.015 A 
ATOM     26  C   UNL     1       6.229 -12.752  30.689  0.00  0.00    +0.008 A 
BRANCH  26   1
ATOM      1  S   UNL     1       5.847 -14.364  30.030  0.00  0.00    -0.129 S 
ATOM     28  C   UNL     1       4.182 -14.103  29.355  0.00  0.00    +0.090 C 
ENDBRANCH  26   1
ENDBRANCH  17  20
BRANCH  16  19
ATOM     19  C   UNL     1       6.519  -7.030  37.380  0.00  0.00    +0.124 C 
BRANCH  19  21
ATOM     21  C   UNL     1       6.068  -8.448  37.100  0.00  0.00    +0.168 C 
BRANCH  21   4
ATOM      4  O   UNL     1       5.943  -8.639  35.696  0.00  0.00    -0.382 OA
ATOM     27  C   UNL     1       4.719  -9.278  35.364  0.00  0.00    +0.194 C 
ENDBRANCH  21   4
ENDBRANCH  19  21
ENDBRANCH  16  19
TORSDOF 5
ENDMDL
MODEL 10
REMARK VINA RESULT:      -5.8     22.544     24.753
REMARK  Name = 7143831
REMARK  7 active torsions:
REMARK  status: ('A' for Active; 'I' for Inactive)
REMARK    1  A    between atoms: S_1  and  C_26
REMARK    2  A    between atoms: S_1  and  C_28
REMARK    3  A    between atoms: O_4  and  C_21
REMARK    4  A    between atoms: O_4  and  C_27
REMARK    5  A    between atoms: C_16  and  C_19
REMARK    6  A    between atoms: C_17  and  C_20
REMARK    7  A    between atoms: C_19  and  C_21
REMARK                            x       y       z     vdW  Elec       q    Type
REMARK                         _______ _______ _______ _____ _____    ______ ____
ROOT
ATOM      2  O   UNL     1       8.957 -12.124  31.912  0.00  0.00    -0.267 OA
ATOM      3  O   UNL     1       6.551 -10.241  36.301  0.00  0.00    -0.276 OA
ATOM      5  N   UNL     1       7.296  -8.496  34.960  0.00  0.00    -0.300 N 
ATOM      6  N   UNL     1       8.529  -9.875  32.357  0.00  0.00    -0.311 N 
ATOM      7  C   UNL     1       9.688  -8.601  34.251  0.00  0.00    +0.027 C 
ATOM      8  C   UNL     1       8.044  -7.449  32.831  0.00  0.00    +0.054 C 
ATOM      9  C   UNL     1       9.470  -7.375  33.373  0.00  0.00    +0.018 C 
ATOM     10  C   UNL     1       8.682  -8.617  35.415  0.00  0.00    +0.113 C 
ATOM     11  C   UNL     1       9.582  -9.859  33.381  0.00  0.00    +0.130 C 
ATOM     12  C   UNL     1       7.044  -7.408  34.004  0.00  0.00    +0.117 C 
ATOM     13  C   UNL     1       7.832  -8.712  32.018  0.00  0.00    +0.027 A 
ATOM     14  C   UNL     1       6.960  -8.722  30.998  0.00  0.00    +0.022 A 
ATOM     15  C   UNL     1       8.338 -11.087  31.665  0.00  0.00    +0.259 A 
ATOM     16  C   UNL     1       6.319  -9.333  35.499  0.00  0.00    +0.218 C 
ATOM     17  C   UNL     1       7.327 -11.076  30.551  0.00  0.00    +0.047 A 
ATOM     18  C   UNL     1       6.702  -9.926  30.260  0.00  0.00    +0.015 A 
ENDROOT
BRANCH  17  20
ATOM     20  C   UNL     1       7.014 -12.300  29.792  0.00  0.00    -0.013 A 
ATOM     22  C   UNL     1       5.909 -13.077  30.145  0.00  0.00    +0.010 A 
ATOM     23  C   UNL     1       7.820 -12.683  28.720  0.00  0.00    +0.010 A 
ATOM     24  C   UNL     1       5.613 -14.236  29.427  0.00  0.00    +0.015 A 
ATOM     25  C   UNL     1       7.524 -13.842  28.002  0.00  0.00    +0.015 A 
ATOM     26  C   UNL     1       6.421 -14.618  28.356  0.00  0.00    +0.008 A 
BRANCH  26   1
ATOM      1  S   UNL     1       6.043 -16.100  27.440  0.00  0.00    -0.129 S 
ATOM     28  C   UNL     1       6.360 -15.570  25.733  0.00  0.00    +0.090 C 
ENDBRANCH  26   1
ENDBRANCH  17  20
BRANCH  16  19
ATOM     19  C   UNL     1       4.901  -9.094  35.047  0.00  0.00    +0.124 C 
BRANCH  19  21
ATOM     21  C   UNL     1       3.942  -9.556  36.124  0.00  0.00    +0.168 C 
BRANCH  21   4
ATOM      4  O   UNL     1       2.766 -10.082  35.520  0.00  0.00    -0.382 OA
ATOM     27  C   UNL     1       1.610  -9.798  36.297  0.00  0.00    +0.194 C 
ENDBRANCH  21   4
ENDBRANCH  19  21
ENDBRANCH  16  19
TORSDOF 5
ENDMDL
