MODEL 1
REMARK VINA RESULT:      -7.1      0.000      0.000
REMARK  Name = 45361707
REMARK  8 active torsions:
REMARK  status: ('A' for Active; 'I' for Inactive)
REMARK    1  A    between atoms: S_1  and  N_8
REMARK    2  A    between atoms: S_1  and  C_25
REMARK    3  A    between atoms: N_10  and  C_24
REMARK    4  A    between atoms: C_13  and  C_23
REMARK    5  A    between atoms: C_14  and  C_18
REMARK    6  A    between atoms: C_24  and  C_26
REMARK    7  A    between atoms: C_24  and  C_30
REMARK    8  A    between atoms: C_26  and  C_27
REMARK                            x       y       z     vdW  Elec       q    Type
REMARK                         _______ _______ _______ _____ _____    ______ ____
ROOT
ATOM      2  O   UNL     1      -7.656 -12.400  16.807  0.00  0.00    -0.275 OA
ATOM      7  N   UNL     1      -5.648 -12.113  15.669  0.00  0.00    -0.287 N 
ATOM      8  N   UNL     1      -3.471 -13.250  14.208  0.00  0.00    -0.173 NA
ATOM     13  C   UNL     1      -4.514 -11.261  15.275  0.00  0.00    +0.177 C 
ATOM     15  C   UNL     1      -3.221 -12.049  15.059  0.00  0.00    +0.141 C 
ATOM     16  C   UNL     1      -5.813 -13.360  14.916  0.00  0.00    +0.125 C 
ATOM     17  C   UNL     1      -4.508 -14.135  14.806  0.00  0.00    +0.128 C 
ATOM     18  C   UNL     1      -6.637 -11.742  16.586  0.00  0.00    +0.219 C 
ENDROOT
BRANCH  18  14
ATOM      9  N   UNL     1      -7.641 -10.613  20.000  0.00  0.00    -0.316 NA
ATOM     14  C   UNL     1      -6.414 -10.462  17.340  0.00  0.00    +0.078 C 
ATOM     19  C   UNL     1      -5.598 -10.712  18.609  0.00  0.00    +0.028 C 
ATOM     20  C   UNL     1      -7.746  -9.785  17.671  0.00  0.00    +0.028 C 
ATOM     21  C   UNL     1      -6.427 -11.375  19.711  0.00  0.00    +0.081 C 
ATOM     22  C   UNL     1      -8.485 -10.486  18.812  0.00  0.00    +0.081 C 
ATOM     41  H   UNL     1      -8.166 -11.081  20.738  0.00  0.00    +0.122 HD
ENDBRANCH  18  14
BRANCH  13  23
ATOM      3  O   UNL     1      -6.003  -9.929  13.964  0.00  0.00    -0.274 OA
ATOM     10  N   UNL     1      -4.001 -10.646  13.016  0.00  0.00    -0.302 N 
ATOM     23  C   UNL     1      -4.934 -10.532  14.032  0.00  0.00    +0.235 C 
ATOM     42  H   UNL     1      -3.096 -11.060  13.220  0.00  0.00    +0.150 HD
BRANCH  10  24
ATOM     24  C   UNL     1      -4.179 -10.054  11.710  0.00  0.00    +0.163 C 
BRANCH  24  30
ATOM      6  O   UNL     1      -2.542  -9.114  10.178  0.00  0.00    -0.274 OA
ATOM     12  N   UNL     1      -1.832 -10.635  11.745  0.00  0.00    -0.328 N 
ATOM     30  C   UNL     1      -2.792  -9.879  11.106  0.00  0.00    +0.231 C 
ATOM     44  H   UNL     1      -2.049 -11.246  12.526  0.00  0.00    +0.145 HD
ATOM     45  H   UNL     1      -0.862 -10.602  11.450  0.00  0.00    +0.145 HD
ENDBRANCH  24  30
BRANCH  24  26
ATOM     26  C   UNL     1      -5.053 -10.919  10.795  0.00  0.00    +0.069 C 
BRANCH  26  27
ATOM     11  N   UNL     1      -6.427  -8.604   8.281  0.00  0.00    -0.360 N 
ATOM     27  C   UNL     1      -5.539 -10.173   9.576  0.00  0.00    -0.020 A 
ATOM     31  C   UNL     1      -5.469 -10.619   8.226  0.00  0.00    +0.003 A 
ATOM     32  C   UNL     1      -6.133  -8.932   9.577  0.00  0.00    +0.087 A 
ATOM     35  C   UNL     1      -6.033  -9.616   7.433  0.00  0.00    +0.047 A 
ATOM     37  C   UNL     1      -4.978 -11.782   7.601  0.00  0.00    +0.010 A 
ATOM     38  C   UNL     1      -6.131  -9.719   6.042  0.00  0.00    +0.026 A 
ATOM     39  C   UNL     1      -5.070 -11.899   6.209  0.00  0.00    +0.001 A 
ATOM     40  C   UNL     1      -5.637 -10.882   5.443  0.00  0.00    +0.002 A 
ATOM     43  H   UNL     1      -6.870  -7.745   7.986  0.00  0.00    +0.165 HD
ENDBRANCH  26  27
ENDBRANCH  24  26
ENDBRANCH  10  24
ENDBRANCH  13  23
BRANCH   8   1
ATOM      1  S   UNL     1      -2.067 -14.047  13.633  0.00  0.00    +0.061 S 
ATOM      4  O   UNL     1      -1.792 -15.189  14.479  0.00  0.00    -0.153 OA
ATOM      5  O   UNL     1      -1.045 -13.059  13.358  0.00  0.00    -0.153 OA
BRANCH   1  25
ATOM     25  C   UNL     1      -2.668 -14.652  12.087  0.00  0.00    +0.105 A 
ATOM     28  C   UNL     1      -3.538 -13.873  11.324  0.00  0.00    +0.028 A 
ATOM     29  C   UNL     1      -2.274 -15.909  11.628  0.00  0.00    +0.028 A 
ATOM     33  C   UNL     1      -4.016 -14.351  10.105  0.00  0.00    +0.002 A 
ATOM     34  C   UNL     1      -2.752 -16.387  10.409  0.00  0.00    +0.002 A 
ATOM     36  C   UNL     1      -3.623 -15.609   9.646  0.00  0.00    +0.000 A 
ENDBRANCH   1  25
ENDBRANCH   8   1
TORSDOF 8
ENDMDL
MODEL 2
REMARK VINA RESULT:      -6.8      2.578      4.257
REMARK  Name = 45361707
REMARK  8 active torsions:
REMARK  status: ('A' for Active; 'I' for Inactive)
REMARK    1  A    between atoms: S_1  and  N_8
REMARK    2  A    between atoms: S_1  and  C_25
REMARK    3  A    between atoms: N_10  and  C_24
REMARK    4  A    between atoms: C_13  and  C_23
REMARK    5  A    between atoms: C_14  and  C_18
REMARK    6  A    between atoms: C_24  and  C_26
REMARK    7  A    between atoms: C_24  and  C_30
REMARK    8  A    between atoms: C_26  and  C_27
REMARK                            x       y       z     vdW  Elec       q    Type
REMARK                         _______ _______ _______ _____ _____    ______ ____
ROOT
ATOM      2  O   UNL     1      -7.732  -9.986  17.370  0.00  0.00    -0.275 OA
ATOM      7  N   UNL     1      -7.156 -11.057  15.387  0.00  0.00    -0.287 N 
ATOM      8  N   UNL     1      -7.857 -11.848  12.732  0.00  0.00    -0.173 NA
ATOM     13  C   UNL     1      -6.238 -11.912  14.617  0.00  0.00    +0.177 C 
ATOM     15  C   UNL     1      -6.946 -12.721  13.530  0.00  0.00    +0.141 C 
ATOM     16  C   UNL     1      -8.140 -10.298  14.607  0.00  0.00    +0.125 C 
ATOM     17  C   UNL     1      -8.865 -11.178  13.599  0.00  0.00    +0.128 C 
ATOM     18  C   UNL     1      -7.048 -10.810  16.760  0.00  0.00    +0.219 C 
ENDROOT
BRANCH  18  14
ATOM      9  N   UNL     1      -6.644 -11.617  20.383  0.00  0.00    -0.316 NA
ATOM     14  C   UNL     1      -6.032 -11.621  17.514  0.00  0.00    +0.078 C 
ATOM     19  C   UNL     1      -6.695 -12.808  18.215  0.00  0.00    +0.028 C 
ATOM     20  C   UNL     1      -5.273 -10.749  18.515  0.00  0.00    +0.028 C 
ATOM     21  C   UNL     1      -7.479 -12.383  19.459  0.00  0.00    +0.081 C 
ATOM     22  C   UNL     1      -6.116 -10.411  19.746  0.00  0.00    +0.081 C 
ATOM     41  H   UNL     1      -7.197 -11.354  21.198  0.00  0.00    +0.122 HD
ENDBRANCH  18  14
BRANCH  13  23
ATOM      3  O   UNL     1      -4.925  -9.917  14.543  0.00  0.00    -0.274 OA
ATOM     10  N   UNL     1      -4.593 -11.547  12.913  0.00  0.00    -0.302 N 
ATOM     23  C   UNL     1      -5.185 -11.010  14.043  0.00  0.00    +0.235 C 
ATOM     42  H   UNL     1      -4.794 -12.510  12.660  0.00  0.00    +0.150 HD
BRANCH  10  24
ATOM     24  C   UNL     1      -3.566 -10.865  12.159  0.00  0.00    +0.163 C 
BRANCH  24  30
ATOM      6  O   UNL     1      -1.796 -10.178  13.677  0.00  0.00    -0.274 OA
ATOM     12  N   UNL     1      -1.682 -12.268  12.732  0.00  0.00    -0.328 N 
ATOM     30  C   UNL     1      -2.263 -11.032  12.927  0.00  0.00    +0.231 C 
ATOM     44  H   UNL     1      -2.091 -12.973  12.127  0.00  0.00    +0.145 HD
ATOM     45  H   UNL     1      -0.814 -12.515  13.196  0.00  0.00    +0.145 HD
ENDBRANCH  24  30
BRANCH  24  26
ATOM     26  C   UNL     1      -3.423 -11.423  10.738  0.00  0.00    +0.069 C 
BRANCH  26  27
ATOM     11  N   UNL     1      -4.501  -8.691   8.516  0.00  0.00    -0.360 N 
ATOM     27  C   UNL     1      -4.010 -10.510   9.690  0.00  0.00    -0.020 A 
ATOM     31  C   UNL     1      -4.880 -10.887   8.629  0.00  0.00    +0.003 A 
ATOM     32  C   UNL     1      -3.796  -9.154   9.595  0.00  0.00    +0.087 A 
ATOM     35  C   UNL     1      -5.173  -9.728   7.907  0.00  0.00    +0.047 A 
ATOM     37  C   UNL     1      -5.447 -12.107   8.212  0.00  0.00    +0.010 A 
ATOM     38  C   UNL     1      -6.008  -9.727   6.785  0.00  0.00    +0.026 A 
ATOM     39  C   UNL     1      -6.285 -12.123   7.090  0.00  0.00    +0.001 A 
ATOM     40  C   UNL     1      -6.559 -10.950   6.389  0.00  0.00    +0.002 A 
ATOM     43  H   UNL     1      -4.526  -7.729   8.210  0.00  0.00    +0.165 HD
ENDBRANCH  26  27
ENDBRANCH  24  26
ENDBRANCH  10  24
ENDBRANCH  13  23
BRANCH   8   1
ATOM      1  S   UNL     1      -8.473 -12.550  11.295  0.00  0.00    +0.061 S 
ATOM      4  O   UNL     1      -9.812 -13.040  11.545  0.00  0.00    -0.153 OA
ATOM      5  O   UNL     1      -7.460 -13.408  10.719  0.00  0.00    -0.153 OA
BRANCH   1  25
ATOM     25  C   UNL     1      -8.605 -11.110  10.282  0.00  0.00    +0.105 A 
ATOM     28  C   UNL     1      -7.878  -9.964  10.601  0.00  0.00    +0.028 A 
ATOM     29  C   UNL     1      -9.438 -11.118   9.163  0.00  0.00    +0.028 A 
ATOM     33  C   UNL     1      -7.985  -8.825   9.804  0.00  0.00    +0.002 A 
ATOM     34  C   UNL     1      -9.544  -9.979   8.365  0.00  0.00    +0.002 A 
ATOM     36  C   UNL     1      -8.818  -8.832   8.685  0.00  0.00    +0.000 A 
ENDBRANCH   1  25
ENDBRANCH   8   1
TORSDOF 8
ENDMDL
MODEL 3
REMARK VINA RESULT:      -6.7     24.412     27.176
REMARK  Name = 45361707
REMARK  8 active torsions:
REMARK  status: ('A' for Active; 'I' for Inactive)
REMARK    1  A    between atoms: S_1  and  N_8
REMARK    2  A    between atoms: S_1  and  C_25
REMARK    3  A    between atoms: N_10  and  C_24
REMARK    4  A    between atoms: C_13  and  C_23
REMARK    5  A    between atoms: C_14  and  C_18
REMARK    6  A    between atoms: C_24  and  C_26
REMARK    7  A    between atoms: C_24  and  C_30
REMARK    8  A    between atoms: C_26  and  C_27
REMARK                            x       y       z     vdW  Elec       q    Type
REMARK                         _______ _______ _______ _____ _____    ______ ____
ROOT
ATOM      2  O   UNL     1       8.898  12.312   7.363  0.00  0.00    -0.275 OA
ATOM      7  N   UNL     1       9.650  10.114   7.241  0.00  0.00    -0.287 N 
ATOM      8  N   UNL     1       9.395   7.491   6.136  0.00  0.00    -0.173 NA
ATOM     13  C   UNL     1      10.507   9.028   7.743  0.00  0.00    +0.177 C 
ATOM     15  C   UNL     1       9.898   7.641   7.534  0.00  0.00    +0.141 C 
ATOM     16  C   UNL     1       9.049   9.906   5.919  0.00  0.00    +0.125 C 
ATOM     17  C   UNL     1       8.391   8.539   5.804  0.00  0.00    +0.128 C 
ATOM     18  C   UNL     1       9.505  11.361   7.859  0.00  0.00    +0.219 C 
ENDROOT
BRANCH  18  14
ATOM      9  N   UNL     1       8.998  13.844  10.601  0.00  0.00    -0.316 NA
ATOM     14  C   UNL     1      10.129  11.518   9.217  0.00  0.00    +0.078 C 
ATOM     19  C   UNL     1       9.077  11.388  10.319  0.00  0.00    +0.028 C 
ATOM     20  C   UNL     1      10.870  12.852   9.324  0.00  0.00    +0.028 C 
ATOM     21  C   UNL     1       8.196  12.634  10.431  0.00  0.00    +0.081 C 
ATOM     22  C   UNL     1       9.915  14.036   9.477  0.00  0.00    +0.081 C 
ATOM     41  H   UNL     1       8.380  14.651  10.674  0.00  0.00    +0.122 HD
ENDBRANCH  18  14
BRANCH  13  23
ATOM      3  O   UNL     1      12.478  10.208   7.087  0.00  0.00    -0.274 OA
ATOM     10  N   UNL     1      12.188   8.012   6.370  0.00  0.00    -0.302 N 
ATOM     23  C   UNL     1      11.830   9.165   7.048  0.00  0.00    +0.235 C 
ATOM     42  H   UNL     1      11.641   7.168   6.507  0.00  0.00    +0.150 HD
BRANCH  10  24
ATOM     24  C   UNL     1      13.406   7.893   5.601  0.00  0.00    +0.163 C 
BRANCH  24  30
ATOM      6  O   UNL     1      15.619   7.704   6.589  0.00  0.00    -0.274 OA
ATOM     12  N   UNL     1      13.966   6.286   7.318  0.00  0.00    -0.328 N 
ATOM     30  C   UNL     1      14.461   7.299   6.524  0.00  0.00    +0.231 C 
ATOM     44  H   UNL     1      13.000   5.977   7.270  0.00  0.00    +0.145 HD
ATOM     45  H   UNL     1      14.561   5.811   7.988  0.00  0.00    +0.145 HD
ENDBRANCH  24  30
BRANCH  24  26
ATOM     26  C   UNL     1      13.225   7.011   4.360  0.00  0.00    +0.069 C 
BRANCH  26  27
ATOM     11  N   UNL     1      15.519   8.535   1.915  0.00  0.00    -0.360 N 
ATOM     27  C   UNL     1      14.174   7.372   3.244  0.00  0.00    -0.020 A 
ATOM     31  C   UNL     1      14.676   6.496   2.241  0.00  0.00    +0.003 A 
ATOM     32  C   UNL     1      14.710   8.619   3.016  0.00  0.00    +0.087 A 
ATOM     35  C   UNL     1      15.517   7.250   1.420  0.00  0.00    +0.047 A 
ATOM     37  C   UNL     1      14.494   5.128   1.954  0.00  0.00    +0.010 A 
ATOM     38  C   UNL     1      16.188   6.703   0.321  0.00  0.00    +0.026 A 
ATOM     39  C   UNL     1      15.159   4.567   0.857  0.00  0.00    +0.001 A 
ATOM     40  C   UNL     1      15.993   5.344   0.055  0.00  0.00    +0.002 A 
ATOM     43  H   UNL     1      16.042   9.304   1.520  0.00  0.00    +0.165 HD
ENDBRANCH  26  27
ENDBRANCH  24  26
ENDBRANCH  10  24
ENDBRANCH  13  23
BRANCH   8   1
ATOM      1  S   UNL     1       8.973   5.895   5.676  0.00  0.00    +0.061 S 
ATOM      4  O   UNL     1       7.543   5.827   5.464  0.00  0.00    -0.153 OA
ATOM      5  O   UNL     1       9.642   4.960   6.555  0.00  0.00    -0.153 OA
BRANCH   1  25
ATOM     25  C   UNL     1       9.758   5.813   4.097  0.00  0.00    +0.105 A 
ATOM     28  C   UNL     1       9.664   6.889   3.214  0.00  0.00    +0.028 A 
ATOM     29  C   UNL     1      10.471   4.671   3.730  0.00  0.00    +0.028 A 
ATOM     33  C   UNL     1      10.281   6.824   1.966  0.00  0.00    +0.002 A 
ATOM     34  C   UNL     1      11.088   4.606   2.481  0.00  0.00    +0.002 A 
ATOM     36  C   UNL     1      10.993   5.682   1.598  0.00  0.00    +0.000 A 
ENDBRANCH   1  25
ENDBRANCH   8   1
TORSDOF 8
ENDMDL
MODEL 4
REMARK VINA RESULT:      -6.7     24.201     27.530
REMARK  Name = 45361707
REMARK  8 active torsions:
REMARK  status: ('A' for Active; 'I' for Inactive)
REMARK    1  A    between atoms: S_1  and  N_8
REMARK    2  A    between atoms: S_1  and  C_25
REMARK    3  A    between atoms: N_10  and  C_24
REMARK    4  A    between atoms: C_13  and  C_23
REMARK    5  A    between atoms: C_14  and  C_18
REMARK    6  A    between atoms: C_24  and  C_26
REMARK    7  A    between atoms: C_24  and  C_30
REMARK    8  A    between atoms: C_26  and  C_27
REMARK                            x       y       z     vdW  Elec       q    Type
REMARK                         _______ _______ _______ _____ _____    ______ ____
ROOT
ATOM      2  O   UNL     1      14.149  10.962   4.251  0.00  0.00    -0.275 OA
ATOM      7  N   UNL     1      13.170   8.852   4.194  0.00  0.00    -0.287 N 
ATOM      8  N   UNL     1      10.811   7.244   4.063  0.00  0.00    -0.173 NA
ATOM     13  C   UNL     1      13.280   7.389   4.315  0.00  0.00    +0.177 C 
ATOM     15  C   UNL     1      11.994   6.733   4.817  0.00  0.00    +0.141 C 
ATOM     16  C   UNL     1      11.943   9.360   3.570  0.00  0.00    +0.125 C 
ATOM     17  C   UNL     1      10.697   8.725   4.170  0.00  0.00    +0.128 C 
ATOM     18  C   UNL     1      14.200   9.752   4.486  0.00  0.00    +0.219 C 
ENDROOT
BRANCH  18  14
ATOM      9  N   UNL     1      17.522  11.230   5.336  0.00  0.00    -0.316 NA
ATOM     14  C   UNL     1      15.430   9.183   5.135  0.00  0.00    +0.078 C 
ATOM     19  C   UNL     1      15.744   9.914   6.442  0.00  0.00    +0.028 C 
ATOM     20  C   UNL     1      16.624   9.236   4.179  0.00  0.00    +0.028 C 
ATOM     21  C   UNL     1      16.346  11.300   6.202  0.00  0.00    +0.081 C 
ATOM     22  C   UNL     1      17.190  10.650   4.035  0.00  0.00    +0.081 C 
ATOM     41  H   UNL     1      17.897  12.168   5.200  0.00  0.00    +0.122 HD
ENDBRANCH  18  14
BRANCH  13  23
ATOM      3  O   UNL     1      14.377   7.531   2.196  0.00  0.00    -0.274 OA
ATOM     10  N   UNL     1      13.148   5.620   2.704  0.00  0.00    -0.302 N 
ATOM     23  C   UNL     1      13.676   6.873   2.962  0.00  0.00    +0.235 C 
ATOM     42  H   UNL     1      12.687   5.114   3.454  0.00  0.00    +0.150 HD
BRANCH  10  24
ATOM     24  C   UNL     1      13.362   4.913   1.462  0.00  0.00    +0.163 C 
BRANCH  24  30
ATOM      6  O   UNL     1      14.991   3.210   2.055  0.00  0.00    -0.274 OA
ATOM     12  N   UNL     1      15.709   5.061   0.901  0.00  0.00    -0.328 N 
ATOM     30  C   UNL     1      14.751   4.295   1.532  0.00  0.00    +0.231 C 
ATOM     44  H   UNL     1      15.491   5.946   0.452  0.00  0.00    +0.145 HD
ATOM     45  H   UNL     1      16.676   4.759   0.863  0.00  0.00    +0.145 HD
ENDBRANCH  24  30
BRANCH  24  26
ATOM     26  C   UNL     1      12.307   3.826   1.224  0.00  0.00    +0.069 C 
BRANCH  26  27
ATOM     11  N   UNL     1       9.735   4.954  -1.159  0.00  0.00    -0.360 N 
ATOM     27  C   UNL     1      11.403   4.135   0.056  0.00  0.00    -0.020 A 
ATOM     31  C   UNL     1      11.558   3.673  -1.281  0.00  0.00    +0.003 A 
ATOM     32  C   UNL     1      10.273   4.919   0.099  0.00  0.00    +0.087 A 
ATOM     35  C   UNL     1      10.499   4.201  -2.023  0.00  0.00    +0.047 A 
ATOM     37  C   UNL     1      12.502   2.854  -1.933  0.00  0.00    +0.010 A 
ATOM     38  C   UNL     1      10.336   3.950  -3.390  0.00  0.00    +0.026 A 
ATOM     39  C   UNL     1      12.351   2.594  -3.301  0.00  0.00    +0.001 A 
ATOM     40  C   UNL     1      11.284   3.135  -4.016  0.00  0.00    +0.002 A 
ATOM     43  H   UNL     1       8.899   5.457  -1.419  0.00  0.00    +0.165 HD
ENDBRANCH  26  27
ENDBRANCH  24  26
ENDBRANCH  10  24
ENDBRANCH  13  23
BRANCH   8   1
ATOM      1  S   UNL     1       9.354   6.375   4.306  0.00  0.00    +0.061 S 
ATOM      4  O   UNL     1       9.478   5.067   3.698  0.00  0.00    -0.153 OA
ATOM      5  O   UNL     1       8.234   7.238   3.997  0.00  0.00    -0.153 OA
BRANCH   1  25
ATOM     25  C   UNL     1       9.410   6.164   6.058  0.00  0.00    +0.105 A 
ATOM     28  C   UNL     1       9.861   4.962   6.602  0.00  0.00    +0.028 A 
ATOM     29  C   UNL     1       9.001   7.200   6.899  0.00  0.00    +0.028 A 
ATOM     33  C   UNL     1       9.903   4.794   7.985  0.00  0.00    +0.002 A 
ATOM     34  C   UNL     1       9.043   7.031   8.283  0.00  0.00    +0.002 A 
ATOM     36  C   UNL     1       9.494   5.828   8.827  0.00  0.00    +0.000 A 
ENDBRANCH   1  25
ENDBRANCH   8   1
TORSDOF 8
ENDMDL
MODEL 5
REMARK VINA RESULT:      -6.6      2.504      5.114
REMARK  Name = 45361707
REMARK  8 active torsions:
REMARK  status: ('A' for Active; 'I' for Inactive)
REMARK    1  A    between atoms: S_1  and  N_8
REMARK    2  A    between atoms: S_1  and  C_25
REMARK    3  A    between atoms: N_10  and  C_24
REMARK    4  A    between atoms: C_13  and  C_23
REMARK    5  A    between atoms: C_14  and  C_18
REMARK    6  A    between atoms: C_24  and  C_26
REMARK    7  A    between atoms: C_24  and  C_30
REMARK    8  A    between atoms: C_26  and  C_27
REMARK                            x       y       z     vdW  Elec       q    Type
REMARK                         _______ _______ _______ _____ _____    ______ ____
ROOT
ATOM      2  O   UNL     1      -8.779 -10.703  17.281  0.00  0.00    -0.275 OA
ATOM      7  N   UNL     1      -7.650 -11.139  15.294  0.00  0.00    -0.287 N 
ATOM      8  N   UNL     1      -7.601 -11.087  12.437  0.00  0.00    -0.173 NA
ATOM     13  C   UNL     1      -6.514 -11.740  14.576  0.00  0.00    +0.177 C 
ATOM     15  C   UNL     1      -6.869 -12.173  13.154  0.00  0.00    +0.141 C 
ATOM     16  C   UNL     1      -8.450 -10.166  14.543  0.00  0.00    +0.125 C 
ATOM     17  C   UNL     1      -8.836 -10.690  13.168  0.00  0.00    +0.128 C 
ATOM     18  C   UNL     1      -7.911 -11.318  16.657  0.00  0.00    +0.219 C 
ENDROOT
BRANCH  18  14
ATOM      9  N   UNL     1      -6.955 -11.720  20.244  0.00  0.00    -0.316 NA
ATOM     14  C   UNL     1      -7.072 -12.334  17.378  0.00  0.00    +0.078 C 
ATOM     19  C   UNL     1      -7.903 -13.090  18.416  0.00  0.00    +0.028 C 
ATOM     20  C   UNL     1      -5.855 -11.674  18.029  0.00  0.00    +0.028 C 
ATOM     21  C   UNL     1      -8.188 -12.245  19.659  0.00  0.00    +0.081 C 
ATOM     22  C   UNL     1      -6.225 -10.888  19.288  0.00  0.00    +0.081 C 
ATOM     41  H   UNL     1      -7.182 -11.166  21.069  0.00  0.00    +0.122 HD
ENDBRANCH  18  14
BRANCH  13  23
ATOM      3  O   UNL     1      -5.592  -9.572  14.975  0.00  0.00    -0.274 OA
ATOM     10  N   UNL     1      -4.219 -11.239  14.106  0.00  0.00    -0.302 N 
ATOM     23  C   UNL     1      -5.410 -10.724  14.589  0.00  0.00    +0.235 C 
ATOM     42  H   UNL     1      -4.146 -12.236  13.931  0.00  0.00    +0.150 HD
BRANCH  10  24
ATOM     24  C   UNL     1      -3.008 -10.457  13.993  0.00  0.00    +0.163 C 
BRANCH  24  30
ATOM      6  O   UNL     1      -2.651 -11.266  16.257  0.00  0.00    -0.274 OA
ATOM     12  N   UNL     1      -1.206  -9.694  15.412  0.00  0.00    -0.328 N 
ATOM     30  C   UNL     1      -2.306 -10.523  15.341  0.00  0.00    +0.231 C 
ATOM     44  H   UNL     1      -0.918  -9.103  14.639  0.00  0.00    +0.145 HD
ATOM     45  H   UNL     1      -0.639  -9.651  16.252  0.00  0.00    +0.145 HD
ENDBRANCH  24  30
BRANCH  24  26
ATOM     26  C   UNL     1      -2.084 -10.976  12.885  0.00  0.00    +0.069 C 
BRANCH  26  27
ATOM     11  N   UNL     1      -1.883 -14.652  13.012  0.00  0.00    -0.360 N 
ATOM     27  C   UNL     1      -2.172 -12.472  12.705  0.00  0.00    -0.020 A 
ATOM     31  C   UNL     1      -2.890 -13.163  11.690  0.00  0.00    +0.003 A 
ATOM     32  C   UNL     1      -1.562 -13.414  13.502  0.00  0.00    +0.087 A 
ATOM     35  C   UNL     1      -2.694 -14.529  11.905  0.00  0.00    +0.047 A 
ATOM     37  C   UNL     1      -3.693 -12.756  10.606  0.00  0.00    +0.010 A 
ATOM     38  C   UNL     1      -3.261 -15.512  11.088  0.00  0.00    +0.026 A 
ATOM     39  C   UNL     1      -4.267 -13.729   9.778  0.00  0.00    +0.001 A 
ATOM     40  C   UNL     1      -4.054 -15.085  10.018  0.00  0.00    +0.002 A 
ATOM     43  H   UNL     1      -1.572 -15.529  13.404  0.00  0.00    +0.165 HD
ENDBRANCH  26  27
ENDBRANCH  24  26
ENDBRANCH  10  24
ENDBRANCH  13  23
BRANCH   8   1
ATOM      1  S   UNL     1      -7.785 -11.315  10.749  0.00  0.00    +0.061 S 
ATOM      4  O   UNL     1      -8.970 -10.612  10.304  0.00  0.00    -0.153 OA
ATOM      5  O   UNL     1      -7.587 -12.714  10.439  0.00  0.00    -0.153 OA
BRANCH   1  25
ATOM     25  C   UNL     1      -6.378 -10.424  10.163  0.00  0.00    +0.105 A 
ATOM     28  C   UNL     1      -6.011 -10.505   8.820  0.00  0.00    +0.028 A 
ATOM     29  C   UNL     1      -5.631  -9.641  11.044  0.00  0.00    +0.028 A 
ATOM     33  C   UNL     1      -4.898  -9.804   8.357  0.00  0.00    +0.002 A 
ATOM     34  C   UNL     1      -4.518  -8.940  10.581  0.00  0.00    +0.002 A 
ATOM     36  C   UNL     1      -4.150  -9.022   9.237  0.00  0.00    +0.000 A 
ENDBRANCH   1  25
ENDBRANCH   8   1
TORSDOF 8
ENDMDL
MODEL 6
REMARK VINA RESULT:      -6.5     25.610     28.300
REMARK  Name = 45361707
REMARK  8 active torsions:
REMARK  status: ('A' for Active; 'I' for Inactive)
REMARK    1  A    between atoms: S_1  and  N_8
REMARK    2  A    between atoms: S_1  and  C_25
REMARK    3  A    between atoms: N_10  and  C_24
REMARK    4  A    between atoms: C_13  and  C_23
REMARK    5  A    between atoms: C_14  and  C_18
REMARK    6  A    between atoms: C_24  and  C_26
REMARK    7  A    between atoms: C_24  and  C_30
REMARK    8  A    between atoms: C_26  and  C_27
REMARK                            x       y       z     vdW  Elec       q    Type
REMARK                         _______ _______ _______ _____ _____    ______ ____
ROOT
ATOM      2  O   UNL     1      15.890  10.856   3.942  0.00  0.00    -0.275 OA
ATOM      7  N   UNL     1      14.674   8.887   4.186  0.00  0.00    -0.287 N 
ATOM      8  N   UNL     1      12.203   7.589   4.799  0.00  0.00    -0.173 NA
ATOM     13  C   UNL     1      14.624   7.418   4.261  0.00  0.00    +0.177 C 
ATOM     15  C   UNL     1      13.485   6.903   5.140  0.00  0.00    +0.141 C 
ATOM     16  C   UNL     1      13.392   9.569   3.983  0.00  0.00    +0.125 C 
ATOM     17  C   UNL     1      12.323   9.067   4.942  0.00  0.00    +0.128 C 
ATOM     18  C   UNL     1      15.853   9.640   4.143  0.00  0.00    +0.219 C 
ENDROOT
BRANCH  18  14
ATOM      9  N   UNL     1      19.188  10.696   5.447  0.00  0.00    -0.316 NA
ATOM     14  C   UNL     1      17.139   8.895   4.369  0.00  0.00    +0.078 C 
ATOM     19  C   UNL     1      17.524   8.911   5.850  0.00  0.00    +0.028 C 
ATOM     20  C   UNL     1      18.261   9.473   3.506  0.00  0.00    +0.028 C 
ATOM     21  C   UNL     1      18.074  10.268   6.292  0.00  0.00    +0.081 C 
ATOM     22  C   UNL     1      18.782  10.806   4.047  0.00  0.00    +0.081 C 
ATOM     41  H   UNL     1      19.531  11.599   5.772  0.00  0.00    +0.122 HD
ENDBRANCH  18  14
BRANCH  13  23
ATOM      3  O   UNL     1      14.874   7.594   1.891  0.00  0.00    -0.274 OA
ATOM     10  N   UNL     1      13.937   5.659   2.785  0.00  0.00    -0.302 N 
ATOM     23  C   UNL     1      14.508   6.919   2.850  0.00  0.00    +0.235 C 
ATOM     42  H   UNL     1      13.787   5.140   3.644  0.00  0.00    +0.150 HD
BRANCH  10  24
ATOM     24  C   UNL     1      13.693   4.965   1.541  0.00  0.00    +0.163 C 
BRANCH  24  30
ATOM      6  O   UNL     1      15.499   4.142   0.138  0.00  0.00    -0.274 OA
ATOM     12  N   UNL     1      15.410   3.456   2.328  0.00  0.00    -0.328 N 
ATOM     30  C   UNL     1      14.941   4.150   1.232  0.00  0.00    +0.231 C 
ATOM     44  H   UNL     1      14.951   3.490   3.233  0.00  0.00    +0.145 HD
ATOM     45  H   UNL     1      16.243   2.882   2.262  0.00  0.00    +0.145 HD
ENDBRANCH  24  30
BRANCH  24  26
ATOM     26  C   UNL     1      12.464   4.051   1.618  0.00  0.00    +0.069 C 
BRANCH  26  27
ATOM     11  N   UNL     1       9.756   4.956  -0.708  0.00  0.00    -0.360 N 
ATOM     27  C   UNL     1      11.504   4.267   0.474  0.00  0.00    -0.020 A 
ATOM     31  C   UNL     1      11.629   3.753  -0.847  0.00  0.00    +0.003 A 
ATOM     32  C   UNL     1      10.342   5.002   0.528  0.00  0.00    +0.087 A 
ATOM     35  C   UNL     1      10.520   4.200  -1.569  0.00  0.00    +0.047 A 
ATOM     37  C   UNL     1      12.584   2.948  -1.499  0.00  0.00    +0.010 A 
ATOM     38  C   UNL     1      10.317   3.881  -2.915  0.00  0.00    +0.026 A 
ATOM     39  C   UNL     1      12.394   2.620  -2.847  0.00  0.00    +0.001 A 
ATOM     40  C   UNL     1      11.277   3.081  -3.543  0.00  0.00    +0.002 A 
ATOM     43  H   UNL     1       8.888   5.410  -0.956  0.00  0.00    +0.165 HD
ENDBRANCH  26  27
ENDBRANCH  24  26
ENDBRANCH  10  24
ENDBRANCH  13  23
BRANCH   8   1
ATOM      1  S   UNL     1      10.794   6.896   5.485  0.00  0.00    +0.061 S 
ATOM      4  O   UNL     1      10.661   7.350   6.853  0.00  0.00    -0.153 OA
ATOM      5  O   UNL     1      10.759   5.486   5.160  0.00  0.00    -0.153 OA
BRANCH   1  25
ATOM     25  C   UNL     1       9.554   7.705   4.523  0.00  0.00    +0.105 A 
ATOM     28  C   UNL     1       8.595   8.501   5.150  0.00  0.00    +0.028 A 
ATOM     29  C   UNL     1       9.532   7.549   3.137  0.00  0.00    +0.028 A 
ATOM     33  C   UNL     1       7.613   9.138   4.392  0.00  0.00    +0.002 A 
ATOM     34  C   UNL     1       8.550   8.186   2.380  0.00  0.00    +0.002 A 
ATOM     36  C   UNL     1       7.590   8.981   3.006  0.00  0.00    +0.000 A 
ENDBRANCH   1  25
ENDBRANCH   8   1
TORSDOF 8
ENDMDL
MODEL 7
REMARK VINA RESULT:      -6.5     24.132     27.262
REMARK  Name = 45361707
REMARK  8 active torsions:
REMARK  status: ('A' for Active; 'I' for Inactive)
REMARK    1  A    between atoms: S_1  and  N_8
REMARK    2  A    between atoms: S_1  and  C_25
REMARK    3  A    between atoms: N_10  and  C_24
REMARK    4  A    between atoms: C_13  and  C_23
REMARK    5  A    between atoms: C_14  and  C_18
REMARK    6  A    between atoms: C_24  and  C_26
REMARK    7  A    between atoms: C_24  and  C_30
REMARK    8  A    between atoms: C_26  and  C_27
REMARK                            x       y       z     vdW  Elec       q    Type
REMARK                         _______ _______ _______ _____ _____    ______ ____
ROOT
ATOM      2  O   UNL     1      12.009   6.627   6.604  0.00  0.00    -0.275 OA
ATOM      7  N   UNL     1      11.823   6.919   4.304  0.00  0.00    -0.287 N 
ATOM      8  N   UNL     1      12.620   8.303   1.934  0.00  0.00    -0.173 NA
ATOM     13  C   UNL     1      11.145   6.629   3.030  0.00  0.00    +0.177 C 
ATOM     15  C   UNL     1      11.223   7.786   2.034  0.00  0.00    +0.141 C 
ATOM     16  C   UNL     1      13.144   7.550   4.205  0.00  0.00    +0.125 C 
ATOM     17  C   UNL     1      13.134   8.743   3.261  0.00  0.00    +0.128 C 
ATOM     18  C   UNL     1      11.367   6.501   5.559  0.00  0.00    +0.219 C 
ENDROOT
BRANCH  18  14
ATOM      9  N   UNL     1       8.274   7.318   7.484  0.00  0.00    -0.316 NA
ATOM     14  C   UNL     1      10.004   5.872   5.607  0.00  0.00    +0.078 C 
ATOM     19  C   UNL     1       8.931   6.859   5.144  0.00  0.00    +0.028 C 
ATOM     20  C   UNL     1       9.695   5.349   7.011  0.00  0.00    +0.028 C 
ATOM     21  C   UNL     1       8.627   7.923   6.200  0.00  0.00    +0.081 C 
ATOM     22  C   UNL     1       9.358   6.476   7.989  0.00  0.00    +0.081 C 
ATOM     41  H   UNL     1       8.076   8.054   8.160  0.00  0.00    +0.122 HD
ENDBRANCH  18  14
BRANCH  13  23
ATOM      3  O   UNL     1      11.508   4.269   2.934  0.00  0.00    -0.274 OA
ATOM     10  N   UNL     1      12.666   5.648   1.458  0.00  0.00    -0.302 N 
ATOM     23  C   UNL     1      11.772   5.381   2.482  0.00  0.00    +0.235 C 
ATOM     42  H   UNL     1      12.715   6.589   1.079  0.00  0.00    +0.150 HD
BRANCH  10  24
ATOM     24  C   UNL     1      13.419   4.620   0.778  0.00  0.00    +0.163 C 
BRANCH  24  30
ATOM      6  O   UNL     1      14.897   3.040   1.887  0.00  0.00    -0.274 OA
ATOM     12  N   UNL     1      15.182   5.282   2.295  0.00  0.00    -0.328 N 
ATOM     30  C   UNL     1      14.550   4.205   1.709  0.00  0.00    +0.231 C 
ATOM     44  H   UNL     1      14.899   6.241   2.121  0.00  0.00    +0.145 HD
ATOM     45  H   UNL     1      15.962   5.146   2.929  0.00  0.00    +0.145 HD
ENDBRANCH  24  30
BRANCH  24  26
ATOM     26  C   UNL     1      12.553   3.407   0.420  0.00  0.00    +0.069 C 
BRANCH  26  27
ATOM     11  N   UNL     1      11.771   3.095  -3.167  0.00  0.00    -0.360 N 
ATOM     27  C   UNL     1      12.022   3.466  -0.992  0.00  0.00    -0.020 A 
ATOM     31  C   UNL     1      10.921   4.243  -1.452  0.00  0.00    +0.003 A 
ATOM     32  C   UNL     1      12.524   2.772  -2.069  0.00  0.00    +0.087 A 
ATOM     35  C   UNL     1      10.785   3.992  -2.819  0.00  0.00    +0.047 A 
ATOM     37  C   UNL     1      10.025   5.136  -0.833  0.00  0.00    +0.010 A 
ATOM     38  C   UNL     1       9.794   4.593  -3.602  0.00  0.00    +0.026 A 
ATOM     39  C   UNL     1       9.028   5.746  -1.604  0.00  0.00    +0.001 A 
ATOM     40  C   UNL     1       8.915   5.476  -2.967  0.00  0.00    +0.002 A 
ATOM     43  H   UNL     1      11.917   2.730  -4.097  0.00  0.00    +0.165 HD
ENDBRANCH  26  27
ENDBRANCH  24  26
ENDBRANCH  10  24
ENDBRANCH  13  23
BRANCH   8   1
ATOM      1  S   UNL     1      12.911   9.385   0.636  0.00  0.00    +0.061 S 
ATOM      4  O   UNL     1      14.040  10.227   0.968  0.00  0.00    -0.153 OA
ATOM      5  O   UNL     1      11.652   9.958   0.211  0.00  0.00    -0.153 OA
BRANCH   1  25
ATOM     25  C   UNL     1      13.434   8.243  -0.604  0.00  0.00    +0.105 A 
ATOM     28  C   UNL     1      12.538   7.821  -1.586  0.00  0.00    +0.028 A 
ATOM     29  C   UNL     1      14.743   7.761  -0.602  0.00  0.00    +0.028 A 
ATOM     33  C   UNL     1      12.949   6.917  -2.565  0.00  0.00    +0.002 A 
ATOM     34  C   UNL     1      15.155   6.857  -1.580  0.00  0.00    +0.002 A 
ATOM     36  C   UNL     1      14.258   6.434  -2.562  0.00  0.00    +0.000 A 
ENDBRANCH   1  25
ENDBRANCH   8   1
TORSDOF 8
ENDMDL
MODEL 8
REMARK VINA RESULT:      -6.4      2.792      8.347
REMARK  Name = 45361707
REMARK  8 active torsions:
REMARK  status: ('A' for Active; 'I' for Inactive)
REMARK    1  A    between atoms: S_1  and  N_8
REMARK    2  A    between atoms: S_1  and  C_25
REMARK    3  A    between atoms: N_10  and  C_24
REMARK    4  A    between atoms: C_13  and  C_23
REMARK    5  A    between atoms: C_14  and  C_18
REMARK    6  A    between atoms: C_24  and  C_26
REMARK    7  A    between atoms: C_24  and  C_30
REMARK    8  A    between atoms: C_26  and  C_27
REMARK                            x       y       z     vdW  Elec       q    Type
REMARK                         _______ _______ _______ _____ _____    ______ ____
ROOT
ATOM      2  O   UNL     1      -7.095  -7.863   8.636  0.00  0.00    -0.275 OA
ATOM      7  N   UNL     1      -6.186  -9.336  10.191  0.00  0.00    -0.287 N 
ATOM      8  N   UNL     1      -3.903 -10.300  11.616  0.00  0.00    -0.173 NA
ATOM     13  C   UNL     1      -6.319 -10.513  11.065  0.00  0.00    +0.177 C 
ATOM     15  C   UNL     1      -4.998 -11.255  11.272  0.00  0.00    +0.141 C 
ATOM     16  C   UNL     1      -5.032  -8.467  10.447  0.00  0.00    +0.125 C 
ATOM     17  C   UNL     1      -3.739  -9.260  10.563  0.00  0.00    +0.128 C 
ATOM     18  C   UNL     1      -7.149  -8.923   9.264  0.00  0.00    +0.219 C 
ENDROOT
BRANCH  18  14
ATOM      9  N   UNL     1      -9.324  -9.556   6.296  0.00  0.00    -0.316 NA
ATOM     14  C   UNL     1      -8.304  -9.855   9.030  0.00  0.00    +0.078 C 
ATOM     19  C   UNL     1      -7.982 -10.855   7.918  0.00  0.00    +0.028 C 
ATOM     20  C   UNL     1      -9.578  -9.072   8.709  0.00  0.00    +0.028 C 
ATOM     21  C   UNL     1      -8.040 -10.216   6.529  0.00  0.00    +0.081 C 
ATOM     22  C   UNL     1      -9.570  -8.508   7.287  0.00  0.00    +0.081 C 
ATOM     41  H   UNL     1      -9.328  -9.146   5.363  0.00  0.00    +0.122 HD
ENDBRANCH  18  14
BRANCH  13  23
ATOM      3  O   UNL     1      -6.845  -8.840  12.688  0.00  0.00    -0.274 OA
ATOM     10  N   UNL     1      -7.432 -11.051  13.118  0.00  0.00    -0.302 N 
ATOM     23  C   UNL     1      -6.891 -10.024  12.363  0.00  0.00    +0.235 C 
ATOM     42  H   UNL     1      -7.530 -11.972  12.701  0.00  0.00    +0.150 HD
BRANCH  10  24
ATOM     24  C   UNL     1      -8.026 -10.848  14.420  0.00  0.00    +0.163 C 
BRANCH  24  30
ATOM      6  O   UNL     1     -10.240 -10.287  13.588  0.00  0.00    -0.274 OA
ATOM     12  N   UNL     1      -9.126  -8.743  14.872  0.00  0.00    -0.328 N 
ATOM     30  C   UNL     1      -9.242  -9.954  14.222  0.00  0.00    +0.231 C 
ATOM     44  H   UNL     1      -8.304  -8.489  15.411  0.00  0.00    +0.145 HD
ATOM     45  H   UNL     1      -9.872  -8.057  14.832  0.00  0.00    +0.145 HD
ENDBRANCH  24  30
BRANCH  24  26
ATOM     26  C   UNL     1      -8.437 -12.168  15.082  0.00  0.00    +0.069 C 
BRANCH  26  27
ATOM     11  N   UNL     1      -5.982 -13.876  17.231  0.00  0.00    -0.360 N 
ATOM     27  C   UNL     1      -7.449 -12.631  16.124  0.00  0.00    -0.020 A 
ATOM     31  C   UNL     1      -7.037 -11.911  17.281  0.00  0.00    +0.003 A 
ATOM     32  C   UNL     1      -6.783 -13.835  16.122  0.00  0.00    +0.087 A 
ATOM     35  C   UNL     1      -6.116 -12.714  17.958  0.00  0.00    +0.047 A 
ATOM     37  C   UNL     1      -7.360 -10.649  17.817  0.00  0.00    +0.010 A 
ATOM     38  C   UNL     1      -5.500 -12.317  19.149  0.00  0.00    +0.026 A 
ATOM     39  C   UNL     1      -6.752 -10.238  19.010  0.00  0.00    +0.001 A 
ATOM     40  C   UNL     1      -5.836 -11.061  19.663  0.00  0.00    +0.002 A 
ATOM     43  H   UNL     1      -5.378 -14.647  17.482  0.00  0.00    +0.165 HD
ENDBRANCH  26  27
ENDBRANCH  24  26
ENDBRANCH  10  24
ENDBRANCH  13  23
BRANCH   8   1
ATOM      1  S   UNL     1      -2.451 -11.018  12.175  0.00  0.00    +0.061 S 
ATOM      4  O   UNL     1      -1.333 -10.180  11.795  0.00  0.00    -0.153 OA
ATOM      5  O   UNL     1      -2.470 -12.429  11.852  0.00  0.00    -0.153 OA
BRANCH   1  25
ATOM     25  C   UNL     1      -2.680 -10.857  13.918  0.00  0.00    +0.105 A 
ATOM     28  C   UNL     1      -3.965 -10.723  14.443  0.00  0.00    +0.028 A 
ATOM     29  C   UNL     1      -1.575 -10.861  14.770  0.00  0.00    +0.028 A 
ATOM     33  C   UNL     1      -4.146 -10.592  15.820  0.00  0.00    +0.002 A 
ATOM     34  C   UNL     1      -1.757 -10.731  16.147  0.00  0.00    +0.002 A 
ATOM     36  C   UNL     1      -3.042 -10.596  16.672  0.00  0.00    +0.000 A 
ENDBRANCH   1  25
ENDBRANCH   8   1
TORSDOF 8
ENDMDL
MODEL 9
REMARK VINA RESULT:      -6.4      2.824      6.972
REMARK  Name = 45361707
REMARK  8 active torsions:
REMARK  status: ('A' for Active; 'I' for Inactive)
REMARK    1  A    between atoms: S_1  and  N_8
REMARK    2  A    between atoms: S_1  and  C_25
REMARK    3  A    between atoms: N_10  and  C_24
REMARK    4  A    between atoms: C_13  and  C_23
REMARK    5  A    between atoms: C_14  and  C_18
REMARK    6  A    between atoms: C_24  and  C_26
REMARK    7  A    between atoms: C_24  and  C_30
REMARK    8  A    between atoms: C_26  and  C_27
REMARK                            x       y       z     vdW  Elec       q    Type
REMARK                         _______ _______ _______ _____ _____    ______ ____
ROOT
ATOM      2  O   UNL     1      -2.224 -12.797  14.447  0.00  0.00    -0.275 OA
ATOM      7  N   UNL     1      -4.258 -13.022  15.555  0.00  0.00    -0.287 N 
ATOM      8  N   UNL     1      -6.042 -12.151  17.610  0.00  0.00    -0.173 NA
ATOM     13  C   UNL     1      -5.502 -13.769  15.801  0.00  0.00    +0.177 C 
ATOM     15  C   UNL     1      -6.032 -13.594  17.224  0.00  0.00    +0.141 C 
ATOM     16  C   UNL     1      -4.221 -11.643  16.053  0.00  0.00    +0.125 C 
ATOM     17  C   UNL     1      -4.685 -11.549  17.499  0.00  0.00    +0.128 C 
ATOM     18  C   UNL     1      -3.200 -13.481  14.762  0.00  0.00    +0.219 C 
ENDROOT
BRANCH  18  14
ATOM      9  N   UNL     1      -1.459 -15.335  12.029  0.00  0.00    -0.316 NA
ATOM     14  C   UNL     1      -3.280 -14.905  14.287  0.00  0.00    +0.078 C 
ATOM     19  C   UNL     1      -1.931 -15.607  14.442  0.00  0.00    +0.028 C 
ATOM     20  C   UNL     1      -3.767 -14.969  12.839  0.00  0.00    +0.028 C 
ATOM     21  C   UNL     1      -0.922 -15.167  13.379  0.00  0.00    +0.081 C 
ATOM     22  C   UNL     1      -2.682 -14.556  11.843  0.00  0.00    +0.081 C 
ATOM     41  H   UNL     1      -0.761 -15.036  11.349  0.00  0.00    +0.122 HD
ENDBRANCH  18  14
BRANCH  13  23
ATOM      3  O   UNL     1      -6.970 -14.067  13.939  0.00  0.00    -0.274 OA
ATOM     10  N   UNL     1      -6.770 -11.951  14.889  0.00  0.00    -0.302 N 
ATOM     23  C   UNL     1      -6.495 -13.303  14.777  0.00  0.00    +0.235 C 
ATOM     42  H   UNL     1      -6.419 -11.441  15.694  0.00  0.00    +0.150 HD
BRANCH  10  24
ATOM     24  C   UNL     1      -7.676 -11.253  14.006  0.00  0.00    +0.163 C 
BRANCH  24  30
ATOM      6  O   UNL     1      -9.355 -12.081  15.557  0.00  0.00    -0.274 OA
ATOM     12  N   UNL     1      -9.930 -10.386  14.119  0.00  0.00    -0.328 N 
ATOM     30  C   UNL     1      -9.058 -11.316  14.643  0.00  0.00    +0.231 C 
ATOM     44  H   UNL     1      -9.663  -9.743  13.379  0.00  0.00    +0.145 HD
ATOM     45  H   UNL     1     -10.881 -10.312  14.463  0.00  0.00    +0.145 HD
ENDBRANCH  24  30
BRANCH  24  26
ATOM     26  C   UNL     1      -7.259  -9.795  13.782  0.00  0.00    +0.069 C 
BRANCH  26  27
ATOM     11  N   UNL     1      -6.447  -9.010  10.276  0.00  0.00    -0.360 N 
ATOM     27  C   UNL     1      -6.662  -9.562  12.416  0.00  0.00    -0.020 A 
ATOM     31  C   UNL     1      -5.315  -9.805  12.027  0.00  0.00    +0.003 A 
ATOM     32  C   UNL     1      -7.334  -9.075  11.318  0.00  0.00    +0.087 A 
ATOM     35  C   UNL     1      -5.206  -9.450  10.681  0.00  0.00    +0.047 A 
ATOM     37  C   UNL     1      -4.174 -10.292  12.695  0.00  0.00    +0.010 A 
ATOM     38  C   UNL     1      -4.009  -9.559   9.965  0.00  0.00    +0.026 A 
ATOM     39  C   UNL     1      -2.969 -10.408  11.991  0.00  0.00    +0.001 A 
ATOM     40  C   UNL     1      -2.890 -10.046  10.647  0.00  0.00    +0.002 A 
ATOM     43  H   UNL     1      -6.669  -8.687   9.345  0.00  0.00    +0.165 HD
ENDBRANCH  26  27
ENDBRANCH  24  26
ENDBRANCH  10  24
ENDBRANCH  13  23
BRANCH   8   1
ATOM      1  S   UNL     1      -6.895 -11.783  19.050  0.00  0.00    +0.061 S 
ATOM      4  O   UNL     1      -6.006 -11.095  19.962  0.00  0.00    -0.153 OA
ATOM      5  O   UNL     1      -7.636 -12.953  19.470  0.00  0.00    -0.153 OA
BRANCH   1  25
ATOM     25  C   UNL     1      -8.052 -10.602  18.429  0.00  0.00    +0.105 A 
ATOM     28  C   UNL     1      -7.619  -9.582  17.581  0.00  0.00    +0.028 A 
ATOM     29  C   UNL     1      -9.397 -10.688  18.786  0.00  0.00    +0.028 A 
ATOM     33  C   UNL     1      -8.531  -8.647  17.093  0.00  0.00    +0.002 A 
ATOM     34  C   UNL     1     -10.309  -9.753  18.297  0.00  0.00    +0.002 A 
ATOM     36  C   UNL     1      -9.877  -8.732  17.450  0.00  0.00    +0.000 A 
ENDBRANCH   1  25
ENDBRANCH   8   1
TORSDOF 8
ENDMDL
MODEL 10
REMARK VINA RESULT:      -6.4     21.438     22.876
REMARK  Name = 45361707
REMARK  8 active torsions:
REMARK  status: ('A' for Active; 'I' for Inactive)
REMARK    1  A    between atoms: S_1  and  N_8
REMARK    2  A    between atoms: S_1  and  C_25
REMARK    3  A    between atoms: N_10  and  C_24
REMARK    4  A    between atoms: C_13  and  C_23
REMARK    5  A    between atoms: C_14  and  C_18
REMARK    6  A    between atoms: C_24  and  C_26
REMARK    7  A    between atoms: C_24  and  C_30
REMARK    8  A    between atoms: C_26  and  C_27
REMARK                            x       y       z     vdW  Elec       q    Type
REMARK                         _______ _______ _______ _____ _____    ______ ____
ROOT
ATOM      2  O   UNL     1     -15.707   3.206  23.095  0.00  0.00    -0.275 OA
ATOM      7  N   UNL     1     -15.773   5.252  21.988  0.00  0.00    -0.287 N 
ATOM      8  N   UNL     1     -14.476   7.693  21.265  0.00  0.00    -0.173 NA
ATOM     13  C   UNL     1     -16.526   6.286  21.260  0.00  0.00    +0.177 C 
ATOM     15  C   UNL     1     -15.956   7.691  21.460  0.00  0.00    +0.141 C 
ATOM     16  C   UNL     1     -14.311   5.334  21.903  0.00  0.00    +0.125 C 
ATOM     17  C   UNL     1     -13.804   6.739  22.190  0.00  0.00    +0.128 C 
ATOM     18  C   UNL     1     -16.351   4.139  22.608  0.00  0.00    +0.219 C 
ENDROOT
BRANCH  18  14
ATOM      9  N   UNL     1     -18.769   1.607  23.907  0.00  0.00    -0.316 NA
ATOM     14  C   UNL     1     -17.852   4.109  22.680  0.00  0.00    +0.078 C 
ATOM     19  C   UNL     1     -18.326   4.030  24.132  0.00  0.00    +0.028 C 
ATOM     20  C   UNL     1     -18.413   2.947  21.858  0.00  0.00    +0.028 C 
ATOM     21  C   UNL     1     -18.135   2.635  24.731  0.00  0.00    +0.081 C 
ATOM     22  C   UNL     1     -18.219   1.598  22.551  0.00  0.00    +0.081 C 
ATOM     41  H   UNL     1     -18.624   0.694  24.336  0.00  0.00    +0.122 HD
ENDBRANCH  18  14
BRANCH  13  23
ATOM      3  O   UNL     1     -16.544   4.706  19.468  0.00  0.00    -0.274 OA
ATOM     10  N   UNL     1     -16.472   6.978  18.966  0.00  0.00    -0.302 N 
ATOM     23  C   UNL     1     -16.522   5.885  19.814  0.00  0.00    +0.235 C 
ATOM     42  H   UNL     1     -16.585   7.910  19.355  0.00  0.00    +0.150 HD
BRANCH  10  24
ATOM     24  C   UNL     1     -16.436   6.861  17.527  0.00  0.00    +0.163 C 
BRANCH  24  30
ATOM      6  O   UNL     1     -18.842   6.823  17.183  0.00  0.00    -0.274 OA
ATOM     12  N   UNL     1     -17.612   4.991  16.545  0.00  0.00    -0.328 N 
ATOM     30  C   UNL     1     -17.760   6.247  17.094  0.00  0.00    +0.231 C 
ATOM     44  H   UNL     1     -16.709   4.537  16.457  0.00  0.00    +0.145 HD
ATOM     45  H   UNL     1     -18.416   4.474  16.204  0.00  0.00    +0.145 HD
ENDBRANCH  24  30
BRANCH  24  26
ATOM     26  C   UNL     1     -16.227   8.216  16.839  0.00  0.00    +0.069 C 
BRANCH  26  27
ATOM     11  N   UNL     1     -13.460   7.713  14.461  0.00  0.00    -0.360 N 
ATOM     27  C   UNL     1     -14.986   8.250  15.981  0.00  0.00    -0.020 A 
ATOM     31  C   UNL     1     -13.950   9.224  16.028  0.00  0.00    +0.003 A 
ATOM     32  C   UNL     1     -14.656   7.333  15.009  0.00  0.00    +0.087 A 
ATOM     35  C   UNL     1     -13.005   8.864  15.064  0.00  0.00    +0.047 A 
ATOM     37  C   UNL     1     -13.726  10.381  16.799  0.00  0.00    +0.010 A 
ATOM     38  C   UNL     1     -11.842   9.607  14.833  0.00  0.00    +0.026 A 
ATOM     39  C   UNL     1     -12.566  11.134  16.579  0.00  0.00    +0.001 A 
ATOM     40  C   UNL     1     -11.640  10.751  15.610  0.00  0.00    +0.002 A 
ATOM     43  H   UNL     1     -12.979   7.221  13.721  0.00  0.00    +0.165 HD
ENDBRANCH  26  27
ENDBRANCH  24  26
ENDBRANCH  10  24
ENDBRANCH  13  23
BRANCH   8   1
ATOM      1  S   UNL     1     -13.752   9.243  21.152  0.00  0.00    +0.061 S 
ATOM      4  O   UNL     1     -13.120   9.561  22.415  0.00  0.00    -0.153 OA
ATOM      5  O   UNL     1     -14.691  10.156  20.536  0.00  0.00    -0.153 OA
BRANCH   1  25
ATOM     25  C   UNL     1     -12.477   8.902  19.979  0.00  0.00    +0.105 A 
ATOM     28  C   UNL     1     -12.577   7.790  19.143  0.00  0.00    +0.028 A 
ATOM     29  C   UNL     1     -11.368   9.743  19.891  0.00  0.00    +0.028 A 
ATOM     33  C   UNL     1     -11.569   7.519  18.219  0.00  0.00    +0.002 A 
ATOM     34  C   UNL     1     -10.359   9.472  18.966  0.00  0.00    +0.002 A 
ATOM     36  C   UNL     1     -10.459   8.359  18.130  0.00  0.00    +0.000 A 
ENDBRANCH   1  25
ENDBRANCH   8   1
TORSDOF 8
ENDMDL
