MODEL 1
REMARK VINA RESULT:      -7.6      0.000      0.000
REMARK  Name = 7144073
REMARK  5 active torsions:
REMARK  status: ('A' for Active; 'I' for Inactive)
REMARK    1  A    between atoms: N_3  and  C_13
REMARK    2  A    between atoms: C_13  and  C_18
REMARK    3  A    between atoms: C_16  and  C_19
REMARK    4  A    between atoms: C_22  and  C_27
REMARK    5  A    between atoms: C_24  and  C_26
REMARK                            x       y       z     vdW  Elec       q    Type
REMARK                         _______ _______ _______ _____ _____    ______ ____
ROOT
ATOM      2  O   UNL     1      -6.307 -11.239  11.087  0.00  0.00    -0.267 OA
ATOM      3  N   UNL     1      -3.137 -11.031  14.956  0.00  0.00    -0.297 NA
ATOM      4  N   UNL     1      -4.161 -11.479  11.968  0.00  0.00    -0.311 N 
ATOM      6  C   UNL     1      -3.598 -13.197  13.784  0.00  0.00    +0.024 C 
ATOM      7  C   UNL     1      -1.847 -11.717  12.929  0.00  0.00    +0.050 C 
ATOM      8  C   UNL     1      -2.209 -13.180  13.161  0.00  0.00    +0.017 C 
ATOM      9  C   UNL     1      -3.590 -12.417  15.116  0.00  0.00    +0.090 C 
ATOM     10  C   UNL     1      -1.832 -10.967  14.281  0.00  0.00    +0.094 C 
ATOM     11  C   UNL     1      -4.602 -12.627  12.773  0.00  0.00    +0.130 C 
ATOM     12  C   UNL     1      -2.828 -11.064  11.971  0.00  0.00    +0.026 A 
ATOM     14  C   UNL     1      -2.425 -10.085  11.147  0.00  0.00    +0.022 A 
ATOM     15  C   UNL     1      -5.126 -10.886  11.128  0.00  0.00    +0.259 A 
ATOM     16  C   UNL     1      -4.651  -9.772  10.234  0.00  0.00    +0.040 A 
ATOM     17  C   UNL     1      -3.355  -9.432  10.270  0.00  0.00    +0.015 A 
ENDROOT
BRANCH  16  19
ATOM     19  C   UNL     1      -5.582  -9.106   9.358  0.00  0.00    +0.014 C 
ATOM     24  C   UNL     1      -5.890  -9.567   8.139  0.00  0.00    +0.008 C 
BRANCH  24  26
ATOM      1 CL   UNL     1      -9.683  -6.940   4.358  0.00  0.00    -0.084 Cl
ATOM     26  C   UNL     1      -6.827  -8.918   7.205  0.00  0.00    -0.025 A 
ATOM     28  C   UNL     1      -7.779  -8.041   7.700  0.00  0.00    +0.009 A 
ATOM     29  C   UNL     1      -6.737  -9.196   5.850  0.00  0.00    +0.009 A 
ATOM     30  C   UNL     1      -8.666  -7.427   6.815  0.00  0.00    +0.020 A 
ATOM     31  C   UNL     1      -7.624  -8.582   4.967  0.00  0.00    +0.020 A 
ATOM     32  C   UNL     1      -8.589  -7.698   5.448  0.00  0.00    +0.041 A 
ENDBRANCH  24  26
ENDBRANCH  16  19
BRANCH   3  13
ATOM     13  C   UNL     1      -3.093 -10.342  16.244  0.00  0.00    +0.119 C 
BRANCH  13  18
ATOM     18  C   UNL     1      -4.403 -10.473  16.972  0.00  0.00    -0.032 A 
ATOM     20  C   UNL     1      -5.528  -9.827  16.479  0.00  0.00    +0.023 A 
ATOM     21  C   UNL     1      -4.470 -11.240  18.128  0.00  0.00    +0.005 A 
ATOM     22  C   UNL     1      -6.743  -9.948  17.155  0.00  0.00    +0.052 A 
ATOM     23  C   UNL     1      -5.683 -11.362  18.804  0.00  0.00    +0.002 A 
ATOM     25  C   UNL     1      -6.820 -10.716  18.317  0.00  0.00    +0.019 A 
BRANCH  22  27
ATOM      5  N   UNL     1      -8.856  -8.751  16.252  0.00  0.00    -0.191 NA
ATOM     27  C   UNL     1      -7.908  -9.287  16.657  0.00  0.00    +0.099 C 
ENDBRANCH  22  27
ENDBRANCH  13  18
ENDBRANCH   3  13
TORSDOF 5
ENDMDL
MODEL 2
REMARK VINA RESULT:      -7.4     25.205     27.920
REMARK  Name = 7144073
REMARK  5 active torsions:
REMARK  status: ('A' for Active; 'I' for Inactive)
REMARK    1  A    between atoms: N_3  and  C_13
REMARK    2  A    between atoms: C_13  and  C_18
REMARK    3  A    between atoms: C_16  and  C_19
REMARK    4  A    between atoms: C_22  and  C_27
REMARK    5  A    between atoms: C_24  and  C_26
REMARK                            x       y       z     vdW  Elec       q    Type
REMARK                         _______ _______ _______ _____ _____    ______ ____
ROOT
ATOM      2  O   UNL     1      13.543   6.296   7.244  0.00  0.00    -0.267 OA
ATOM      3  N   UNL     1       9.183   7.782   5.284  0.00  0.00    -0.297 NA
ATOM      4  N   UNL     1      11.825   7.863   7.070  0.00  0.00    -0.311 N 
ATOM      6  C   UNL     1       9.407   7.341   7.741  0.00  0.00    +0.024 C 
ATOM      7  C   UNL     1       9.973   9.554   6.859  0.00  0.00    +0.050 C 
ATOM      8  C   UNL     1       9.325   8.832   8.037  0.00  0.00    +0.017 C 
ATOM      9  C   UNL     1       8.664   7.021   6.426  0.00  0.00    +0.090 C 
ATOM     10  C   UNL     1       9.197   9.226   5.562  0.00  0.00    +0.094 C 
ATOM     11  C   UNL     1      10.884   6.925   7.700  0.00  0.00    +0.130 C 
ATOM     12  C   UNL     1      11.431   9.156   6.721  0.00  0.00    +0.026 A 
ATOM     14  C   UNL     1      12.333  10.031   6.249  0.00  0.00    +0.022 A 
ATOM     15  C   UNL     1      13.158   7.424   6.929  0.00  0.00    +0.259 A 
ATOM     16  C   UNL     1      14.141   8.419   6.372  0.00  0.00    +0.040 A 
ATOM     17  C   UNL     1      13.705   9.650   6.073  0.00  0.00    +0.015 A 
ENDROOT
BRANCH  16  19
ATOM     19  C   UNL     1      15.519   8.039   6.184  0.00  0.00    +0.014 C 
ATOM     24  C   UNL     1      16.456   8.894   5.754  0.00  0.00    +0.008 C 
BRANCH  24  26
ATOM      1 CL   UNL     1      22.192   7.509   4.876  0.00  0.00    -0.084 Cl
ATOM     26  C   UNL     1      17.873   8.552   5.537  0.00  0.00    -0.025 A 
ATOM     28  C   UNL     1      18.766   8.666   6.589  0.00  0.00    +0.009 A 
ATOM     29  C   UNL     1      18.283   8.122   4.285  0.00  0.00    +0.009 A 
ATOM     30  C   UNL     1      20.108   8.342   6.384  0.00  0.00    +0.020 A 
ATOM     31  C   UNL     1      19.624   7.799   4.080  0.00  0.00    +0.020 A 
ATOM     32  C   UNL     1      20.537   7.908   5.129  0.00  0.00    +0.041 A 
ENDBRANCH  24  26
ENDBRANCH  16  19
BRANCH   3  13
ATOM     13  C   UNL     1       8.422   7.491   4.071  0.00  0.00    +0.119 C 
BRANCH  13  18
ATOM     18  C   UNL     1       9.336   7.144   2.928  0.00  0.00    -0.032 A 
ATOM     20  C   UNL     1      10.081   5.974   2.978  0.00  0.00    +0.023 A 
ATOM     21  C   UNL     1       9.422   7.998   1.837  0.00  0.00    +0.005 A 
ATOM     22  C   UNL     1      10.929   5.652   1.918  0.00  0.00    +0.052 A 
ATOM     23  C   UNL     1      10.269   7.677   0.777  0.00  0.00    +0.002 A 
ATOM     25  C   UNL     1      11.023   6.504   0.818  0.00  0.00    +0.019 A 
BRANCH  22  27
ATOM      5  N   UNL     1      12.329   3.473   1.991  0.00  0.00    -0.191 NA
ATOM     27  C   UNL     1      11.701   4.450   1.959  0.00  0.00    +0.099 C 
ENDBRANCH  22  27
ENDBRANCH  13  18
ENDBRANCH   3  13
TORSDOF 5
ENDMDL
MODEL 3
REMARK VINA RESULT:      -7.3     20.068     22.390
REMARK  Name = 7144073
REMARK  5 active torsions:
REMARK  status: ('A' for Active; 'I' for Inactive)
REMARK    1  A    between atoms: N_3  and  C_13
REMARK    2  A    between atoms: C_13  and  C_18
REMARK    3  A    between atoms: C_16  and  C_19
REMARK    4  A    between atoms: C_22  and  C_27
REMARK    5  A    between atoms: C_24  and  C_26
REMARK                            x       y       z     vdW  Elec       q    Type
REMARK                         _______ _______ _______ _____ _____    ______ ____
ROOT
ATOM      2  O   UNL     1     -14.826   9.192  20.152  0.00  0.00    -0.267 OA
ATOM      3  N   UNL     1     -11.504   9.293  16.409  0.00  0.00    -0.297 NA
ATOM      4  N   UNL     1     -12.625   9.331  19.396  0.00  0.00    -0.311 N 
ATOM      6  C   UNL     1     -11.787  11.262  17.933  0.00  0.00    +0.024 C 
ATOM      7  C   UNL     1     -10.253   9.462  18.565  0.00  0.00    +0.050 C 
ATOM      8  C   UNL     1     -10.442  10.975  18.586  0.00  0.00    +0.017 C 
ATOM      9  C   UNL     1     -11.796  10.729  16.485  0.00  0.00    +0.090 C 
ATOM     10  C   UNL     1     -10.250   8.962  17.102  0.00  0.00    +0.094 C 
ATOM     11  C   UNL     1     -12.897  10.645  18.795  0.00  0.00    +0.130 C 
ATOM     12  C   UNL     1     -11.346   8.771  19.360  0.00  0.00    +0.026 A 
ATOM     14  C   UNL     1     -11.095   7.623  20.008  0.00  0.00    +0.022 A 
ATOM     15  C   UNL     1     -13.691   8.717  20.086  0.00  0.00    +0.259 A 
ATOM     16  C   UNL     1     -13.385   7.417  20.781  0.00  0.00    +0.040 A 
ATOM     17  C   UNL     1     -12.134   6.941  20.725  0.00  0.00    +0.015 A 
ENDROOT
BRANCH  16  19
ATOM     19  C   UNL     1     -14.426   6.721  21.494  0.00  0.00    +0.014 C 
ATOM     24  C   UNL     1     -14.224   5.554  22.119  0.00  0.00    +0.008 C 
BRANCH  24  26
ATOM      1 CL   UNL     1     -18.405   2.508  25.090  0.00  0.00    -0.084 Cl
ATOM     26  C   UNL     1     -15.257   4.802  22.853  0.00  0.00    -0.025 A 
ATOM     28  C   UNL     1     -16.536   4.715  22.327  0.00  0.00    +0.009 A 
ATOM     29  C   UNL     1     -14.929   4.194  24.055  0.00  0.00    +0.009 A 
ATOM     30  C   UNL     1     -17.514   4.002  23.022  0.00  0.00    +0.020 A 
ATOM     31  C   UNL     1     -15.907   3.483  24.749  0.00  0.00    +0.020 A 
ATOM     32  C   UNL     1     -17.199   3.386  24.233  0.00  0.00    +0.041 A 
ENDBRANCH  24  26
ENDBRANCH  16  19
BRANCH   3  13
ATOM     13  C   UNL     1     -11.470   8.839  15.021  0.00  0.00    +0.119 C 
BRANCH  13  18
ATOM     18  C   UNL     1     -12.757   8.157  14.642  0.00  0.00    -0.032 A 
ATOM     20  C   UNL     1     -13.817   8.150  15.538  0.00  0.00    +0.023 A 
ATOM     21  C   UNL     1     -12.867   7.543  13.402  0.00  0.00    +0.005 A 
ATOM     22  C   UNL     1     -15.010   7.517  15.187  0.00  0.00    +0.052 A 
ATOM     23  C   UNL     1     -14.059   6.911  13.050  0.00  0.00    +0.002 A 
ATOM     25  C   UNL     1     -15.131   6.898  13.943  0.00  0.00    +0.019 A 
BRANCH  22  27
ATOM      5  N   UNL     1     -17.002   7.493  16.844  0.00  0.00    -0.191 NA
ATOM     27  C   UNL     1     -16.109   7.504  16.101  0.00  0.00    +0.099 C 
ENDBRANCH  22  27
ENDBRANCH  13  18
ENDBRANCH   3  13
TORSDOF 5
ENDMDL
MODEL 4
REMARK VINA RESULT:      -7.3     18.958     21.897
REMARK  Name = 7144073
REMARK  5 active torsions:
REMARK  status: ('A' for Active; 'I' for Inactive)
REMARK    1  A    between atoms: N_3  and  C_13
REMARK    2  A    between atoms: C_13  and  C_18
REMARK    3  A    between atoms: C_16  and  C_19
REMARK    4  A    between atoms: C_22  and  C_27
REMARK    5  A    between atoms: C_24  and  C_26
REMARK                            x       y       z     vdW  Elec       q    Type
REMARK                         _______ _______ _______ _____ _____    ______ ____
ROOT
ATOM      2  O   UNL     1      -6.450   9.956   5.178  0.00  0.00    -0.267 OA
ATOM      3  N   UNL     1      -1.684  10.427   3.719  0.00  0.00    -0.297 NA
ATOM      4  N   UNL     1      -4.187   9.466   5.449  0.00  0.00    -0.311 N 
ATOM      6  C   UNL     1      -2.434  11.265   5.958  0.00  0.00    +0.024 C 
ATOM      7  C   UNL     1      -1.742   8.930   5.719  0.00  0.00    +0.050 C 
ATOM      8  C   UNL     1      -1.691  10.134   6.654  0.00  0.00    +0.017 C 
ATOM      9  C   UNL     1      -1.759  11.592   4.609  0.00  0.00    +0.090 C 
ATOM     10  C   UNL     1      -1.045   9.282   4.385  0.00  0.00    +0.094 C 
ATOM     11  C   UNL     1      -3.908  10.866   5.799  0.00  0.00    +0.130 C 
ATOM     12  C   UNL     1      -3.177   8.501   5.471  0.00  0.00    +0.026 A 
ATOM     14  C   UNL     1      -3.474   7.210   5.255  0.00  0.00    +0.022 A 
ATOM     15  C   UNL     1      -5.532   9.133   5.187  0.00  0.00    +0.259 A 
ATOM     16  C   UNL     1      -5.830   7.682   4.923  0.00  0.00    +0.040 A 
ATOM     17  C   UNL     1      -4.821   6.802   4.976  0.00  0.00    +0.015 A 
ENDROOT
BRANCH  16  19
ATOM     19  C   UNL     1      -7.179   7.266   4.632  0.00  0.00    +0.014 C 
ATOM     24  C   UNL     1      -8.078   6.995   5.587  0.00  0.00    +0.008 C 
BRANCH  24  26
ATOM      1 CL   UNL     1     -13.688   5.231   4.588  0.00  0.00    -0.084 Cl
ATOM     26  C   UNL     1      -9.464   6.559   5.340  0.00  0.00    -0.025 A 
ATOM     28  C   UNL     1      -9.692   5.416   4.592  0.00  0.00    +0.009 A 
ATOM     29  C   UNL     1     -10.512   7.301   5.861  0.00  0.00    +0.009 A 
ATOM     30  C   UNL     1     -11.005   5.003   4.359  0.00  0.00    +0.020 A 
ATOM     31  C   UNL     1     -11.823   6.889   5.627  0.00  0.00    +0.020 A 
ATOM     32  C   UNL     1     -12.070   5.740   4.876  0.00  0.00    +0.041 A 
ENDBRANCH  24  26
ENDBRANCH  16  19
BRANCH   3  13
ATOM     13  C   UNL     1      -0.993  10.762   2.476  0.00  0.00    +0.119 C 
BRANCH  13  18
ATOM     18  C   UNL     1      -1.745  10.241   1.282  0.00  0.00    -0.032 A 
ATOM     20  C   UNL     1      -3.105  10.495   1.164  0.00  0.00    +0.023 A 
ATOM     21  C   UNL     1      -1.069   9.514   0.311  0.00  0.00    +0.005 A 
ATOM     22  C   UNL     1      -3.802  10.012   0.056  0.00  0.00    +0.052 A 
ATOM     23  C   UNL     1      -1.765   9.031  -0.796  0.00  0.00    +0.002 A 
ATOM     25  C   UNL     1      -3.132   9.280  -0.924  0.00  0.00    +0.019 A 
BRANCH  22  27
ATOM      5  N   UNL     1      -6.340  10.474  -0.182  0.00  0.00    -0.191 NA
ATOM     27  C   UNL     1      -5.202  10.267  -0.075  0.00  0.00    +0.099 C 
ENDBRANCH  22  27
ENDBRANCH  13  18
ENDBRANCH   3  13
TORSDOF 5
ENDMDL
MODEL 5
REMARK VINA RESULT:      -7.2     19.055     22.934
REMARK  Name = 7144073
REMARK  5 active torsions:
REMARK  status: ('A' for Active; 'I' for Inactive)
REMARK    1  A    between atoms: N_3  and  C_13
REMARK    2  A    between atoms: C_13  and  C_18
REMARK    3  A    between atoms: C_16  and  C_19
REMARK    4  A    between atoms: C_22  and  C_27
REMARK    5  A    between atoms: C_24  and  C_26
REMARK                            x       y       z     vdW  Elec       q    Type
REMARK                         _______ _______ _______ _____ _____    ______ ____
ROOT
ATOM      2  O   UNL     1      -5.876  10.623   3.567  0.00  0.00    -0.267 OA
ATOM      3  N   UNL     1      -1.395  10.109   1.397  0.00  0.00    -0.297 NA
ATOM      4  N   UNL     1      -3.562  10.391   3.721  0.00  0.00    -0.311 N 
ATOM      6  C   UNL     1      -1.933  12.130   2.777  0.00  0.00    +0.024 C 
ATOM      7  C   UNL     1      -1.064  10.121   3.874  0.00  0.00    +0.050 C 
ATOM      8  C   UNL     1      -1.007  11.645   3.885  0.00  0.00    +0.017 C 
ATOM      9  C   UNL     1      -1.465  11.574   1.415  0.00  0.00    +0.090 C 
ATOM     10  C   UNL     1      -0.574   9.595   2.504  0.00  0.00    +0.094 C 
ATOM     11  C   UNL     1      -3.372  11.718   3.119  0.00  0.00    +0.130 C 
ATOM     12  C   UNL     1      -2.473   9.633   4.157  0.00  0.00    +0.026 A 
ATOM     14  C   UNL     1      -2.674   8.473   4.803  0.00  0.00    +0.022 A 
ATOM     15  C   UNL     1      -4.893   9.971   3.922  0.00  0.00    +0.259 A 
ATOM     16  C   UNL     1      -5.087   8.654   4.626  0.00  0.00    +0.040 A 
ATOM     17  C   UNL     1      -4.002   7.982   5.035  0.00  0.00    +0.015 A 
ENDROOT
BRANCH  16  19
ATOM     19  C   UNL     1      -6.418   8.150   4.854  0.00  0.00    +0.014 C 
ATOM     24  C   UNL     1      -6.874   7.023   4.293  0.00  0.00    +0.008 C 
BRANCH  24  26
ATOM      1 CL   UNL     1     -12.351   4.795   5.083  0.00  0.00    -0.084 Cl
ATOM     26  C   UNL     1      -8.227   6.473   4.488  0.00  0.00    -0.025 A 
ATOM     28  C   UNL     1      -9.098   7.106   5.361  0.00  0.00    +0.009 A 
ATOM     29  C   UNL     1      -8.603   5.333   3.796  0.00  0.00    +0.009 A 
ATOM     30  C   UNL     1     -10.379   6.585   5.545  0.00  0.00    +0.020 A 
ATOM     31  C   UNL     1      -9.883   4.812   3.981  0.00  0.00    +0.020 A 
ATOM     32  C   UNL     1     -10.772   5.438   4.855  0.00  0.00    +0.041 A 
ENDBRANCH  24  26
ENDBRANCH  16  19
BRANCH   3  13
ATOM     13  C   UNL     1      -0.898   9.624   0.111  0.00  0.00    +0.119 C 
BRANCH  13  18
ATOM     18  C   UNL     1      -1.877   9.919  -0.993  0.00  0.00    -0.032 A 
ATOM     20  C   UNL     1      -3.206   9.543  -0.849  0.00  0.00    +0.023 A 
ATOM     21  C   UNL     1      -1.439  10.564  -2.142  0.00  0.00    +0.005 A 
ATOM     22  C   UNL     1      -4.113   9.816  -1.872  0.00  0.00    +0.052 A 
ATOM     23  C   UNL     1      -2.346  10.837  -3.166  0.00  0.00    +0.002 A 
ATOM     25  C   UNL     1      -3.683  10.463  -3.031  0.00  0.00    +0.019 A 
BRANCH  22  27
ATOM      5  N   UNL     1      -6.597   9.122  -1.624  0.00  0.00    -0.191 NA
ATOM     27  C   UNL     1      -5.484   9.433  -1.735  0.00  0.00    +0.099 C 
ENDBRANCH  22  27
ENDBRANCH  13  18
ENDBRANCH   3  13
TORSDOF 5
ENDMDL
MODEL 6
REMARK VINA RESULT:      -7.2     23.732     25.981
REMARK  Name = 7144073
REMARK  5 active torsions:
REMARK  status: ('A' for Active; 'I' for Inactive)
REMARK    1  A    between atoms: N_3  and  C_13
REMARK    2  A    between atoms: C_13  and  C_18
REMARK    3  A    between atoms: C_16  and  C_19
REMARK    4  A    between atoms: C_22  and  C_27
REMARK    5  A    between atoms: C_24  and  C_26
REMARK                            x       y       z     vdW  Elec       q    Type
REMARK                         _______ _______ _______ _____ _____    ______ ____
ROOT
ATOM      2  O   UNL     1       9.446   7.505   2.052  0.00  0.00    -0.267 OA
ATOM      3  N   UNL     1      11.740   7.929   6.481  0.00  0.00    -0.297 NA
ATOM      4  N   UNL     1       9.737   6.817   4.260  0.00  0.00    -0.311 N 
ATOM      6  C   UNL     1       9.281   8.355   6.258  0.00  0.00    +0.024 C 
ATOM      7  C   UNL     1      10.076   6.072   6.640  0.00  0.00    +0.050 C 
ATOM      8  C   UNL     1       8.969   7.059   6.994  0.00  0.00    +0.017 C 
ATOM      9  C   UNL     1      10.658   8.895   6.699  0.00  0.00    +0.090 C 
ATOM     10  C   UNL     1      11.439   6.633   7.108  0.00  0.00    +0.094 C 
ATOM     11  C   UNL     1       9.205   8.097   4.747  0.00  0.00    +0.130 C 
ATOM     12  C   UNL     1      10.098   5.800   5.147  0.00  0.00    +0.026 A 
ATOM     14  C   UNL     1      10.478   4.601   4.679  0.00  0.00    +0.022 A 
ATOM     15  C   UNL     1       9.774   6.636   2.862  0.00  0.00    +0.259 A 
ATOM     16  C   UNL     1      10.229   5.290   2.366  0.00  0.00    +0.040 A 
ATOM     17  C   UNL     1      10.545   4.350   3.268  0.00  0.00    +0.015 A 
ENDROOT
BRANCH  16  19
ATOM     19  C   UNL     1      10.308   5.034   0.950  0.00  0.00    +0.014 C 
ATOM     24  C   UNL     1      11.222   4.218   0.408  0.00  0.00    +0.008 C 
BRANCH  24  26
ATOM      1 CL   UNL     1      11.731   3.062  -5.422  0.00  0.00    -0.084 Cl
ATOM     26  C   UNL     1      11.347   3.932  -1.032  0.00  0.00    -0.025 A 
ATOM     28  C   UNL     1      12.277   2.998  -1.459  0.00  0.00    +0.009 A 
ATOM     29  C   UNL     1      10.533   4.603  -1.931  0.00  0.00    +0.009 A 
ATOM     30  C   UNL     1      12.396   2.728  -2.823  0.00  0.00    +0.020 A 
ATOM     31  C   UNL     1      10.653   4.333  -3.293  0.00  0.00    +0.020 A 
ATOM     32  C   UNL     1      11.584   3.395  -3.740  0.00  0.00    +0.041 A 
ENDBRANCH  24  26
ENDBRANCH  16  19
BRANCH   3  13
ATOM     13  C   UNL     1      13.017   8.455   6.957  0.00  0.00    +0.119 C 
BRANCH  13  18
ATOM     18  C   UNL     1      14.115   8.196   5.962  0.00  0.00    -0.032 A 
ATOM     20  C   UNL     1      13.828   7.516   4.787  0.00  0.00    +0.023 A 
ATOM     21  C   UNL     1      15.402   8.641   6.232  0.00  0.00    +0.005 A 
ATOM     22  C   UNL     1      14.846   7.275   3.864  0.00  0.00    +0.052 A 
ATOM     23  C   UNL     1      16.421   8.401   5.310  0.00  0.00    +0.002 A 
ATOM     25  C   UNL     1      16.143   7.718   4.126  0.00  0.00    +0.019 A 
BRANCH  22  27
ATOM      5  N   UNL     1      14.332   6.007   1.664  0.00  0.00    -0.191 NA
ATOM     27  C   UNL     1      14.562   6.576   2.651  0.00  0.00    +0.099 C 
ENDBRANCH  22  27
ENDBRANCH  13  18
ENDBRANCH   3  13
TORSDOF 5
ENDMDL
MODEL 7
REMARK VINA RESULT:      -7.1     24.216     27.037
REMARK  Name = 7144073
REMARK  5 active torsions:
REMARK  status: ('A' for Active; 'I' for Inactive)
REMARK    1  A    between atoms: N_3  and  C_13
REMARK    2  A    between atoms: C_13  and  C_18
REMARK    3  A    between atoms: C_16  and  C_19
REMARK    4  A    between atoms: C_22  and  C_27
REMARK    5  A    between atoms: C_24  and  C_26
REMARK                            x       y       z     vdW  Elec       q    Type
REMARK                         _______ _______ _______ _____ _____    ______ ____
ROOT
ATOM      2  O   UNL     1      12.211   2.949   2.260  0.00  0.00    -0.267 OA
ATOM      3  N   UNL     1      14.353   5.885  -1.183  0.00  0.00    -0.297 NA
ATOM      4  N   UNL     1      12.066   4.264   0.340  0.00  0.00    -0.311 N 
ATOM      6  C   UNL     1      13.317   3.695  -1.823  0.00  0.00    +0.024 C 
ATOM      7  C   UNL     1      11.920   5.702  -1.721  0.00  0.00    +0.050 C 
ATOM      8  C   UNL     1      12.163   4.416  -2.505  0.00  0.00    +0.017 C 
ATOM      9  C   UNL     1      14.577   4.587  -1.830  0.00  0.00    +0.090 C 
ATOM     10  C   UNL     1      13.192   6.580  -1.760  0.00  0.00    +0.094 C 
ATOM     11  C   UNL     1      12.884   3.297  -0.405  0.00  0.00    +0.130 C 
ATOM     12  C   UNL     1      11.532   5.393  -0.286  0.00  0.00    +0.026 A 
ATOM     14  C   UNL     1      10.699   6.204   0.383  0.00  0.00    +0.022 A 
ATOM     15  C   UNL     1      11.772   3.946   1.682  0.00  0.00    +0.259 A 
ATOM     16  C   UNL     1      10.856   4.888   2.415  0.00  0.00    +0.040 A 
ATOM     17  C   UNL     1      10.362   5.944   1.754  0.00  0.00    +0.015 A 
ENDROOT
BRANCH  16  19
ATOM     19  C   UNL     1      10.521   4.638   3.795  0.00  0.00    +0.014 C 
ATOM     24  C   UNL     1      10.315   5.619   4.682  0.00  0.00    +0.008 C 
BRANCH  24  26
ATOM      1 CL   UNL     1       8.959   4.790  10.432  0.00  0.00    -0.084 Cl
ATOM     26  C   UNL     1       9.980   5.414   6.102  0.00  0.00    -0.025 A 
ATOM     28  C   UNL     1       9.974   4.129   6.619  0.00  0.00    +0.009 A 
ATOM     29  C   UNL     1       9.678   6.511   6.894  0.00  0.00    +0.009 A 
ATOM     30  C   UNL     1       9.657   3.935   7.964  0.00  0.00    +0.020 A 
ATOM     31  C   UNL     1       9.361   6.317   8.238  0.00  0.00    +0.020 A 
ATOM     32  C   UNL     1       9.350   5.029   8.773  0.00  0.00    +0.041 A 
ENDBRANCH  24  26
ENDBRANCH  16  19
BRANCH   3  13
ATOM     13  C   UNL     1      15.550   6.719  -1.256  0.00  0.00    +0.119 C 
BRANCH  13  18
ATOM     18  C   UNL     1      15.966   7.190   0.111  0.00  0.00    -0.032 A 
ATOM     20  C   UNL     1      15.074   7.090   1.170  0.00  0.00    +0.023 A 
ATOM     21  C   UNL     1      17.237   7.718   0.296  0.00  0.00    +0.005 A 
ATOM     22  C   UNL     1      15.460   7.527   2.438  0.00  0.00    +0.052 A 
ATOM     23  C   UNL     1      17.623   8.154   1.563  0.00  0.00    +0.002 A 
ATOM     25  C   UNL     1      16.734   8.059   2.634  0.00  0.00    +0.019 A 
BRANCH  22  27
ATOM      5  N   UNL     1      13.811   7.350   4.429  0.00  0.00    -0.191 NA
ATOM     27  C   UNL     1      14.550   7.429   3.536  0.00  0.00    +0.099 C 
ENDBRANCH  22  27
ENDBRANCH  13  18
ENDBRANCH   3  13
TORSDOF 5
ENDMDL
MODEL 8
REMARK VINA RESULT:      -6.9     20.928     23.143
REMARK  Name = 7144073
REMARK  5 active torsions:
REMARK  status: ('A' for Active; 'I' for Inactive)
REMARK    1  A    between atoms: N_3  and  C_13
REMARK    2  A    between atoms: C_13  and  C_18
REMARK    3  A    between atoms: C_16  and  C_19
REMARK    4  A    between atoms: C_22  and  C_27
REMARK    5  A    between atoms: C_24  and  C_26
REMARK                            x       y       z     vdW  Elec       q    Type
REMARK                         _______ _______ _______ _____ _____    ______ ____
ROOT
ATOM      2  O   UNL     1      -9.678   9.318  18.051  0.00  0.00    -0.267 OA
ATOM      3  N   UNL     1     -14.424   8.806  19.560  0.00  0.00    -0.297 NA
ATOM      4  N   UNL     1     -11.427   9.898  19.480  0.00  0.00    -0.311 N 
ATOM      6  C   UNL     1     -12.520   8.218  21.078  0.00  0.00    +0.024 C 
ATOM      7  C   UNL     1     -13.329  10.527  21.004  0.00  0.00    +0.050 C 
ATOM      8  C   UNL     1     -12.799   9.444  21.938  0.00  0.00    +0.017 C 
ATOM      9  C   UNL     1     -13.816   7.754  20.381  0.00  0.00    +0.090 C 
ATOM     10  C   UNL     1     -14.634  10.039  20.334  0.00  0.00    +0.094 C 
ATOM     11  C   UNL     1     -11.403   8.556  20.081  0.00  0.00    +0.130 C 
ATOM     12  C   UNL     1     -12.295  10.885  19.952  0.00  0.00    +0.026 A 
ATOM     14  C   UNL     1     -12.225  12.133  19.463  0.00  0.00    +0.022 A 
ATOM     15  C   UNL     1     -10.471  10.160  18.477  0.00  0.00    +0.259 A 
ATOM     16  C   UNL     1     -10.433  11.562  17.930  0.00  0.00    +0.040 A 
ATOM     17  C   UNL     1     -11.280  12.469  18.437  0.00  0.00    +0.015 A 
ENDROOT
BRANCH  16  19
ATOM     19  C   UNL     1      -9.493  11.904  16.892  0.00  0.00    +0.014 C 
ATOM     24  C   UNL     1      -8.805  13.052  16.885  0.00  0.00    +0.008 C 
BRANCH  24  26
ATOM      1 CL   UNL     1      -4.905  14.663  12.668  0.00  0.00    -0.084 Cl
ATOM     26  C   UNL     1      -7.841  13.450  15.843  0.00  0.00    -0.025 A 
ATOM     28  C   UNL     1      -6.486  13.425  16.128  0.00  0.00    +0.009 A 
ATOM     29  C   UNL     1      -8.309  13.841  14.599  0.00  0.00    +0.009 A 
ATOM     30  C   UNL     1      -5.573  13.801  15.141  0.00  0.00    +0.020 A 
ATOM     31  C   UNL     1      -7.398  14.217  13.613  0.00  0.00    +0.020 A 
ATOM     32  C   UNL     1      -6.030  14.198  13.884  0.00  0.00    +0.041 A 
ENDBRANCH  24  26
ENDBRANCH  16  19
BRANCH   3  13
ATOM     13  C   UNL     1     -15.674   8.346  18.960  0.00  0.00    +0.119 C 
BRANCH  13  18
ATOM     18  C   UNL     1     -15.486   8.012  17.505  0.00  0.00    -0.032 A 
ATOM     20  C   UNL     1     -14.295   8.345  16.874  0.00  0.00    +0.023 A 
ATOM     21  C   UNL     1     -16.505   7.372  16.813  0.00  0.00    +0.005 A 
ATOM     22  C   UNL     1     -14.121   8.035  15.526  0.00  0.00    +0.052 A 
ATOM     23  C   UNL     1     -16.332   7.062  15.464  0.00  0.00    +0.002 A 
ATOM     25  C   UNL     1     -15.139   7.393  14.821  0.00  0.00    +0.019 A 
BRANCH  22  27
ATOM      5  N   UNL     1     -11.906   8.649  14.329  0.00  0.00    -0.191 NA
ATOM     27  C   UNL     1     -12.899   8.373  14.865  0.00  0.00    +0.099 C 
ENDBRANCH  22  27
ENDBRANCH  13  18
ENDBRANCH   3  13
TORSDOF 5
ENDMDL
MODEL 9
REMARK VINA RESULT:      -6.8     21.136     25.404
REMARK  Name = 7144073
REMARK  5 active torsions:
REMARK  status: ('A' for Active; 'I' for Inactive)
REMARK    1  A    between atoms: N_3  and  C_13
REMARK    2  A    between atoms: C_13  and  C_18
REMARK    3  A    between atoms: C_16  and  C_19
REMARK    4  A    between atoms: C_22  and  C_27
REMARK    5  A    between atoms: C_24  and  C_26
REMARK                            x       y       z     vdW  Elec       q    Type
REMARK                         _______ _______ _______ _____ _____    ______ ____
ROOT
ATOM      2  O   UNL     1       6.573  -7.920  31.133  0.00  0.00    -0.267 OA
ATOM      3  N   UNL     1       9.986  -5.670  34.023  0.00  0.00    -0.297 NA
ATOM      4  N   UNL     1       7.533  -7.548  33.225  0.00  0.00    -0.311 N 
ATOM      6  C   UNL     1       7.538  -5.246  34.353  0.00  0.00    +0.024 C 
ATOM      7  C   UNL     1       8.590  -7.150  35.474  0.00  0.00    +0.050 C 
ATOM      8  C   UNL     1       7.552  -6.046  35.648  0.00  0.00    +0.017 C 
ATOM      9  C   UNL     1       8.935  -4.648  34.084  0.00  0.00    +0.090 C 
ATOM     10  C   UNL     1       9.979  -6.520  35.224  0.00  0.00    +0.094 C 
ATOM     11  C   UNL     1       7.058  -6.157  33.214  0.00  0.00    +0.130 C 
ATOM     12  C   UNL     1       8.210  -8.071  34.328  0.00  0.00    +0.026 A 
ATOM     14  C   UNL     1       8.538  -9.372  34.363  0.00  0.00    +0.022 A 
ATOM     15  C   UNL     1       7.186  -8.345  32.114  0.00  0.00    +0.259 A 
ATOM     16  C   UNL     1       7.590  -9.794  32.171  0.00  0.00    +0.040 A 
ATOM     17  C   UNL     1       8.223 -10.239  33.264  0.00  0.00    +0.015 A 
ENDROOT
BRANCH  16  19
ATOM     19  C   UNL     1       7.285 -10.669  31.066  0.00  0.00    +0.014 C 
ATOM     24  C   UNL     1       6.931 -11.950  31.230  0.00  0.00    +0.008 C 
BRANCH  24  26
ATOM      1 CL   UNL     1       5.668 -15.734  26.795  0.00  0.00    -0.084 Cl
ATOM     26  C   UNL     1       6.619 -12.884  30.135  0.00  0.00    -0.025 A 
ATOM     28  C   UNL     1       5.396 -13.536  30.127  0.00  0.00    +0.009 A 
ATOM     29  C   UNL     1       7.554 -13.093  29.133  0.00  0.00    +0.009 A 
ATOM     30  C   UNL     1       5.101 -14.420  29.089  0.00  0.00    +0.020 A 
ATOM     31  C   UNL     1       7.259 -13.978  28.097  0.00  0.00    +0.020 A 
ATOM     32  C   UNL     1       6.032 -14.642  28.074  0.00  0.00    +0.041 A 
ENDBRANCH  24  26
ENDBRANCH  16  19
BRANCH   3  13
ATOM     13  C   UNL     1      11.298  -5.061  33.820  0.00  0.00    +0.119 C 
BRANCH  13  18
ATOM     18  C   UNL     1      11.982  -5.638  32.611  0.00  0.00    -0.032 A 
ATOM     20  C   UNL     1      13.177  -5.086  32.172  0.00  0.00    +0.023 A 
ATOM     21  C   UNL     1      11.408  -6.715  31.949  0.00  0.00    +0.005 A 
ATOM     22  C   UNL     1      13.811  -5.621  31.050  0.00  0.00    +0.052 A 
ATOM     23  C   UNL     1      12.041  -7.251  30.828  0.00  0.00    +0.002 A 
ATOM     25  C   UNL     1      13.243  -6.703  30.378  0.00  0.00    +0.019 A 
BRANCH  22  27
ATOM      5  N   UNL     1      16.044  -4.605  30.213  0.00  0.00    -0.191 NA
ATOM     27  C   UNL     1      15.043  -5.061  30.589  0.00  0.00    +0.099 C 
ENDBRANCH  22  27
ENDBRANCH  13  18
ENDBRANCH   3  13
TORSDOF 5
ENDMDL
MODEL 10
REMARK VINA RESULT:      -6.8     25.497     27.880
REMARK  Name = 7144073
REMARK  5 active torsions:
REMARK  status: ('A' for Active; 'I' for Inactive)
REMARK    1  A    between atoms: N_3  and  C_13
REMARK    2  A    between atoms: C_13  and  C_18
REMARK    3  A    between atoms: C_16  and  C_19
REMARK    4  A    between atoms: C_22  and  C_27
REMARK    5  A    between atoms: C_24  and  C_26
REMARK                            x       y       z     vdW  Elec       q    Type
REMARK                         _______ _______ _______ _____ _____    ______ ____
ROOT
ATOM      2  O   UNL     1      14.068   9.796   6.949  0.00  0.00    -0.267 OA
ATOM      3  N   UNL     1       9.178   9.316   5.989  0.00  0.00    -0.297 NA
ATOM      4  N   UNL     1      12.180  10.361   5.703  0.00  0.00    -0.311 N 
ATOM      6  C   UNL     1      10.134  11.509   6.737  0.00  0.00    +0.024 C 
ATOM      7  C   UNL     1      10.136  10.946   4.355  0.00  0.00    +0.050 C 
ATOM      8  C   UNL     1       9.943  12.091   5.344  0.00  0.00    +0.017 C 
ATOM      9  C   UNL     1       9.103  10.388   6.989  0.00  0.00    +0.090 C 
ATOM     10  C   UNL     1       9.080   9.849   4.622  0.00  0.00    +0.094 C 
ATOM     11  C   UNL     1      11.583  11.019   6.875  0.00  0.00    +0.130 C 
ATOM     12  C   UNL     1      11.537  10.372   4.463  0.00  0.00    +0.026 A 
ATOM     14  C   UNL     1      12.149   9.861   3.383  0.00  0.00    +0.022 A 
ATOM     15  C   UNL     1      13.465   9.807   5.874  0.00  0.00    +0.259 A 
ATOM     16  C   UNL     1      14.115   9.219   4.650  0.00  0.00    +0.040 A 
ATOM     17  C   UNL     1      13.455   9.276   3.486  0.00  0.00    +0.015 A 
ENDROOT
BRANCH  16  19
ATOM     19  C   UNL     1      15.423   8.620   4.748  0.00  0.00    +0.014 C 
ATOM     24  C   UNL     1      16.552   9.340   4.761  0.00  0.00    +0.008 C 
BRANCH  24  26
ATOM      1 CL   UNL     1      22.049   7.052   5.123  0.00  0.00    -0.084 Cl
ATOM     26  C   UNL     1      17.910   8.775   4.850  0.00  0.00    -0.025 A 
ATOM     28  C   UNL     1      18.504   8.255   3.712  0.00  0.00    +0.009 A 
ATOM     29  C   UNL     1      18.566   8.775   6.070  0.00  0.00    +0.009 A 
ATOM     30  C   UNL     1      19.791   7.720   3.797  0.00  0.00    +0.020 A 
ATOM     31  C   UNL     1      19.851   8.240   6.155  0.00  0.00    +0.020 A 
ATOM     32  C   UNL     1      20.464   7.712   5.019  0.00  0.00    +0.041 A 
ENDBRANCH  24  26
ENDBRANCH  16  19
BRANCH   3  13
ATOM     13  C   UNL     1       8.154   8.303   6.230  0.00  0.00    +0.119 C 
BRANCH  13  18
ATOM     18  C   UNL     1       8.775   6.964   6.523  0.00  0.00    -0.032 A 
ATOM     20  C   UNL     1       9.000   6.587   7.840  0.00  0.00    +0.023 A 
ATOM     21  C   UNL     1       9.114   6.123   5.472  0.00  0.00    +0.005 A 
ATOM     22  C   UNL     1       9.576   5.346   8.111  0.00  0.00    +0.052 A 
ATOM     23  C   UNL     1       9.690   4.882   5.742  0.00  0.00    +0.002 A 
ATOM     25  C   UNL     1       9.921   4.493   7.062  0.00  0.00    +0.019 A 
BRANCH  22  27
ATOM      5  N   UNL     1      10.005   4.622  10.562  0.00  0.00    -0.191 NA
ATOM     27  C   UNL     1       9.813   4.946   9.463  0.00  0.00    +0.099 C 
ENDBRANCH  22  27
ENDBRANCH  13  18
ENDBRANCH   3  13
TORSDOF 5
ENDMDL
