REMARK  Name = 7134574
REMARK  8 active torsions:
REMARK  status: ('A' for Active; 'I' for Inactive)
REMARK    1  A    between atoms: N_7  and  C_24
REMARK    2  A    between atoms: N_9  and  C_15
REMARK    3  A    between atoms: N_11  and  C_33
REMARK    4  A    between atoms: C_12  and  C_18
REMARK    5  A    between atoms: C_13  and  C_27
REMARK    6  A    between atoms: C_18  and  C_24
REMARK    7  A    between atoms: C_24  and  C_31
REMARK    8  A    between atoms: C_25  and  C_26
REMARK                            x       y       z     vdW  Elec       q    Type
REMARK                         _______ _______ _______ _____ _____    ______ ____
ROOT
ATOM      2  O   UNL     1      -3.127   4.283   0.762  0.00  0.00    -0.274 OA
ATOM      6  N   UNL     1      -1.538   2.618   0.408  0.00  0.00    -0.289 N 
ATOM     13  C   UNL     1      -1.163   1.314  -0.162  0.00  0.00    +0.164 C 
ATOM     14  C   UNL     1       0.310   1.235  -0.567  0.00  0.00    +0.054 C 
ATOM     15  C   UNL     1       1.262   1.797   0.493  0.00  0.00    +0.078 C 
ATOM     19  C   UNL     1       0.821   3.198   0.911  0.00  0.00    +0.041 C 
ATOM     20  C   UNL     1      -0.621   3.189   1.402  0.00  0.00    +0.110 C 
ATOM     26  C   UNL     1      -2.762   3.259   0.179  0.00  0.00    +0.233 C 
ENDROOT
BRANCH  15   9
ATOM      5  O   UNL     1       3.190  -0.310   0.710  0.00  0.00    -0.253 OA
ATOM      9  N   UNL     1       2.620   1.816   0.004  0.00  0.00    -0.296 N 
ATOM     11  N   UNL     1       4.741   1.044  -0.417  0.00  0.00    -0.269 N 
ATOM     32  C   UNL     1       3.501   0.739   0.152  0.00  0.00    +0.304 C 
ATOM     41  H   UNL     1       2.928   2.620  -0.535  0.00  0.00    +0.151 HD
ATOM     44  H   UNL     1       4.835   1.964  -0.840  0.00  0.00    +0.156 HD
BRANCH  11  33
ATOM      1  F   UNL     1       9.306   0.352  -1.730  0.00  0.00    -0.205 F 
ATOM     33  C   UNL     1       5.894   0.227  -0.476  0.00  0.00    +0.037 A 
ATOM     34  C   UNL     1       7.054   0.701  -1.087  0.00  0.00    +0.061 A 
ATOM     35  C   UNL     1       5.870  -1.054   0.077  0.00  0.00    +0.023 A 
ATOM     36  C   UNL     1       8.192  -0.104  -1.144  0.00  0.00    +0.125 A 
ATOM     37  C   UNL     1       7.008  -1.859   0.020  0.00  0.00    +0.005 A 
ATOM     38  C   UNL     1       8.168  -1.385  -0.591  0.00  0.00    +0.038 A 
ENDBRANCH  11  33
ENDBRANCH  15   9
BRANCH  26  25
ATOM      8  N   UNL     1      -4.429   3.746  -1.433  0.00  0.00    -0.306 NA
ATOM     25  C   UNL     1      -3.658   2.650  -0.847  0.00  0.00    +0.141 C 
ATOM     28  C   UNL     1      -4.673   1.691  -0.234  0.00  0.00    +0.029 C 
ATOM     29  C   UNL     1      -6.022   2.347  -0.486  0.00  0.00    +0.017 C 
ATOM     30  C   UNL     1      -5.764   3.217  -1.698  0.00  0.00    +0.081 C 
ATOM     40  H   UNL     1      -3.993   4.092  -2.286  0.00  0.00    +0.123 HD
ENDBRANCH  26  25
BRANCH  13  27
ATOM      3  O   UNL     1      -2.001   0.573   1.949  0.00  0.00    -0.274 OA
ATOM      7  N   UNL     1      -1.239  -1.009   0.420  0.00  0.00    -0.302 N 
ATOM     27  C   UNL     1      -1.526   0.273   0.857  0.00  0.00    +0.234 C 
ATOM     39  H   UNL     1      -0.848  -1.150  -0.505  0.00  0.00    +0.150 HD
BRANCH   7  24
ATOM     24  C   UNL     1      -1.472  -2.188   1.223  0.00  0.00    +0.159 C 
BRANCH  24  31
ATOM      4  O   UNL     1       0.893  -2.179   1.779  0.00  0.00    -0.274 OA
ATOM     10  N   UNL     1      -0.598  -2.946   3.348  0.00  0.00    -0.328 N 
ATOM     31  C   UNL     1      -0.263  -2.415   2.120  0.00  0.00    +0.231 C 
ATOM     42  H   UNL     1       0.118  -3.153   4.038  0.00  0.00    +0.145 HD
ATOM     43  H   UNL     1      -1.555  -3.155   3.611  0.00  0.00    +0.145 HD
ENDBRANCH  24  31
BRANCH  24  18
ATOM     18  C   UNL     1      -1.815  -3.412   0.368  0.00  0.00    +0.035 C 
BRANCH  18  12
ATOM     12  C   UNL     1      -3.003  -3.208  -0.570  0.00  0.00    -0.009 C 
ATOM     16  C   UNL     1      -4.262  -2.833   0.224  0.00  0.00    +0.003 C 
ATOM     17  C   UNL     1      -3.247  -4.464  -1.418  0.00  0.00    +0.003 C 
ATOM     21  C   UNL     1      -5.477  -2.675  -0.687  0.00  0.00    +0.000 C 
ATOM     22  C   UNL     1      -4.463  -4.304  -2.326  0.00  0.00    +0.000 C 
ATOM     23  C   UNL     1      -5.710  -3.922  -1.534  0.00  0.00    +0.000 C 
ENDBRANCH  18  12
ENDBRANCH  24  18
ENDBRANCH   7  24
ENDBRANCH  13  27
TORSDOF 8
