REMARK  Name = 71694125
REMARK  3 active torsions:
REMARK  status: ('A' for Active; 'I' for Inactive)
REMARK    1  A    between atoms: N_4  and  C_7
REMARK    2  A    between atoms: C_11  and  C_15
REMARK    3  A    between atoms: C_16  and  C_18
REMARK                            x       y       z     vdW  Elec       q    Type
REMARK                         _______ _______ _______ _____ _____    ______ ____
ROOT
ATOM      5  N   UNL     1      -0.622   0.536   0.261  0.00  0.00    -0.340 N 
ATOM      6  N   UNL     1       0.413   0.557  -1.703  0.00  0.00    -0.238 NA
ATOM     15  C   UNL     1       0.567   0.657  -0.402  0.00  0.00    +0.127 A 
ATOM     16  C   UNL     1      -1.597   0.347  -0.678  0.00  0.00    +0.073 A 
ATOM     17  C   UNL     1      -0.934   0.364  -1.882  0.00  0.00    +0.139 A 
ATOM     22  H   UNL     1      -0.755   0.578   1.263  0.00  0.00    +0.167 HD
ENDROOT
BRANCH  16  18
ATOM      1 CL   UNL     1      -6.367  -0.144   1.958  0.00  0.00    -0.076 Cl
ATOM      2  S   UNL     1      -3.503   0.205   1.256  0.00  0.00    -0.075 S 
ATOM     18  C   UNL     1      -2.965   0.179  -0.369  0.00  0.00    +0.038 A 
ATOM     19  C   UNL     1      -4.002  -0.017  -1.254  0.00  0.00    +0.019 A 
ATOM     20  C   UNL     1      -5.255  -0.148  -0.590  0.00  0.00    +0.028 A 
ATOM     21  C   UNL     1      -5.128  -0.047   0.778  0.00  0.00    +0.079 A 
ENDBRANCH  16  18
BRANCH  15  11
ATOM      3  O   UNL     1       3.668   2.510   0.656  0.00  0.00    -0.377 OA
ATOM      4  N   UNL     1       2.881  -0.184   0.109  0.00  0.00    -0.286 NA
ATOM     11  C   UNL     1       1.872   0.878   0.349  0.00  0.00    +0.149 C 
ATOM     12  C   UNL     1       4.146   0.148   0.786  0.00  0.00    +0.113 C 
ATOM     13  C   UNL     1       2.453   2.251  -0.046  0.00  0.00    +0.186 C 
ATOM     14  C   UNL     1       4.645   1.518   0.347  0.00  0.00    +0.175 C 
BRANCH   4   7
ATOM      7  C   UNL     1       2.415  -1.462   0.627  0.00  0.00    +0.058 C 
ATOM      8  C   UNL     1       3.477  -2.546   0.341  0.00  0.00    +0.019 C 
ATOM      9  C   UNL     1       1.531  -2.151  -0.435  0.00  0.00    +0.019 C 
ATOM     10  C   UNL     1       2.307  -3.449  -0.112  0.00  0.00    +0.003 C 
ENDBRANCH   4   7
ENDBRANCH  15  11
TORSDOF 3
