REMARK  Name = 45360605
REMARK  20 active torsions:
REMARK  status: ('A' for Active; 'I' for Inactive)
REMARK    1  A    between atoms: S_1  and  N_12
REMARK    2  A    between atoms: S_1  and  C_27
REMARK    3  A    between atoms: O_4  and  C_17
REMARK    4  A    between atoms: O_5  and  C_18
REMARK    5  A    between atoms: O_6  and  C_19
REMARK    6  A    between atoms: O_7  and  C_20
REMARK    7  A    between atoms: N_12  and  C_21
REMARK    8  A    between atoms: N_12  and  C_22
REMARK    9  A    between atoms: N_13  and  C_30
REMARK   10  A    between atoms: N_14  and  C_31
REMARK   11  A    between atoms: C_15  and  C_21
REMARK   12  A    between atoms: C_16  and  C_22
REMARK   13  A    between atoms: C_23  and  C_25
REMARK   14  A    between atoms: C_24  and  C_26
REMARK   15  A    between atoms: C_25  and  C_28
REMARK   16  A    between atoms: C_26  and  C_29
REMARK   17  A    between atoms: C_30  and  C_32
REMARK   18  A    between atoms: C_30  and  C_33
REMARK   19  A    between atoms: C_31  and  C_34
REMARK   20  A    between atoms: C_31  and  C_35
REMARK                            x       y       z     vdW  Elec       q    Type
REMARK                         _______ _______ _______ _____ _____    ______ ____
ROOT
ATOM     12  N   UNL     1      -2.272   0.253  -1.254  0.00  0.00    -0.176 NA
ENDROOT
BRANCH  12   1
ATOM      1  S   UNL     1      -3.952  -0.014  -0.984  0.00  0.00    +0.029 S 
ATOM      8  O   UNL     1      -4.159  -1.396  -0.595  0.00  0.00    -0.158 OA
ATOM      9  O   UNL     1      -4.494   1.061  -0.173  0.00  0.00    -0.158 OA
ATOM     27  C   UNL     1      -4.601   0.180  -2.630  0.00  0.00    +0.215 C 
ENDBRANCH  12   1
BRANCH  12  21
ATOM     21  C   UNL     1      -1.564  -0.647  -2.183  0.00  0.00    +0.143 C 
BRANCH  21  15
ATOM      2  O   UNL     1      -0.061  -1.351  -0.451  0.00  0.00    -0.366 OA
ATOM     15  C   UNL     1      -0.103  -0.758  -1.769  0.00  0.00    +0.165 C 
ATOM     17  C   UNL     1       0.708  -1.674  -2.679  0.00  0.00    +0.175 C 
ATOM     19  C   UNL     1       0.534  -3.020  -2.006  0.00  0.00    +0.175 C 
ATOM     23  C   UNL     1       0.582  -2.635  -0.537  0.00  0.00    +0.158 C 
BRANCH  17   4
ATOM      4  O   UNL     1       2.073  -1.262  -2.618  0.00  0.00    -0.387 OA
ATOM     36  H   UNL     1       2.131  -0.382  -3.027  0.00  0.00    +0.210 HD
ENDBRANCH  17   4
BRANCH  19   6
ATOM      6  O   UNL     1       1.543  -3.948  -2.344  0.00  0.00    -0.387 OA
ATOM     38  H   UNL     1       1.528  -4.056  -3.310  0.00  0.00    +0.210 HD
ENDBRANCH  19   6
BRANCH  23  25
ATOM     25  C   UNL     1      -0.129  -3.625   0.368  0.00  0.00    +0.130 C 
BRANCH  25  28
ATOM     10  O   UNL     1       0.707  -3.481   2.633  0.00  0.00    -0.276 OA
ATOM     13  N   UNL     1      -1.268  -2.386   2.083  0.00  0.00    -0.313 N 
ATOM     28  C   UNL     1      -0.157  -3.173   1.817  0.00  0.00    +0.216 C 
ATOM     40  H   UNL     1      -1.884  -2.128   1.318  0.00  0.00    +0.149 HD
BRANCH  13  30
ATOM     30  C   UNL     1      -1.542  -1.824   3.386  0.00  0.00    +0.067 C 
ATOM     32  C   UNL     1      -0.864  -0.468   3.537  0.00  0.00    +0.027 C 
ATOM     33  C   UNL     1      -3.045  -1.717   3.610  0.00  0.00    +0.027 C 
ENDBRANCH  13  30
ENDBRANCH  25  28
ENDBRANCH  23  25
ENDBRANCH  21  15
ENDBRANCH  12  21
BRANCH  12  22
ATOM     22  C   UNL     1      -1.812   1.663  -1.366  0.00  0.00    +0.143 C 
BRANCH  22  16
ATOM      3  O   UNL     1      -0.110   1.767   0.323  0.00  0.00    -0.366 OA
ATOM     16  C   UNL     1      -1.455   2.198   0.015  0.00  0.00    +0.165 C 
ATOM     18  C   UNL     1      -1.444   3.721   0.080  0.00  0.00    +0.175 C 
ATOM     20  C   UNL     1      -0.010   4.042  -0.288  0.00  0.00    +0.175 C 
ATOM     24  C   UNL     1       0.742   2.923   0.412  0.00  0.00    +0.158 C 
BRANCH  18   5
ATOM      5  O   UNL     1      -1.707   4.109   1.428  0.00  0.00    -0.387 OA
ATOM     37  H   UNL     1      -2.624   3.854   1.630  0.00  0.00    +0.210 HD
ENDBRANCH  18   5
BRANCH  20   7
ATOM      7  O   UNL     1       0.408   5.317   0.150  0.00  0.00    -0.387 OA
ATOM     39  H   UNL     1      -0.190   5.972  -0.247  0.00  0.00    +0.210 HD
ENDBRANCH  20   7
BRANCH  24  26
ATOM     26  C   UNL     1       2.088   2.616  -0.218  0.00  0.00    +0.130 C 
BRANCH  26  29
ATOM     11  O   UNL     1       2.305   0.815   1.382  0.00  0.00    -0.276 OA
ATOM     14  N   UNL     1       3.992   1.151  -0.181  0.00  0.00    -0.313 N 
ATOM     29  C   UNL     1       2.779   1.431   0.432  0.00  0.00    +0.216 C 
ATOM     41  H   UNL     1       4.319   1.762  -0.923  0.00  0.00    +0.149 HD
BRANCH  14  31
ATOM     31  C   UNL     1       4.858   0.073   0.240  0.00  0.00    +0.067 C 
ATOM     34  C   UNL     1       5.622  -0.494  -0.950  0.00  0.00    +0.027 C 
ATOM     35  C   UNL     1       5.809   0.553   1.329  0.00  0.00    +0.027 C 
ENDBRANCH  14  31
ENDBRANCH  26  29
ENDBRANCH  24  26
ENDBRANCH  22  16
ENDBRANCH  12  22
TORSDOF 15
