REMARK  Name = 9420609
REMARK  5 active torsions:
REMARK  status: ('A' for Active; 'I' for Inactive)
REMARK    1  A    between atoms: N_4  and  C_13
REMARK    2  A    between atoms: N_7  and  C_29
REMARK    3  A    between atoms: C_22  and  C_25
REMARK    4  A    between atoms: C_24  and  C_27
REMARK    5  A    between atoms: C_26  and  C_29
REMARK                            x       y       z     vdW  Elec       q    Type
REMARK                         _______ _______ _______ _____ _____    ______ ____
ROOT
ATOM      1  O   UNL     1      -2.327  -0.868   1.770  0.00  0.00    -0.267 OA
ATOM      4  N   UNL     1       2.303  -1.959   0.180  0.00  0.00    -0.298 NA
ATOM      5  N   UNL     1      -0.839  -2.264   0.641  0.00  0.00    -0.311 N 
ATOM      8  C   UNL     1       1.112  -3.444   1.812  0.00  0.00    +0.024 C 
ATOM      9  C   UNL     1       0.761  -3.768  -0.590  0.00  0.00    +0.050 C 
ATOM     10  C   UNL     1       0.921  -4.506   0.737  0.00  0.00    +0.017 C 
ATOM     11  C   UNL     1       2.363  -2.596   1.502  0.00  0.00    +0.090 C 
ATOM     12  C   UNL     1       2.036  -2.943  -0.879  0.00  0.00    +0.094 C 
ATOM     14  C   UNL     1      -0.166  -2.599   1.904  0.00  0.00    +0.130 C 
ATOM     15  C   UNL     1      -0.459  -2.866  -0.561  0.00  0.00    +0.026 A 
ATOM     20  C   UNL     1      -1.158  -2.632  -1.683  0.00  0.00    +0.022 A 
ATOM     21  C   UNL     1      -1.942  -1.391   0.723  0.00  0.00    +0.259 A 
ATOM     22  C   UNL     1      -2.685  -1.121  -0.558  0.00  0.00    +0.047 A 
ATOM     23  C   UNL     1      -2.284  -1.741  -1.677  0.00  0.00    +0.015 A 
ENDROOT
BRANCH   4  13
ATOM      2  O   UNL     1       5.243   3.425   0.312  0.00  0.00    -0.276 OA
ATOM      6  N   UNL     1       4.883   1.304  -0.566  0.00  0.00    -0.302 N 
ATOM     13  C   UNL     1       3.526  -1.210  -0.097  0.00  0.00    +0.060 C 
ATOM     16  C   UNL     1       3.395  -0.463  -1.431  0.00  0.00    +0.038 C 
ATOM     17  C   UNL     1       3.810  -0.224   1.044  0.00  0.00    +0.038 C 
ATOM     18  C   UNL     1       4.626   0.403  -1.697  0.00  0.00    +0.109 C 
ATOM     19  C   UNL     1       5.032   0.636   0.729  0.00  0.00    +0.109 C 
ATOM     24  C   UNL     1       5.027   2.688  -0.654  0.00  0.00    +0.212 C 
ATOM     27  C   UNL     1       4.904   3.295  -2.029  0.00  0.00    +0.109 C 
ENDBRANCH   4  13
BRANCH  22  25
ATOM     25  C   UNL     1      -3.827  -0.190  -0.596  0.00  0.00    -0.008 A 
ATOM     26  C   UNL     1      -3.648   1.172  -0.848  0.00  0.00    -0.025 A 
ATOM     28  C   UNL     1      -5.112  -0.691  -0.374  0.00  0.00    +0.009 A 
ATOM     30  C   UNL     1      -4.748   2.029  -0.878  0.00  0.00    +0.005 A 
ATOM     31  C   UNL     1      -6.212   0.166  -0.404  0.00  0.00    +0.001 A 
ATOM     34  C   UNL     1      -6.030   1.526  -0.656  0.00  0.00    +0.000 A 
BRANCH  26  29
ATOM     29  C   UNL     1      -2.289   1.746  -1.090  0.00  0.00    +0.120 C 
BRANCH  29   7
ATOM      3  O   UNL     1      -0.441   4.165   1.799  0.00  0.00    -0.377 OA
ATOM      7  N   UNL     1      -1.645   2.186   0.147  0.00  0.00    -0.294 NA
ATOM     32  C   UNL     1      -2.447   3.222   0.812  0.00  0.00    +0.113 C 
ATOM     33  C   UNL     1      -0.291   2.690  -0.121  0.00  0.00    +0.113 C 
ATOM     35  C   UNL     1      -1.749   3.674   2.092  0.00  0.00    +0.175 C 
ATOM     36  C   UNL     1       0.355   3.153   1.182  0.00  0.00    +0.175 C 
ENDBRANCH  29   7
ENDBRANCH  26  29
ENDBRANCH  22  25
TORSDOF 4
