MODEL 1
REMARK VINA RESULT:      -5.8      0.000      0.000
REMARK  Name = 75368475
REMARK  2 active torsions:
REMARK  status: ('A' for Active; 'I' for Inactive)
REMARK    1  A    between atoms: N_5  and  C_14
REMARK    2  A    between atoms: C_15  and  C_16
REMARK                            x       y       z     vdW  Elec       q    Type
REMARK                         _______ _______ _______ _____ _____    ______ ____
ROOT
ATOM      1  O   UNL     1      12.174  11.647  25.312  0.00  0.00    -0.252 OA
ATOM      2  O   UNL     1      10.276   8.417  19.415  0.00  0.00    -0.268 OA
ATOM      3  N   UNL     1      12.298  10.817  23.118  0.00  0.00    -0.278 N 
ATOM      4  N   UNL     1      11.859   9.062  21.008  0.00  0.00    -0.293 N 
ATOM      5  N   UNL     1      14.185  11.565  24.082  0.00  0.00    -0.287 N 
ATOM      8  C   UNL     1      13.302  10.738  22.070  0.00  0.00    +0.112 C 
ATOM      9  C   UNL     1      13.250   9.372  21.393  0.00  0.00    +0.132 C 
ATOM     10  C   UNL     1      14.609  11.042  22.796  0.00  0.00    +0.133 C 
ATOM     11  C   UNL     1      10.926  10.431  22.836  0.00  0.00    +0.128 C 
ATOM     12  C   UNL     1      10.898   9.082  22.119  0.00  0.00    +0.127 C 
ATOM     13  C   UNL     1      12.804  11.380  24.297  0.00  0.00    +0.305 C 
ATOM     14  C   UNL     1      15.128  12.082  25.049  0.00  0.00    +0.133 C 
ATOM     15  C   UNL     1      11.427   8.718  19.726  0.00  0.00    +0.267 C 
ENDROOT
BRANCH  15  16
ATOM      6  N   UNL     1      12.827   9.928  18.203  0.00  0.00    -0.247 NA
ATOM      7  N   UNL     1      13.792   7.538  17.096  0.00  0.00    -0.259 NA
ATOM     16  C   UNL     1      12.414   8.721  18.640  0.00  0.00    +0.144 A 
ATOM     17  C   UNL     1      12.888   7.548  18.096  0.00  0.00    +0.143 A 
ATOM     18  C   UNL     1      13.732   9.919  17.204  0.00  0.00    +0.131 A 
ATOM     19  C   UNL     1      14.206   8.744  16.660  0.00  0.00    +0.130 A 
ENDBRANCH  15  16
TORSDOF 1
ENDMDL
MODEL 2
REMARK VINA RESULT:      -5.4      2.011      5.929
REMARK  Name = 75368475
REMARK  2 active torsions:
REMARK  status: ('A' for Active; 'I' for Inactive)
REMARK    1  A    between atoms: N_5  and  C_14
REMARK    2  A    between atoms: C_15  and  C_16
REMARK                            x       y       z     vdW  Elec       q    Type
REMARK                         _______ _______ _______ _____ _____    ______ ____
ROOT
ATOM      1  O   UNL     1      12.038   6.333  19.599  0.00  0.00    -0.252 OA
ATOM      2  O   UNL     1      10.680  11.135  24.487  0.00  0.00    -0.268 OA
ATOM      3  N   UNL     1      12.161   8.347  20.801  0.00  0.00    -0.278 N 
ATOM      4  N   UNL     1      11.254  10.493  22.315  0.00  0.00    -0.293 N 
ATOM      5  N   UNL     1      13.162   8.242  18.792  0.00  0.00    -0.287 N 
ATOM      8  C   UNL     1      12.846   9.623  20.665  0.00  0.00    +0.112 C 
ATOM      9  C   UNL     1      11.901  10.767  21.017  0.00  0.00    +0.132 C 
ATOM     10  C   UNL     1      13.335   9.619  19.220  0.00  0.00    +0.133 C 
ATOM     11  C   UNL     1      11.419   8.050  22.014  0.00  0.00    +0.128 C 
ATOM     12  C   UNL     1      10.512   9.226  22.374  0.00  0.00    +0.127 C 
ATOM     13  C   UNL     1      12.410   7.493  19.718  0.00  0.00    +0.305 C 
ATOM     14  C   UNL     1      13.611   7.780  17.497  0.00  0.00    +0.133 C 
ATOM     15  C   UNL     1      11.257  11.344  23.422  0.00  0.00    +0.267 C 
ENDROOT
BRANCH  15  16
ATOM      6  N   UNL     1      11.340  13.687  22.921  0.00  0.00    -0.247 NA
ATOM      7  N   UNL     1      14.070  13.789  23.557  0.00  0.00    -0.259 NA
ATOM     16  C   UNL     1      12.019  12.596  23.329  0.00  0.00    +0.144 A 
ATOM     17  C   UNL     1      13.359  12.647  23.641  0.00  0.00    +0.143 A 
ATOM     18  C   UNL     1      12.049  14.830  22.837  0.00  0.00    +0.131 A 
ATOM     19  C   UNL     1      13.390  14.879  23.150  0.00  0.00    +0.130 A 
ENDBRANCH  15  16
TORSDOF 1
ENDMDL
MODEL 3
REMARK VINA RESULT:      -5.3     29.224     31.308
REMARK  Name = 75368475
REMARK  2 active torsions:
REMARK  status: ('A' for Active; 'I' for Inactive)
REMARK    1  A    between atoms: N_5  and  C_14
REMARK    2  A    between atoms: C_15  and  C_16
REMARK                            x       y       z     vdW  Elec       q    Type
REMARK                         _______ _______ _______ _____ _____    ______ ____
ROOT
ATOM      1  O   UNL     1     -17.548   2.986  21.979  0.00  0.00    -0.252 OA
ATOM      2  O   UNL     1     -18.285  -0.036  28.234  0.00  0.00    -0.268 OA
ATOM      3  N   UNL     1     -17.068   2.356  24.190  0.00  0.00    -0.278 N 
ATOM      4  N   UNL     1     -17.579   1.703  26.843  0.00  0.00    -0.293 N 
ATOM      5  N   UNL     1     -15.834   3.984  23.254  0.00  0.00    -0.287 N 
ATOM      8  C   UNL     1     -16.048   2.659  25.182  0.00  0.00    +0.112 C 
ATOM      9  C   UNL     1     -16.687   2.843  26.554  0.00  0.00    +0.132 C 
ATOM     10  C   UNL     1     -15.360   3.902  24.624  0.00  0.00    +0.133 C 
ATOM     11  C   UNL     1     -18.042   1.310  24.452  0.00  0.00    +0.128 C 
ATOM     12  C   UNL     1     -18.638   1.487  25.848  0.00  0.00    +0.127 C 
ATOM     13  C   UNL     1     -16.897   3.092  23.010  0.00  0.00    +0.305 C 
ATOM     14  C   UNL     1     -15.333   4.975  22.328  0.00  0.00    +0.133 C 
ATOM     15  C   UNL     1     -17.515   0.886  27.973  0.00  0.00    +0.267 C 
ENDROOT
BRANCH  15  16
ATOM      6  N   UNL     1     -15.395   0.267  28.905  0.00  0.00    -0.247 NA
ATOM      7  N   UNL     1     -15.506   2.398  30.726  0.00  0.00    -0.259 NA
ATOM     16  C   UNL     1     -16.435   1.125  28.939  0.00  0.00    +0.144 A 
ATOM     17  C   UNL     1     -16.489   2.170  29.833  0.00  0.00    +0.143 A 
ATOM     18  C   UNL     1     -14.411   0.495  29.798  0.00  0.00    +0.131 A 
ATOM     19  C   UNL     1     -14.465   1.542  30.692  0.00  0.00    +0.130 A 
ENDBRANCH  15  16
TORSDOF 1
ENDMDL
MODEL 4
REMARK VINA RESULT:      -5.2     27.315     29.245
REMARK  Name = 75368475
REMARK  2 active torsions:
REMARK  status: ('A' for Active; 'I' for Inactive)
REMARK    1  A    between atoms: N_5  and  C_14
REMARK    2  A    between atoms: C_15  and  C_16
REMARK                            x       y       z     vdW  Elec       q    Type
REMARK                         _______ _______ _______ _____ _____    ______ ____
ROOT
ATOM      1  O   UNL     1      -4.539 -11.514  18.880  0.00  0.00    -0.252 OA
ATOM      2  O   UNL     1     -11.263  -9.619  18.807  0.00  0.00    -0.268 OA
ATOM      3  N   UNL     1      -6.516 -10.437  18.209  0.00  0.00    -0.278 N 
ATOM      4  N   UNL     1      -9.239 -10.120  17.752  0.00  0.00    -0.293 N 
ATOM      5  N   UNL     1      -4.742 -10.363  16.832  0.00  0.00    -0.287 N 
ATOM      8  C   UNL     1      -6.934  -9.569  17.120  0.00  0.00    +0.112 C 
ATOM      9  C   UNL     1      -8.310  -9.987  16.613  0.00  0.00    +0.132 C 
ATOM     10  C   UNL     1      -5.808  -9.703  16.099  0.00  0.00    +0.133 C 
ATOM     11  C   UNL     1      -7.420 -10.693  19.318  0.00  0.00    +0.128 C 
ATOM     12  C   UNL     1      -8.804 -11.067  18.788  0.00  0.00    +0.127 C 
ATOM     13  C   UNL     1      -5.184 -10.852  18.078  0.00  0.00    +0.305 C 
ATOM     14  C   UNL     1      -3.437 -10.586  16.252  0.00  0.00    +0.133 C 
ATOM     15  C   UNL     1     -10.470  -9.474  17.879  0.00  0.00    +0.267 C 
ENDROOT
BRANCH  15  16
ATOM      6  N   UNL     1     -10.457  -7.250  16.984  0.00  0.00    -0.247 NA
ATOM      7  N   UNL     1     -11.984  -8.064  14.776  0.00  0.00    -0.259 NA
ATOM     16  C   UNL     1     -10.864  -8.526  16.829  0.00  0.00    +0.144 A 
ATOM     17  C   UNL     1     -11.614  -8.925  15.745  0.00  0.00    +0.143 A 
ATOM     18  C   UNL     1     -10.827  -6.388  16.015  0.00  0.00    +0.131 A 
ATOM     19  C   UNL     1     -11.577  -6.789  14.931  0.00  0.00    +0.130 A 
ENDBRANCH  15  16
TORSDOF 1
ENDMDL
MODEL 5
REMARK VINA RESULT:      -5.2     26.583     28.580
REMARK  Name = 75368475
REMARK  2 active torsions:
REMARK  status: ('A' for Active; 'I' for Inactive)
REMARK    1  A    between atoms: N_5  and  C_14
REMARK    2  A    between atoms: C_15  and  C_16
REMARK                            x       y       z     vdW  Elec       q    Type
REMARK                         _______ _______ _______ _____ _____    ______ ____
ROOT
ATOM      1  O   UNL     1     -10.455  -9.858  18.964  0.00  0.00    -0.252 OA
ATOM      2  O   UNL     1      -3.766 -11.874  18.943  0.00  0.00    -0.268 OA
ATOM      3  N   UNL     1      -8.339 -10.457  18.140  0.00  0.00    -0.278 N 
ATOM      4  N   UNL     1      -5.567 -10.658  18.084  0.00  0.00    -0.293 N 
ATOM      5  N   UNL     1      -9.806  -9.514  16.724  0.00  0.00    -0.287 N 
ATOM      8  C   UNL     1      -7.679 -10.502  16.846  0.00  0.00    +0.112 C 
ATOM      9  C   UNL     1      -6.251  -9.980  16.965  0.00  0.00    +0.132 C 
ATOM     10  C   UNL     1      -8.590  -9.671  15.946  0.00  0.00    +0.133 C 
ATOM     11  C   UNL     1      -7.679 -11.017  19.308  0.00  0.00    +0.128 C 
ATOM     12  C   UNL     1      -6.237 -10.518  19.385  0.00  0.00    +0.127 C 
ATOM     13  C   UNL     1      -9.637  -9.937  18.057  0.00  0.00    +0.305 C 
ATOM     14  C   UNL     1     -10.983  -8.870  16.184  0.00  0.00    +0.133 C 
ATOM     15  C   UNL     1      -4.357 -11.348  18.001  0.00  0.00    +0.267 C 
ENDROOT
BRANCH  15  16
ATOM      6  N   UNL     1      -4.193 -12.454  15.881  0.00  0.00    -0.247 NA
ATOM      7  N   UNL     1      -2.109 -10.752  15.086  0.00  0.00    -0.259 NA
ATOM     16  C   UNL     1      -3.724 -11.477  16.683  0.00  0.00    +0.144 A 
ATOM     17  C   UNL     1      -2.700 -10.642  16.292  0.00  0.00    +0.143 A 
ATOM     18  C   UNL     1      -3.603 -12.564  14.674  0.00  0.00    +0.131 A 
ATOM     19  C   UNL     1      -2.579 -11.728  14.284  0.00  0.00    +0.130 A 
ENDBRANCH  15  16
TORSDOF 1
ENDMDL
MODEL 6
REMARK VINA RESULT:      -5.1     13.888     17.498
REMARK  Name = 75368475
REMARK  2 active torsions:
REMARK  status: ('A' for Active; 'I' for Inactive)
REMARK    1  A    between atoms: N_5  and  C_14
REMARK    2  A    between atoms: C_15  and  C_16
REMARK                            x       y       z     vdW  Elec       q    Type
REMARK                         _______ _______ _______ _____ _____    ______ ____
ROOT
ATOM      1  O   UNL     1       8.295   7.603   7.820  0.00  0.00    -0.252 OA
ATOM      2  O   UNL     1      10.842   7.160   1.330  0.00  0.00    -0.268 OA
ATOM      3  N   UNL     1       9.614   6.878   6.017  0.00  0.00    -0.278 N 
ATOM      4  N   UNL     1      10.237   6.232   3.387  0.00  0.00    -0.293 N 
ATOM      5  N   UNL     1       9.632   5.663   7.907  0.00  0.00    -0.287 N 
ATOM      8  C   UNL     1      10.610   5.845   5.780  0.00  0.00    +0.112 C 
ATOM      9  C   UNL     1      10.375   5.190   4.423  0.00  0.00    +0.132 C 
ATOM     10  C   UNL     1      10.454   4.911   6.977  0.00  0.00    +0.133 C 
ATOM     11  C   UNL     1       9.355   7.879   4.997  0.00  0.00    +0.128 C 
ATOM     12  C   UNL     1       9.166   7.206   3.639  0.00  0.00    +0.127 C 
ATOM     13  C   UNL     1       9.084   6.817   7.313  0.00  0.00    +0.305 C 
ATOM     14  C   UNL     1       9.332   5.172   9.234  0.00  0.00    +0.133 C 
ATOM     15  C   UNL     1      10.988   6.317   2.213  0.00  0.00    +0.267 C 
ENDROOT
BRANCH  15  16
ATOM      6  N   UNL     1      11.669   4.063   1.765  0.00  0.00    -0.247 NA
ATOM      7  N   UNL     1      14.375   4.797   1.862  0.00  0.00    -0.259 NA
ATOM     16  C   UNL     1      12.056   5.333   2.003  0.00  0.00    +0.144 A 
ATOM     17  C   UNL     1      13.385   5.692   2.051  0.00  0.00    +0.143 A 
ATOM     18  C   UNL     1      12.658   3.168   1.576  0.00  0.00    +0.131 A 
ATOM     19  C   UNL     1      13.987   3.528   1.624  0.00  0.00    +0.130 A 
ENDBRANCH  15  16
TORSDOF 1
ENDMDL
MODEL 7
REMARK VINA RESULT:      -5.1     27.004     28.462
REMARK  Name = 75368475
REMARK  2 active torsions:
REMARK  status: ('A' for Active; 'I' for Inactive)
REMARK    1  A    between atoms: N_5  and  C_14
REMARK    2  A    between atoms: C_15  and  C_16
REMARK                            x       y       z     vdW  Elec       q    Type
REMARK                         _______ _______ _______ _____ _____    ______ ____
ROOT
ATOM      1  O   UNL     1      -4.073  -8.846   8.866  0.00  0.00    -0.252 OA
ATOM      2  O   UNL     1      -1.612 -12.072  14.553  0.00  0.00    -0.268 OA
ATOM      3  N   UNL     1      -3.985  -9.677  11.061  0.00  0.00    -0.278 N 
ATOM      4  N   UNL     1      -3.342 -11.430  13.119  0.00  0.00    -0.293 N 
ATOM      5  N   UNL     1      -5.956  -8.932  10.282  0.00  0.00    -0.287 N 
ATOM      8  C   UNL     1      -4.883  -9.758  12.201  0.00  0.00    +0.112 C 
ATOM      9  C   UNL     1      -4.764 -11.123  12.869  0.00  0.00    +0.132 C 
ATOM     10  C   UNL     1      -6.254  -9.456  11.603  0.00  0.00    +0.133 C 
ATOM     11  C   UNL     1      -2.591 -10.059  11.211  0.00  0.00    +0.128 C 
ATOM     12  C   UNL     1      -2.492 -11.408  11.921  0.00  0.00    +0.127 C 
ATOM     13  C   UNL     1      -4.602  -9.114   9.936  0.00  0.00    +0.305 C 
ATOM     14  C   UNL     1      -6.989  -8.417   9.411  0.00  0.00    +0.133 C 
ATOM     15  C   UNL     1      -2.788 -11.773  14.354  0.00  0.00    +0.267 C 
ENDROOT
BRANCH  15  16
ATOM      6  N   UNL     1      -4.316 -12.923  15.799  0.00  0.00    -0.247 NA
ATOM      7  N   UNL     1      -4.624 -10.636  17.393  0.00  0.00    -0.259 NA
ATOM     16  C   UNL     1      -3.666 -11.772  15.530  0.00  0.00    +0.144 A 
ATOM     17  C   UNL     1      -3.818 -10.650  16.313  0.00  0.00    +0.143 A 
ATOM     18  C   UNL     1      -5.121 -12.910  16.880  0.00  0.00    +0.131 A 
ATOM     19  C   UNL     1      -5.272 -11.786  17.663  0.00  0.00    +0.130 A 
ENDBRANCH  15  16
TORSDOF 1
ENDMDL
MODEL 8
REMARK VINA RESULT:      -4.8      3.967      5.516
REMARK  Name = 75368475
REMARK  2 active torsions:
REMARK  status: ('A' for Active; 'I' for Inactive)
REMARK    1  A    between atoms: N_5  and  C_14
REMARK    2  A    between atoms: C_15  and  C_16
REMARK                            x       y       z     vdW  Elec       q    Type
REMARK                         _______ _______ _______ _____ _____    ______ ____
ROOT
ATOM      1  O   UNL     1      19.879   9.155  21.274  0.00  0.00    -0.252 OA
ATOM      2  O   UNL     1      13.425  11.750  21.917  0.00  0.00    -0.268 OA
ATOM      3  N   UNL     1      17.533   9.255  21.237  0.00  0.00    -0.278 N 
ATOM      4  N   UNL     1      14.982  10.012  22.040  0.00  0.00    -0.293 N 
ATOM      5  N   UNL     1      18.516   7.243  21.057  0.00  0.00    -0.287 N 
ATOM      8  C   UNL     1      16.435   8.331  21.002  0.00  0.00    +0.112 C 
ATOM      9  C   UNL     1      15.317   8.575  22.010  0.00  0.00    +0.132 C 
ATOM     10  C   UNL     1      17.093   6.957  21.097  0.00  0.00    +0.133 C 
ATOM     11  C   UNL     1      17.263  10.676  21.377  0.00  0.00    +0.128 C 
ATOM     12  C   UNL     1      16.112  10.897  22.357  0.00  0.00    +0.127 C 
ATOM     13  C   UNL     1      18.781   8.620  21.195  0.00  0.00    +0.305 C 
ATOM     14  C   UNL     1      19.508   6.192  21.014  0.00  0.00    +0.133 C 
ATOM     15  C   UNL     1      13.711  10.556  21.847  0.00  0.00    +0.267 C 
ENDROOT
BRANCH  15  16
ATOM      6  N   UNL     1      11.903   9.152  22.561  0.00  0.00    -0.247 NA
ATOM      7  N   UNL     1      11.314   8.459  19.907  0.00  0.00    -0.259 NA
ATOM     16  C   UNL     1      12.610   9.641  21.521  0.00  0.00    +0.144 A 
ATOM     17  C   UNL     1      12.320   9.300  20.219  0.00  0.00    +0.143 A 
ATOM     18  C   UNL     1      10.897   8.312  22.250  0.00  0.00    +0.131 A 
ATOM     19  C   UNL     1      10.607   7.972  20.946  0.00  0.00    +0.130 A 
ENDBRANCH  15  16
TORSDOF 1
ENDMDL
MODEL 9
REMARK VINA RESULT:      -4.8     27.593     29.642
REMARK  Name = 75368475
REMARK  2 active torsions:
REMARK  status: ('A' for Active; 'I' for Inactive)
REMARK    1  A    between atoms: N_5  and  C_14
REMARK    2  A    between atoms: C_15  and  C_16
REMARK                            x       y       z     vdW  Elec       q    Type
REMARK                         _______ _______ _______ _____ _____    ______ ____
ROOT
ATOM      1  O   UNL     1      -3.314 -11.057  17.463  0.00  0.00    -0.252 OA
ATOM      2  O   UNL     1      -9.679 -10.677  20.317  0.00  0.00    -0.268 OA
ATOM      3  N   UNL     1      -5.615 -10.633  17.663  0.00  0.00    -0.278 N 
ATOM      4  N   UNL     1      -8.233 -11.018  18.514  0.00  0.00    -0.293 N 
ATOM      5  N   UNL     1      -4.694 -10.573  15.614  0.00  0.00    -0.287 N 
ATOM      8  C   UNL     1      -6.693 -10.198  16.790  0.00  0.00    +0.112 C 
ATOM      9  C   UNL     1      -7.953 -11.011  17.064  0.00  0.00    +0.132 C 
ATOM     10  C   UNL     1      -6.114 -10.369  15.388  0.00  0.00    +0.133 C 
ATOM     11  C   UNL     1      -5.848 -10.758  19.092  0.00  0.00    +0.128 C 
ATOM     12  C   UNL     1      -7.138 -11.538  19.345  0.00  0.00    +0.127 C 
ATOM     13  C   UNL     1      -4.403 -10.785  16.977  0.00  0.00    +0.305 C 
ATOM     14  C   UNL     1      -3.751 -10.671  14.523  0.00  0.00    +0.133 C 
ATOM     15  C   UNL     1      -9.431 -10.629  19.114  0.00  0.00    +0.267 C 
ENDROOT
BRANCH  15  16
ATOM      6  N   UNL     1     -11.460 -10.973  17.884  0.00  0.00    -0.247 NA
ATOM      7  N   UNL     1     -11.478  -8.297  17.044  0.00  0.00    -0.259 NA
ATOM     16  C   UNL     1     -10.497 -10.104  18.251  0.00  0.00    +0.144 A 
ATOM     17  C   UNL     1     -10.506  -8.790  17.838  0.00  0.00    +0.143 A 
ATOM     18  C   UNL     1     -12.433 -10.481  17.091  0.00  0.00    +0.131 A 
ATOM     19  C   UNL     1     -12.441  -9.166  16.679  0.00  0.00    +0.130 A 
ENDBRANCH  15  16
TORSDOF 1
ENDMDL
MODEL 10
REMARK VINA RESULT:      -4.7     26.028     28.408
REMARK  Name = 75368475
REMARK  2 active torsions:
REMARK  status: ('A' for Active; 'I' for Inactive)
REMARK    1  A    between atoms: N_5  and  C_14
REMARK    2  A    between atoms: C_15  and  C_16
REMARK                            x       y       z     vdW  Elec       q    Type
REMARK                         _______ _______ _______ _____ _____    ______ ____
ROOT
ATOM      1  O   UNL     1      -7.982  -8.119   9.253  0.00  0.00    -0.252 OA
ATOM      2  O   UNL     1      -1.292  -9.279  10.898  0.00  0.00    -0.268 OA
ATOM      3  N   UNL     1      -6.109  -8.887  10.444  0.00  0.00    -0.278 N 
ATOM      4  N   UNL     1      -3.547  -9.891  10.830  0.00  0.00    -0.293 N 
ATOM      5  N   UNL     1      -8.134  -9.673  11.021  0.00  0.00    -0.287 N 
ATOM      8  C   UNL     1      -5.862  -9.709  11.617  0.00  0.00    +0.112 C 
ATOM      9  C   UNL     1      -4.693 -10.653  11.362  0.00  0.00    +0.132 C 
ATOM     10  C   UNL     1      -7.201 -10.399  11.863  0.00  0.00    +0.133 C 
ATOM     11  C   UNL     1      -5.007  -8.185   9.808  0.00  0.00    +0.128 C 
ATOM     12  C   UNL     1      -3.830  -9.137   9.601  0.00  0.00    +0.127 C 
ATOM     13  C   UNL     1      -7.472  -8.803  10.131  0.00  0.00    +0.305 C 
ATOM     14  C   UNL     1      -9.554  -9.944  11.038  0.00  0.00    +0.133 C 
ATOM     15  C   UNL     1      -2.258  -9.880  11.366  0.00  0.00    +0.267 C 
ENDROOT
BRANCH  15  16
ATOM      6  N   UNL     1      -1.969  -9.922  13.745  0.00  0.00    -0.247 NA
ATOM      7  N   UNL     1      -1.619 -12.705  13.715  0.00  0.00    -0.259 NA
ATOM     16  C   UNL     1      -2.016 -10.635  12.602  0.00  0.00    +0.144 A 
ATOM     17  C   UNL     1      -1.844 -12.001  12.588  0.00  0.00    +0.143 A 
ATOM     18  C   UNL     1      -1.744 -10.625  14.873  0.00  0.00    +0.131 A 
ATOM     19  C   UNL     1      -1.573 -11.992  14.858  0.00  0.00    +0.130 A 
ENDBRANCH  15  16
TORSDOF 1
ENDMDL
