MODEL 1
REMARK VINA RESULT:      -6.5      0.000      0.000
REMARK  Name = 45783409
REMARK  9 active torsions:
REMARK  status: ('A' for Active; 'I' for Inactive)
REMARK    1  A    between atoms: O_3  and  C_23
REMARK    2  A    between atoms: O_3  and  C_27
REMARK    3  A    between atoms: O_4  and  C_28
REMARK    4  A    between atoms: O_4  and  C_29
REMARK    5  A    between atoms: N_5  and  C_13
REMARK    6  A    between atoms: C_9  and  C_14
REMARK    7  A    between atoms: C_13  and  C_15
REMARK    8  A    between atoms: C_18  and  C_21
REMARK    9  A    between atoms: C_27  and  C_28
REMARK                            x       y       z     vdW  Elec       q    Type
REMARK                         _______ _______ _______ _____ _____    ______ ____
ROOT
ATOM      2  O   UNL     1      14.059   6.590  20.062  0.00  0.00    -0.336 OA
ATOM      6  N   UNL     1      15.781   7.552  19.001  0.00  0.00    -0.190 NA
ATOM      7  N   UNL     1      15.176   6.404  20.887  0.00  0.00    -0.056 NA
ATOM     14  C   UNL     1      14.502   7.274  18.975  0.00  0.00    +0.245 A 
ATOM     18  C   UNL     1      16.151   7.000  20.194  0.00  0.00    +0.207 A 
ENDROOT
BRANCH  18  21
ATOM      8  N   UNL     1      19.228   8.186  21.930  0.00  0.00    -0.221 NA
ATOM     21  C   UNL     1      17.506   7.058  20.663  0.00  0.00    +0.084 A 
ATOM     23  C   UNL     1      17.962   8.092  21.466  0.00  0.00    +0.226 A 
ATOM     24  C   UNL     1      18.406   6.058  20.314  0.00  0.00    +0.018 A 
ATOM     25  C   UNL     1      19.718   6.121  20.773  0.00  0.00    +0.021 A 
ATOM     26  C   UNL     1      20.074   7.196  21.572  0.00  0.00    +0.114 A 
BRANCH  23   3
ATOM      3  O   UNL     1      17.111   9.101  21.837  0.00  0.00    -0.474 OA
BRANCH   3  27
ATOM     27  C   UNL     1      17.584  10.431  21.664  0.00  0.00    +0.258 C 
BRANCH  27  28
ATOM     28  C   UNL     1      16.411  11.335  21.338  0.00  0.00    +0.200 C 
BRANCH  28   4
ATOM      4  O   UNL     1      15.442  10.593  20.606  0.00  0.00    -0.380 OA
ATOM     29  C   UNL     1      15.348  11.042  19.262  0.00  0.00    +0.194 C 
ENDBRANCH  28   4
ENDBRANCH  27  28
ENDBRANCH   3  27
ENDBRANCH  23   3
ENDBRANCH  18  21
BRANCH  14   9
ATOM      5  N   UNL     1      12.573   8.704  18.323  0.00  0.00    -0.287 NA
ATOM      9  C   UNL     1      13.470   7.603  17.918  0.00  0.00    +0.146 C 
ATOM     10  C   UNL     1      14.102   8.081  16.597  0.00  0.00    +0.030 C 
ATOM     11  C   UNL     1      13.456   9.429  16.310  0.00  0.00    +0.017 C 
ATOM     12  C   UNL     1      12.158   9.375  17.092  0.00  0.00    +0.085 C 
BRANCH   5  13
ATOM     13  C   UNL     1      11.434   8.256  19.114  0.00  0.00    +0.120 C 
BRANCH  13  15
ATOM      1 CL   UNL     1      11.156  11.059  24.430  0.00  0.00    -0.084 Cl
ATOM     15  C   UNL     1      11.364   8.958  20.444  0.00  0.00    -0.033 A 
ATOM     16  C   UNL     1      10.741   8.339  21.527  0.00  0.00    +0.006 A 
ATOM     17  C   UNL     1      11.923  10.228  20.592  0.00  0.00    +0.006 A 
ATOM     19  C   UNL     1      10.676   8.990  22.759  0.00  0.00    +0.020 A 
ATOM     20  C   UNL     1      11.858  10.878  21.824  0.00  0.00    +0.020 A 
ATOM     22  C   UNL     1      11.234  10.259  22.908  0.00  0.00    +0.041 A 
ENDBRANCH  13  15
ENDBRANCH   5  13
ENDBRANCH  14   9
TORSDOF 8
ENDMDL
MODEL 2
REMARK VINA RESULT:      -6.5      2.318      4.385
REMARK  Name = 45783409
REMARK  9 active torsions:
REMARK  status: ('A' for Active; 'I' for Inactive)
REMARK    1  A    between atoms: O_3  and  C_23
REMARK    2  A    between atoms: O_3  and  C_27
REMARK    3  A    between atoms: O_4  and  C_28
REMARK    4  A    between atoms: O_4  and  C_29
REMARK    5  A    between atoms: N_5  and  C_13
REMARK    6  A    between atoms: C_9  and  C_14
REMARK    7  A    between atoms: C_13  and  C_15
REMARK    8  A    between atoms: C_18  and  C_21
REMARK    9  A    between atoms: C_27  and  C_28
REMARK                            x       y       z     vdW  Elec       q    Type
REMARK                         _______ _______ _______ _____ _____    ______ ____
ROOT
ATOM      2  O   UNL     1      14.531   9.757  22.543  0.00  0.00    -0.336 OA
ATOM      6  N   UNL     1      15.457   9.862  20.506  0.00  0.00    -0.190 NA
ATOM      7  N   UNL     1      15.150   8.518  22.332  0.00  0.00    -0.056 NA
ATOM     14  C   UNL     1      14.760  10.488  21.420  0.00  0.00    +0.245 A 
ATOM     18  C   UNL     1      15.675   8.658  21.111  0.00  0.00    +0.207 A 
ENDROOT
BRANCH  18  21
ATOM      8  N   UNL     1      16.542   5.865  18.801  0.00  0.00    -0.221 NA
ATOM     21  C   UNL     1      16.417   7.614  20.466  0.00  0.00    +0.084 A 
ATOM     23  C   UNL     1      15.879   6.857  19.437  0.00  0.00    +0.226 A 
ATOM     24  C   UNL     1      17.718   7.335  20.868  0.00  0.00    +0.018 A 
ATOM     25  C   UNL     1      18.432   6.321  20.238  0.00  0.00    +0.021 A 
ATOM     26  C   UNL     1      17.805   5.623  19.219  0.00  0.00    +0.114 A 
BRANCH  23   3
ATOM      3  O   UNL     1      14.600   7.096  19.004  0.00  0.00    -0.474 OA
BRANCH   3  27
ATOM     27  C   UNL     1      14.462   7.795  17.774  0.00  0.00    +0.258 C 
BRANCH  27  28
ATOM     28  C   UNL     1      13.035   7.650  17.280  0.00  0.00    +0.200 C 
BRANCH  28   4
ATOM      4  O   UNL     1      12.902   8.331  16.038  0.00  0.00    -0.380 OA
ATOM     29  C   UNL     1      14.046   9.121  15.751  0.00  0.00    +0.194 C 
ENDBRANCH  28   4
ENDBRANCH  27  28
ENDBRANCH   3  27
ENDBRANCH  23   3
ENDBRANCH  18  21
BRANCH  14   9
ATOM      5  N   UNL     1      12.933  12.000  22.174  0.00  0.00    -0.287 NA
ATOM      9  C   UNL     1      14.184  11.888  21.398  0.00  0.00    +0.146 C 
ATOM     10  C   UNL     1      15.129  12.929  22.028  0.00  0.00    +0.030 C 
ATOM     11  C   UNL     1      14.301  13.616  23.106  0.00  0.00    +0.017 C 
ATOM     12  C   UNL     1      12.871  13.376  22.664  0.00  0.00    +0.085 C 
BRANCH   5  13
ATOM     13  C   UNL     1      11.747  11.638  21.406  0.00  0.00    +0.120 C 
BRANCH  13  15
ATOM      1 CL   UNL     1      10.647   5.728  21.643  0.00  0.00    -0.084 Cl
ATOM     15  C   UNL     1      11.471  10.159  21.465  0.00  0.00    -0.033 A 
ATOM     16  C   UNL     1      11.676   9.366  20.337  0.00  0.00    +0.006 A 
ATOM     17  C   UNL     1      11.010   9.583  22.650  0.00  0.00    +0.006 A 
ATOM     19  C   UNL     1      11.419   7.996  20.392  0.00  0.00    +0.020 A 
ATOM     20  C   UNL     1      10.754   8.213  22.704  0.00  0.00    +0.020 A 
ATOM     22  C   UNL     1      10.959   7.419  21.575  0.00  0.00    +0.041 A 
ENDBRANCH  13  15
ENDBRANCH   5  13
ENDBRANCH  14   9
TORSDOF 8
ENDMDL
MODEL 3
REMARK VINA RESULT:      -6.1     25.930     28.790
REMARK  Name = 45783409
REMARK  9 active torsions:
REMARK  status: ('A' for Active; 'I' for Inactive)
REMARK    1  A    between atoms: O_3  and  C_23
REMARK    2  A    between atoms: O_3  and  C_27
REMARK    3  A    between atoms: O_4  and  C_28
REMARK    4  A    between atoms: O_4  and  C_29
REMARK    5  A    between atoms: N_5  and  C_13
REMARK    6  A    between atoms: C_9  and  C_14
REMARK    7  A    between atoms: C_13  and  C_15
REMARK    8  A    between atoms: C_18  and  C_21
REMARK    9  A    between atoms: C_27  and  C_28
REMARK                            x       y       z     vdW  Elec       q    Type
REMARK                         _______ _______ _______ _____ _____    ______ ____
ROOT
ATOM      2  O   UNL     1      -5.093 -12.389  15.346  0.00  0.00    -0.336 OA
ATOM      6  N   UNL     1      -5.206 -10.152  15.369  0.00  0.00    -0.190 NA
ATOM      7  N   UNL     1      -6.427 -12.070  15.633  0.00  0.00    -0.056 NA
ATOM     14  C   UNL     1      -4.444 -11.204  15.206  0.00  0.00    +0.245 A 
ATOM     18  C   UNL     1      -6.414 -10.734  15.628  0.00  0.00    +0.207 A 
ENDROOT
BRANCH  18  21
ATOM      8  N   UNL     1      -8.975  -8.710  17.426  0.00  0.00    -0.221 NA
ATOM     21  C   UNL     1      -7.588  -9.950  15.882  0.00  0.00    +0.084 A 
ATOM     23  C   UNL     1      -7.882  -9.452  17.142  0.00  0.00    +0.226 A 
ATOM     24  C   UNL     1      -8.474  -9.669  14.848  0.00  0.00    +0.018 A 
ATOM     25  C   UNL     1      -9.611  -8.908  15.102  0.00  0.00    +0.021 A 
ATOM     26  C   UNL     1      -9.813  -8.456  16.396  0.00  0.00    +0.114 A 
BRANCH  23   3
ATOM      3  O   UNL     1      -7.038  -9.703  18.194  0.00  0.00    -0.474 OA
BRANCH   3  27
ATOM     27  C   UNL     1      -7.428 -10.732  19.094  0.00  0.00    +0.258 C 
BRANCH  27  28
ATOM     28  C   UNL     1      -6.187 -11.352  19.705  0.00  0.00    +0.200 C 
BRANCH  28   4
ATOM      4  O   UNL     1      -5.091 -11.173  18.815  0.00  0.00    -0.380 OA
ATOM     29  C   UNL     1      -3.993 -12.002  19.166  0.00  0.00    +0.194 C 
ENDBRANCH  28   4
ENDBRANCH  27  28
ENDBRANCH   3  27
ENDBRANCH  23   3
ENDBRANCH  18  21
BRANCH  14   9
ATOM      5  N   UNL     1      -2.579 -10.386  13.776  0.00  0.00    -0.287 NA
ATOM      9  C   UNL     1      -2.966 -11.278  14.888  0.00  0.00    +0.146 C 
ATOM     10  C   UNL     1      -2.080 -10.836  16.069  0.00  0.00    +0.030 C 
ATOM     11  C   UNL     1      -1.189  -9.737  15.509  0.00  0.00    +0.017 C 
ATOM     12  C   UNL     1      -1.188 -10.004  14.017  0.00  0.00    +0.085 C 
BRANCH   5  13
ATOM     13  C   UNL     1      -2.762 -10.993  12.463  0.00  0.00    +0.120 C 
BRANCH  13  15
ATOM      1 CL   UNL     1      -6.456  -7.750   8.994  0.00  0.00    -0.084 Cl
ATOM     15  C   UNL     1      -3.686 -10.182  11.595  0.00  0.00    -0.033 A 
ATOM     16  C   UNL     1      -5.012  -9.987  11.980  0.00  0.00    +0.006 A 
ATOM     17  C   UNL     1      -3.215  -9.626  10.404  0.00  0.00    +0.006 A 
ATOM     19  C   UNL     1      -5.868  -9.235  11.175  0.00  0.00    +0.020 A 
ATOM     20  C   UNL     1      -4.072  -8.875   9.600  0.00  0.00    +0.020 A 
ATOM     22  C   UNL     1      -5.399  -8.680   9.985  0.00  0.00    +0.041 A 
ENDBRANCH  13  15
ENDBRANCH   5  13
ENDBRANCH  14   9
TORSDOF 8
ENDMDL
MODEL 4
REMARK VINA RESULT:      -5.9      2.882      6.950
REMARK  Name = 45783409
REMARK  9 active torsions:
REMARK  status: ('A' for Active; 'I' for Inactive)
REMARK    1  A    between atoms: O_3  and  C_23
REMARK    2  A    between atoms: O_3  and  C_27
REMARK    3  A    between atoms: O_4  and  C_28
REMARK    4  A    between atoms: O_4  and  C_29
REMARK    5  A    between atoms: N_5  and  C_13
REMARK    6  A    between atoms: C_9  and  C_14
REMARK    7  A    between atoms: C_13  and  C_15
REMARK    8  A    between atoms: C_18  and  C_21
REMARK    9  A    between atoms: C_27  and  C_28
REMARK                            x       y       z     vdW  Elec       q    Type
REMARK                         _______ _______ _______ _____ _____    ______ ____
ROOT
ATOM      2  O   UNL     1      14.033  11.593  19.766  0.00  0.00    -0.336 OA
ATOM      6  N   UNL     1      14.434   9.990  21.278  0.00  0.00    -0.190 NA
ATOM      7  N   UNL     1      12.895  10.776  19.778  0.00  0.00    -0.056 NA
ATOM     14  C   UNL     1      14.889  11.060  20.678  0.00  0.00    +0.245 A 
ATOM     18  C   UNL     1      13.208   9.855  20.695  0.00  0.00    +0.207 A 
ENDROOT
BRANCH  18  21
ATOM      8  N   UNL     1      11.548   6.518  20.715  0.00  0.00    -0.221 NA
ATOM     21  C   UNL     1      12.319   8.785  21.048  0.00  0.00    +0.084 A 
ATOM     23  C   UNL     1      12.365   7.553  20.415  0.00  0.00    +0.226 A 
ATOM     24  C   UNL     1      11.375   8.967  22.052  0.00  0.00    +0.018 A 
ATOM     25  C   UNL     1      10.517   7.925  22.389  0.00  0.00    +0.021 A 
ATOM     26  C   UNL     1      10.645   6.732  21.697  0.00  0.00    +0.114 A 
BRANCH  23   3
ATOM      3  O   UNL     1      13.279   7.325  19.418  0.00  0.00    -0.474 OA
BRANCH   3  27
ATOM     27  C   UNL     1      12.790   7.358  18.084  0.00  0.00    +0.258 C 
BRANCH  27  28
ATOM     28  C   UNL     1      13.813   8.044  17.199  0.00  0.00    +0.200 C 
BRANCH  28   4
ATOM      4  O   UNL     1      13.196   8.405  15.968  0.00  0.00    -0.380 OA
ATOM     29  C   UNL     1      13.232   9.809  15.759  0.00  0.00    +0.194 C 
ENDBRANCH  28   4
ENDBRANCH  27  28
ENDBRANCH   3  27
ENDBRANCH  23   3
ENDBRANCH  18  21
BRANCH  14   9
ATOM      5  N   UNL     1      17.370  10.900  20.569  0.00  0.00    -0.287 NA
ATOM      9  C   UNL     1      16.213  11.772  20.856  0.00  0.00    +0.146 C 
ATOM     10  C   UNL     1      16.378  12.969  19.900  0.00  0.00    +0.030 C 
ATOM     11  C   UNL     1      17.685  12.711  19.162  0.00  0.00    +0.017 C 
ATOM     12  C   UNL     1      18.438  11.776  20.087  0.00  0.00    +0.085 C 
BRANCH   5  13
ATOM     13  C   UNL     1      17.788  10.105  21.716  0.00  0.00    +0.120 C 
BRANCH  13  15
ATOM      1 CL   UNL     1      19.789   4.675  20.073  0.00  0.00    -0.084 Cl
ATOM     15  C   UNL     1      18.289   8.747  21.304  0.00  0.00    -0.033 A 
ATOM     16  C   UNL     1      19.625   8.405  21.509  0.00  0.00    +0.006 A 
ATOM     17  C   UNL     1      17.415   7.830  20.718  0.00  0.00    +0.006 A 
ATOM     19  C   UNL     1      20.089   7.146  21.127  0.00  0.00    +0.020 A 
ATOM     20  C   UNL     1      17.880   6.572  20.337  0.00  0.00    +0.020 A 
ATOM     22  C   UNL     1      19.217   6.229  20.541  0.00  0.00    +0.041 A 
ENDBRANCH  13  15
ENDBRANCH   5  13
ENDBRANCH  14   9
TORSDOF 8
ENDMDL
MODEL 5
REMARK VINA RESULT:      -5.9     16.498     19.902
REMARK  Name = 45783409
REMARK  9 active torsions:
REMARK  status: ('A' for Active; 'I' for Inactive)
REMARK    1  A    between atoms: O_3  and  C_23
REMARK    2  A    between atoms: O_3  and  C_27
REMARK    3  A    between atoms: O_4  and  C_28
REMARK    4  A    between atoms: O_4  and  C_29
REMARK    5  A    between atoms: N_5  and  C_13
REMARK    6  A    between atoms: C_9  and  C_14
REMARK    7  A    between atoms: C_13  and  C_15
REMARK    8  A    between atoms: C_18  and  C_21
REMARK    9  A    between atoms: C_27  and  C_28
REMARK                            x       y       z     vdW  Elec       q    Type
REMARK                         _______ _______ _______ _____ _____    ______ ____
ROOT
ATOM      2  O   UNL     1      11.435   3.253   2.586  0.00  0.00    -0.336 OA
ATOM      6  N   UNL     1      12.050   5.398   2.399  0.00  0.00    -0.190 NA
ATOM      7  N   UNL     1      10.473   3.995   3.282  0.00  0.00    -0.056 NA
ATOM     14  C   UNL     1      12.326   4.155   2.097  0.00  0.00    +0.245 A 
ATOM     18  C   UNL     1      10.904   5.250   3.126  0.00  0.00    +0.207 A 
ENDROOT
BRANCH  18  21
ATOM      8  N   UNL     1       9.711   7.780   5.589  0.00  0.00    -0.221 NA
ATOM     21  C   UNL     1      10.215   6.377   3.685  0.00  0.00    +0.084 A 
ATOM     23  C   UNL     1      10.341   6.727   5.021  0.00  0.00    +0.226 A 
ATOM     24  C   UNL     1       9.391   7.158   2.882  0.00  0.00    +0.018 A 
ATOM     25  C   UNL     1       8.726   8.250   3.432  0.00  0.00    +0.021 A 
ATOM     26  C   UNL     1       8.920   8.515   4.778  0.00  0.00    +0.114 A 
BRANCH  23   3
ATOM      3  O   UNL     1      11.142   5.988   5.852  0.00  0.00    -0.474 OA
BRANCH   3  27
ATOM     27  C   UNL     1      10.984   6.203   7.249  0.00  0.00    +0.258 C 
BRANCH  27  28
ATOM     28  C   UNL     1      10.167   5.069   7.835  0.00  0.00    +0.200 C 
BRANCH  28   4
ATOM      4  O   UNL     1       9.286   5.592   8.823  0.00  0.00    -0.380 OA
ATOM     29  C   UNL     1       9.129   4.692   9.910  0.00  0.00    +0.194 C 
ENDBRANCH  28   4
ENDBRANCH  27  28
ENDBRANCH   3  27
ENDBRANCH  23   3
ENDBRANCH  18  21
BRANCH  14   9
ATOM      5  N   UNL     1      13.357   3.878  -0.151  0.00  0.00    -0.287 NA
ATOM      9  C   UNL     1      13.481   3.596   1.294  0.00  0.00    +0.146 C 
ATOM     10  C   UNL     1      14.837   4.208   1.696  0.00  0.00    +0.030 C 
ATOM     11  C   UNL     1      15.426   4.754   0.403  0.00  0.00    +0.017 C 
ATOM     12  C   UNL     1      14.720   3.957  -0.675  0.00  0.00    +0.085 C 
BRANCH   5  13
ATOM     13  C   UNL     1      12.552   2.892  -0.861  0.00  0.00    +0.120 C 
BRANCH  13  15
ATOM      1 CL   UNL     1       8.023   5.449  -3.883  0.00  0.00    -0.084 Cl
ATOM     15  C   UNL     1      11.420   3.532  -1.617  0.00  0.00    -0.033 A 
ATOM     16  C   UNL     1      11.039   3.029  -2.861  0.00  0.00    +0.006 A 
ATOM     17  C   UNL     1      10.751   4.630  -1.073  0.00  0.00    +0.006 A 
ATOM     19  C   UNL     1       9.989   3.623  -3.561  0.00  0.00    +0.020 A 
ATOM     20  C   UNL     1       9.701   5.223  -1.774  0.00  0.00    +0.020 A 
ATOM     22  C   UNL     1       9.320   4.720  -3.019  0.00  0.00    +0.041 A 
ENDBRANCH  13  15
ENDBRANCH   5  13
ENDBRANCH  14   9
TORSDOF 8
ENDMDL
MODEL 6
REMARK VINA RESULT:      -5.8      4.330      7.177
REMARK  Name = 45783409
REMARK  9 active torsions:
REMARK  status: ('A' for Active; 'I' for Inactive)
REMARK    1  A    between atoms: O_3  and  C_23
REMARK    2  A    between atoms: O_3  and  C_27
REMARK    3  A    between atoms: O_4  and  C_28
REMARK    4  A    between atoms: O_4  and  C_29
REMARK    5  A    between atoms: N_5  and  C_13
REMARK    6  A    between atoms: C_9  and  C_14
REMARK    7  A    between atoms: C_13  and  C_15
REMARK    8  A    between atoms: C_18  and  C_21
REMARK    9  A    between atoms: C_27  and  C_28
REMARK                            x       y       z     vdW  Elec       q    Type
REMARK                         _______ _______ _______ _____ _____    ______ ____
ROOT
ATOM      2  O   UNL     1      14.042   8.273  15.480  0.00  0.00    -0.336 OA
ATOM      6  N   UNL     1      13.991  10.126  16.737  0.00  0.00    -0.190 NA
ATOM      7  N   UNL     1      14.718   9.257  14.749  0.00  0.00    -0.056 NA
ATOM     14  C   UNL     1      13.647   8.867  16.636  0.00  0.00    +0.245 A 
ATOM     18  C   UNL     1      14.648  10.320  15.556  0.00  0.00    +0.207 A 
ENDROOT
BRANCH  18  21
ATOM      8  N   UNL     1      15.261  13.538  13.780  0.00  0.00    -0.221 NA
ATOM     21  C   UNL     1      15.218  11.590  15.211  0.00  0.00    +0.084 A 
ATOM     23  C   UNL     1      14.754  12.338  14.140  0.00  0.00    +0.226 A 
ATOM     24  C   UNL     1      16.269  12.108  15.959  0.00  0.00    +0.018 A 
ATOM     25  C   UNL     1      16.817  13.340  15.619  0.00  0.00    +0.021 A 
ATOM     26  C   UNL     1      16.280  14.009  14.531  0.00  0.00    +0.114 A 
BRANCH  23   3
ATOM      3  O   UNL     1      13.719  11.870  13.372  0.00  0.00    -0.474 OA
BRANCH   3  27
ATOM     27  C   UNL     1      12.578  12.711  13.257  0.00  0.00    +0.258 C 
BRANCH  27  28
ATOM     28  C   UNL     1      12.320  12.999  11.791  0.00  0.00    +0.200 C 
BRANCH  28   4
ATOM      4  O   UNL     1      12.577  11.821  11.034  0.00  0.00    -0.380 OA
ATOM     29  C   UNL     1      11.713  11.726   9.911  0.00  0.00    +0.194 C 
ENDBRANCH  28   4
ENDBRANCH  27  28
ENDBRANCH   3  27
ENDBRANCH  23   3
ENDBRANCH  18  21
BRANCH  14   9
ATOM      5  N   UNL     1      13.511   7.961  18.950  0.00  0.00    -0.287 NA
ATOM      9  C   UNL     1      12.883   7.999  17.614  0.00  0.00    +0.146 C 
ATOM     10  C   UNL     1      11.452   8.509  17.869  0.00  0.00    +0.030 C 
ATOM     11  C   UNL     1      11.350   8.670  19.380  0.00  0.00    +0.017 C 
ATOM     12  C   UNL     1      12.429   7.746  19.910  0.00  0.00    +0.085 C 
BRANCH   5  13
ATOM     13  C   UNL     1      14.555   6.951  19.066  0.00  0.00    +0.120 C 
BRANCH  13  15
ATOM      1 CL   UNL     1      19.285   8.962  22.192  0.00  0.00    -0.084 Cl
ATOM     15  C   UNL     1      15.739   7.454  19.847  0.00  0.00    -0.033 A 
ATOM     16  C   UNL     1      15.842   8.809  20.161  0.00  0.00    +0.006 A 
ATOM     17  C   UNL     1      16.732   6.564  20.257  0.00  0.00    +0.006 A 
ATOM     19  C   UNL     1      16.940   9.275  20.885  0.00  0.00    +0.020 A 
ATOM     20  C   UNL     1      17.829   7.031  20.982  0.00  0.00    +0.020 A 
ATOM     22  C   UNL     1      17.933   8.387  21.296  0.00  0.00    +0.041 A 
ENDBRANCH  13  15
ENDBRANCH   5  13
ENDBRANCH  14   9
TORSDOF 8
ENDMDL
MODEL 7
REMARK VINA RESULT:      -5.7      3.557      6.840
REMARK  Name = 45783409
REMARK  9 active torsions:
REMARK  status: ('A' for Active; 'I' for Inactive)
REMARK    1  A    between atoms: O_3  and  C_23
REMARK    2  A    between atoms: O_3  and  C_27
REMARK    3  A    between atoms: O_4  and  C_28
REMARK    4  A    between atoms: O_4  and  C_29
REMARK    5  A    between atoms: N_5  and  C_13
REMARK    6  A    between atoms: C_9  and  C_14
REMARK    7  A    between atoms: C_13  and  C_15
REMARK    8  A    between atoms: C_18  and  C_21
REMARK    9  A    between atoms: C_27  and  C_28
REMARK                            x       y       z     vdW  Elec       q    Type
REMARK                         _______ _______ _______ _____ _____    ______ ____
ROOT
ATOM      2  O   UNL     1      11.721   8.928  20.622  0.00  0.00    -0.336 OA
ATOM      6  N   UNL     1      12.912  10.673  21.366  0.00  0.00    -0.190 NA
ATOM      7  N   UNL     1      10.911   9.578  21.562  0.00  0.00    -0.056 NA
ATOM     14  C   UNL     1      12.879   9.637  20.567  0.00  0.00    +0.245 A 
ATOM     18  C   UNL     1      11.682  10.597  21.955  0.00  0.00    +0.207 A 
ENDROOT
BRANCH  18  21
ATOM      8  N   UNL     1      10.436  13.763  23.474  0.00  0.00    -0.221 NA
ATOM     21  C   UNL     1      11.256  11.554  22.935  0.00  0.00    +0.084 A 
ATOM     23  C   UNL     1      10.845  12.831  22.585  0.00  0.00    +0.226 A 
ATOM     24  C   UNL     1      11.245  11.212  24.282  0.00  0.00    +0.018 A 
ATOM     25  C   UNL     1      10.829  12.145  25.227  0.00  0.00    +0.021 A 
ATOM     26  C   UNL     1      10.437  13.395  24.774  0.00  0.00    +0.114 A 
BRANCH  23   3
ATOM      3  O   UNL     1      10.838  13.215  21.269  0.00  0.00    -0.474 OA
BRANCH   3  27
ATOM     27  C   UNL     1      10.564  14.585  21.004  0.00  0.00    +0.258 C 
BRANCH  27  28
ATOM     28  C   UNL     1      11.472  15.065  19.889  0.00  0.00    +0.200 C 
BRANCH  28   4
ATOM      4  O   UNL     1      12.399  14.034  19.566  0.00  0.00    -0.380 OA
ATOM     29  C   UNL     1      13.156  14.358  18.410  0.00  0.00    +0.194 C 
ENDBRANCH  28   4
ENDBRANCH  27  28
ENDBRANCH   3  27
ENDBRANCH  23   3
ENDBRANCH  18  21
BRANCH  14   9
ATOM      5  N   UNL     1      13.603   7.806  19.045  0.00  0.00    -0.287 NA
ATOM      9  C   UNL     1      13.936   9.129  19.609  0.00  0.00    +0.146 C 
ATOM     10  C   UNL     1      14.114  10.043  18.382  0.00  0.00    +0.030 C 
ATOM     11  C   UNL     1      13.923   9.133  17.177  0.00  0.00    +0.017 C 
ATOM     12  C   UNL     1      14.224   7.752  17.723  0.00  0.00    +0.085 C 
BRANCH   5  13
ATOM     13  C   UNL     1      14.022   6.698  19.894  0.00  0.00    +0.120 C 
BRANCH  13  15
ATOM      1 CL   UNL     1      19.998   6.535  20.571  0.00  0.00    -0.084 Cl
ATOM     15  C   UNL     1      15.517   6.656  20.064  0.00  0.00    -0.033 A 
ATOM     16  C   UNL     1      16.313   6.055  19.090  0.00  0.00    +0.006 A 
ATOM     17  C   UNL     1      16.106   7.220  21.196  0.00  0.00    +0.006 A 
ATOM     19  C   UNL     1      17.699   6.017  19.248  0.00  0.00    +0.020 A 
ATOM     20  C   UNL     1      17.491   7.182  21.353  0.00  0.00    +0.020 A 
ATOM     22  C   UNL     1      18.288   6.580  20.379  0.00  0.00    +0.041 A 
ENDBRANCH  13  15
ENDBRANCH   5  13
ENDBRANCH  14   9
TORSDOF 8
ENDMDL
MODEL 8
REMARK VINA RESULT:      -5.7      4.028      6.570
REMARK  Name = 45783409
REMARK  9 active torsions:
REMARK  status: ('A' for Active; 'I' for Inactive)
REMARK    1  A    between atoms: O_3  and  C_23
REMARK    2  A    between atoms: O_3  and  C_27
REMARK    3  A    between atoms: O_4  and  C_28
REMARK    4  A    between atoms: O_4  and  C_29
REMARK    5  A    between atoms: N_5  and  C_13
REMARK    6  A    between atoms: C_9  and  C_14
REMARK    7  A    between atoms: C_13  and  C_15
REMARK    8  A    between atoms: C_18  and  C_21
REMARK    9  A    between atoms: C_27  and  C_28
REMARK                            x       y       z     vdW  Elec       q    Type
REMARK                         _______ _______ _______ _____ _____    ______ ____
ROOT
ATOM      2  O   UNL     1      13.835   8.437  16.237  0.00  0.00    -0.336 OA
ATOM      6  N   UNL     1      14.768  10.388  16.820  0.00  0.00    -0.190 NA
ATOM      7  N   UNL     1      14.138   9.096  15.039  0.00  0.00    -0.056 NA
ATOM     14  C   UNL     1      14.238   9.266  17.236  0.00  0.00    +0.245 A 
ATOM     18  C   UNL     1      14.686  10.238  15.465  0.00  0.00    +0.207 A 
ENDROOT
BRANCH  18  21
ATOM      8  N   UNL     1      14.701  12.908  12.865  0.00  0.00    -0.221 NA
ATOM     21  C   UNL     1      15.158  11.250  14.565  0.00  0.00    +0.084 A 
ATOM     23  C   UNL     1      14.301  11.947  13.728  0.00  0.00    +0.226 A 
ATOM     24  C   UNL     1      16.513  11.560  14.514  0.00  0.00    +0.018 A 
ATOM     25  C   UNL     1      16.963  12.543  13.639  0.00  0.00    +0.021 A 
ATOM     26  C   UNL     1      16.025  13.181  12.844  0.00  0.00    +0.114 A 
BRANCH  23   3
ATOM      3  O   UNL     1      12.956  11.678  13.742  0.00  0.00    -0.474 OA
BRANCH   3  27
ATOM     27  C   UNL     1      12.163  12.334  12.761  0.00  0.00    +0.258 C 
BRANCH  27  28
ATOM     28  C   UNL     1      10.722  11.885  12.909  0.00  0.00    +0.200 C 
BRANCH  28   4
ATOM      4  O   UNL     1      10.098  11.897  11.631  0.00  0.00    -0.380 OA
ATOM     29  C   UNL     1       8.750  12.337  11.714  0.00  0.00    +0.194 C 
ENDBRANCH  28   4
ENDBRANCH  27  28
ENDBRANCH   3  27
ENDBRANCH  23   3
ENDBRANCH  18  21
BRANCH  14   9
ATOM      5  N   UNL     1      12.934   7.775  18.742  0.00  0.00    -0.287 NA
ATOM      9  C   UNL     1      14.018   8.775  18.650  0.00  0.00    +0.146 C 
ATOM     10  C   UNL     1      15.254   8.065  19.233  0.00  0.00    +0.030 C 
ATOM     11  C   UNL     1      14.755   6.698  19.681  0.00  0.00    +0.017 C 
ATOM     12  C   UNL     1      13.266   6.908  19.872  0.00  0.00    +0.085 C 
BRANCH   5  13
ATOM     13  C   UNL     1      11.612   8.373  18.879  0.00  0.00    +0.120 C 
BRANCH  13  15
ATOM      1 CL   UNL     1      10.894  11.014  24.237  0.00  0.00    -0.084 Cl
ATOM     15  C   UNL     1      11.431   9.034  20.219  0.00  0.00    -0.033 A 
ATOM     16  C   UNL     1      10.768   8.362  21.245  0.00  0.00    +0.006 A 
ATOM     17  C   UNL     1      11.929  10.320  20.435  0.00  0.00    +0.006 A 
ATOM     19  C   UNL     1      10.601   8.975  22.487  0.00  0.00    +0.020 A 
ATOM     20  C   UNL     1      11.762  10.932  21.676  0.00  0.00    +0.020 A 
ATOM     22  C   UNL     1      11.098  10.260  22.703  0.00  0.00    +0.041 A 
ENDBRANCH  13  15
ENDBRANCH   5  13
ENDBRANCH  14   9
TORSDOF 8
ENDMDL
MODEL 9
REMARK VINA RESULT:      -5.6      2.844      6.007
REMARK  Name = 45783409
REMARK  9 active torsions:
REMARK  status: ('A' for Active; 'I' for Inactive)
REMARK    1  A    between atoms: O_3  and  C_23
REMARK    2  A    between atoms: O_3  and  C_27
REMARK    3  A    between atoms: O_4  and  C_28
REMARK    4  A    between atoms: O_4  and  C_29
REMARK    5  A    between atoms: N_5  and  C_13
REMARK    6  A    between atoms: C_9  and  C_14
REMARK    7  A    between atoms: C_13  and  C_15
REMARK    8  A    between atoms: C_18  and  C_21
REMARK    9  A    between atoms: C_27  and  C_28
REMARK                            x       y       z     vdW  Elec       q    Type
REMARK                         _______ _______ _______ _____ _____    ______ ____
ROOT
ATOM      2  O   UNL     1      13.369   7.621  17.105  0.00  0.00    -0.336 OA
ATOM      6  N   UNL     1      13.034   9.725  17.799  0.00  0.00    -0.190 NA
ATOM      7  N   UNL     1      13.897   8.449  16.106  0.00  0.00    -0.056 NA
ATOM     14  C   UNL     1      12.881   8.452  18.064  0.00  0.00    +0.245 A 
ATOM     18  C   UNL     1      13.663   9.673  16.588  0.00  0.00    +0.207 A 
ENDROOT
BRANCH  18  21
ATOM      8  N   UNL     1      15.361  12.887  15.764  0.00  0.00    -0.221 NA
ATOM     21  C   UNL     1      14.041  10.864  15.884  0.00  0.00    +0.084 A 
ATOM     23  C   UNL     1      14.975  11.754  16.393  0.00  0.00    +0.226 A 
ATOM     24  C   UNL     1      13.468  11.156  14.652  0.00  0.00    +0.018 A 
ATOM     25  C   UNL     1      13.840  12.313  13.975  0.00  0.00    +0.021 A 
ATOM     26  C   UNL     1      14.782  13.137  14.568  0.00  0.00    +0.114 A 
BRANCH  23   3
ATOM      3  O   UNL     1      15.568  11.509  17.604  0.00  0.00    -0.474 OA
BRANCH   3  27
ATOM     27  C   UNL     1      15.351  12.472  18.628  0.00  0.00    +0.258 C 
BRANCH  27  28
ATOM     28  C   UNL     1      15.244  11.759  19.962  0.00  0.00    +0.200 C 
BRANCH  28   4
ATOM      4  O   UNL     1      13.870  11.612  20.303  0.00  0.00    -0.380 OA
ATOM     29  C   UNL     1      13.105  12.730  19.877  0.00  0.00    +0.194 C 
ENDBRANCH  28   4
ENDBRANCH  27  28
ENDBRANCH   3  27
ENDBRANCH  23   3
ENDBRANCH  18  21
BRANCH  14   9
ATOM      5  N   UNL     1      13.131   7.806  20.454  0.00  0.00    -0.287 NA
ATOM      9  C   UNL     1      12.248   7.793  19.270  0.00  0.00    +0.146 C 
ATOM     10  C   UNL     1      10.963   8.506  19.732  0.00  0.00    +0.030 C 
ATOM     11  C   UNL     1      11.194   8.828  21.202  0.00  0.00    +0.017 C 
ATOM     12  C   UNL     1      12.253   7.830  21.624  0.00  0.00    +0.085 C 
BRANCH   5  13
ATOM     13  C   UNL     1      14.061   6.685  20.489  0.00  0.00    +0.120 C 
BRANCH  13  15
ATOM      1 CL   UNL     1      19.735   8.506  21.319  0.00  0.00    -0.084 Cl
ATOM     15  C   UNL     1      15.481   7.141  20.696  0.00  0.00    -0.033 A 
ATOM     16  C   UNL     1      15.740   8.321  21.394  0.00  0.00    +0.006 A 
ATOM     17  C   UNL     1      16.537   6.383  20.190  0.00  0.00    +0.006 A 
ATOM     19  C   UNL     1      17.056   8.743  21.585  0.00  0.00    +0.020 A 
ATOM     20  C   UNL     1      17.852   6.806  20.382  0.00  0.00    +0.020 A 
ATOM     22  C   UNL     1      18.112   7.986  21.079  0.00  0.00    +0.041 A 
ENDBRANCH  13  15
ENDBRANCH   5  13
ENDBRANCH  14   9
TORSDOF 8
ENDMDL
MODEL 10
REMARK VINA RESULT:      -5.6      3.467      6.742
REMARK  Name = 45783409
REMARK  9 active torsions:
REMARK  status: ('A' for Active; 'I' for Inactive)
REMARK    1  A    between atoms: O_3  and  C_23
REMARK    2  A    between atoms: O_3  and  C_27
REMARK    3  A    between atoms: O_4  and  C_28
REMARK    4  A    between atoms: O_4  and  C_29
REMARK    5  A    between atoms: N_5  and  C_13
REMARK    6  A    between atoms: C_9  and  C_14
REMARK    7  A    between atoms: C_13  and  C_15
REMARK    8  A    between atoms: C_18  and  C_21
REMARK    9  A    between atoms: C_27  and  C_28
REMARK                            x       y       z     vdW  Elec       q    Type
REMARK                         _______ _______ _______ _____ _____    ______ ____
ROOT
ATOM      2  O   UNL     1      11.346   8.236  21.507  0.00  0.00    -0.336 OA
ATOM      6  N   UNL     1      12.815   9.713  22.328  0.00  0.00    -0.190 NA
ATOM      7  N   UNL     1      10.588   9.219  22.155  0.00  0.00    -0.056 NA
ATOM     14  C   UNL     1      12.646   8.603  21.656  0.00  0.00    +0.245 A 
ATOM     18  C   UNL     1      11.524  10.055  22.612  0.00  0.00    +0.207 A 
ENDROOT
BRANCH  18  21
ATOM      8  N   UNL     1      10.682  13.598  23.404  0.00  0.00    -0.221 NA
ATOM     21  C   UNL     1      11.205  11.238  23.358  0.00  0.00    +0.084 A 
ATOM     23  C   UNL     1      10.986  12.460  22.741  0.00  0.00    +0.226 A 
ATOM     24  C   UNL     1      11.105  11.181  24.744  0.00  0.00    +0.018 A 
ATOM     25  C   UNL     1      10.795  12.332  25.461  0.00  0.00    +0.021 A 
ATOM     26  C   UNL     1      10.593  13.504  24.749  0.00  0.00    +0.114 A 
BRANCH  23   3
ATOM      3  O   UNL     1      11.072  12.566  21.377  0.00  0.00    -0.474 OA
BRANCH   3  27
ATOM     27  C   UNL     1      11.586  13.787  20.862  0.00  0.00    +0.258 C 
BRANCH  27  28
ATOM     28  C   UNL     1      12.630  13.479  19.806  0.00  0.00    +0.200 C 
BRANCH  28   4
ATOM      4  O   UNL     1      13.918  13.806  20.315  0.00  0.00    -0.380 OA
ATOM     29  C   UNL     1      14.525  12.692  20.952  0.00  0.00    +0.194 C 
ENDBRANCH  28   4
ENDBRANCH  27  28
ENDBRANCH   3  27
ENDBRANCH  23   3
ENDBRANCH  18  21
BRANCH  14   9
ATOM      5  N   UNL     1      14.323   8.285  19.845  0.00  0.00    -0.287 NA
ATOM      9  C   UNL     1      13.681   7.690  21.034  0.00  0.00    +0.146 C 
ATOM     10  C   UNL     1      14.846   7.374  21.991  0.00  0.00    +0.030 C 
ATOM     11  C   UNL     1      16.104   7.768  21.230  0.00  0.00    +0.017 C 
ATOM     12  C   UNL     1      15.671   7.723  19.778  0.00  0.00    +0.085 C 
BRANCH   5  13
ATOM     13  C   UNL     1      13.573   8.063  18.615  0.00  0.00    +0.120 C 
BRANCH  13  15
ATOM      1 CL   UNL     1      14.641  12.352  14.534  0.00  0.00    -0.084 Cl
ATOM     15  C   UNL     1      13.839   9.136  17.594  0.00  0.00    -0.033 A 
ATOM     16  C   UNL     1      13.893  10.473  17.986  0.00  0.00    +0.006 A 
ATOM     17  C   UNL     1      14.033   8.792  16.256  0.00  0.00    +0.006 A 
ATOM     19  C   UNL     1      14.140  11.467  17.039  0.00  0.00    +0.020 A 
ATOM     20  C   UNL     1      14.279   9.786  15.310  0.00  0.00    +0.020 A 
ATOM     22  C   UNL     1      14.333  11.125  15.701  0.00  0.00    +0.041 A 
ENDBRANCH  13  15
ENDBRANCH   5  13
ENDBRANCH  14   9
TORSDOF 8
ENDMDL
