MODEL 1
REMARK VINA RESULT:      -6.9      0.000      0.000
REMARK  Name = 45361019
REMARK  8 active torsions:
REMARK  status: ('A' for Active; 'I' for Inactive)
REMARK    1  A    between atoms: N_4  and  C_19
REMARK    2  A    between atoms: N_5  and  C_17
REMARK    3  A    between atoms: N_9  and  C_25
REMARK    4  A    between atoms: C_14  and  C_18
REMARK    5  A    between atoms: C_17  and  C_21
REMARK    6  A    between atoms: C_18  and  C_20
REMARK    7  A    between atoms: C_20  and  C_22
REMARK    8  A    between atoms: C_25  and  C_26
REMARK                            x       y       z     vdW  Elec       q    Type
REMARK                         _______ _______ _______ _____ _____    ______ ____
ROOT
ATOM      2  O   UNL     1      -6.364 -10.156  20.214  0.00  0.00    -0.274 OA
ATOM      4  N   UNL     1      -5.710 -10.466  16.410  0.00  0.00    -0.296 NA
ATOM      5  N   UNL     1      -8.504 -10.888  18.736  0.00  0.00    -0.283 NA
ATOM      6  N   UNL     1      -4.857 -11.386  19.009  0.00  0.00    -0.312 N 
ATOM     10  C   UNL     1      -7.011 -11.035  16.828  0.00  0.00    +0.084 C 
ATOM     11  C   UNL     1      -7.200 -11.437  18.320  0.00  0.00    +0.161 C 
ATOM     12  C   UNL     1      -8.207 -10.093  16.596  0.00  0.00    +0.036 C 
ATOM     13  C   UNL     1      -9.272 -10.642  17.521  0.00  0.00    +0.087 C 
ATOM     14  C   UNL     1      -4.557 -11.398  16.549  0.00  0.00    +0.074 C 
ATOM     15  C   UNL     1      -6.128 -10.911  19.272  0.00  0.00    +0.232 C 
ATOM     16  C   UNL     1      -4.532 -12.209  17.860  0.00  0.00    +0.123 C 
ATOM     19  C   UNL     1      -5.783  -9.947  15.034  0.00  0.00    +0.105 C 
ATOM     30  H   UNL     1      -4.101 -11.092  19.619  0.00  0.00    +0.149 HD
ENDROOT
BRANCH   5  17
ATOM     17  C   UNL     1      -9.218 -11.744  19.674  0.00  0.00    +0.159 C 
BRANCH  17  21
ATOM      7  N   UNL     1     -10.793 -10.013  20.558  0.00  0.00    -0.347 N 
ATOM      8  N   UNL     1     -11.736 -11.837  19.714  0.00  0.00    -0.239 NA
ATOM     21  C   UNL     1     -10.597 -11.229  19.967  0.00  0.00    +0.121 A 
ATOM     23  C   UNL     1     -12.141  -9.833  20.691  0.00  0.00    +0.104 A 
ATOM     24  C   UNL     1     -12.701 -10.972  20.163  0.00  0.00    +0.130 A 
ATOM     31  H   UNL     1     -10.073  -9.363  20.848  0.00  0.00    +0.167 HD
ENDBRANCH  17  21
ENDBRANCH   5  17
BRANCH  14  18
ATOM     18  C   UNL     1      -3.224 -10.626  16.456  0.00  0.00    +0.029 C 
BRANCH  18  20
ATOM     20  C   UNL     1      -2.255 -11.339  15.530  0.00  0.00    +0.097 C 
BRANCH  20  22
ATOM      3  O   UNL     1      -1.013  -9.436  14.693  0.00  0.00    -0.276 OA
ATOM      9  N   UNL     1      -2.142 -10.797  13.191  0.00  0.00    -0.311 N 
ATOM     22  C   UNL     1      -1.723 -10.408  14.455  0.00  0.00    +0.213 C 
ATOM     32  H   UNL     1      -2.717 -11.628  13.086  0.00  0.00    +0.149 HD
BRANCH   9  25
ATOM     25  C   UNL     1      -1.770 -10.073  11.998  0.00  0.00    +0.146 C 
BRANCH  25  26
ATOM      1  S   UNL     1      -3.598 -11.679  10.658  0.00  0.00    -0.100 S 
ATOM     26  C   UNL     1      -2.815 -10.180  10.926  0.00  0.00    +0.007 A 
ATOM     27  C   UNL     1      -3.269  -9.200  10.071  0.00  0.00    +0.013 A 
ATOM     28  C   UNL     1      -4.272  -9.687   9.185  0.00  0.00    +0.008 A 
ATOM     29  C   UNL     1      -4.548 -11.019   9.396  0.00  0.00    +0.045 A 
ENDBRANCH  25  26
ENDBRANCH   9  25
ENDBRANCH  20  22
ENDBRANCH  18  20
ENDBRANCH  14  18
TORSDOF 7
ENDMDL
MODEL 2
REMARK VINA RESULT:      -6.6      2.725      8.387
REMARK  Name = 45361019
REMARK  8 active torsions:
REMARK  status: ('A' for Active; 'I' for Inactive)
REMARK    1  A    between atoms: N_4  and  C_19
REMARK    2  A    between atoms: N_5  and  C_17
REMARK    3  A    between atoms: N_9  and  C_25
REMARK    4  A    between atoms: C_14  and  C_18
REMARK    5  A    between atoms: C_17  and  C_21
REMARK    6  A    between atoms: C_18  and  C_20
REMARK    7  A    between atoms: C_20  and  C_22
REMARK    8  A    between atoms: C_25  and  C_26
REMARK                            x       y       z     vdW  Elec       q    Type
REMARK                         _______ _______ _______ _____ _____    ______ ____
ROOT
ATOM      2  O   UNL     1      -5.930  -9.639  13.196  0.00  0.00    -0.274 OA
ATOM      4  N   UNL     1      -3.135 -10.858  15.583  0.00  0.00    -0.296 NA
ATOM      5  N   UNL     1      -3.758 -10.690  11.981  0.00  0.00    -0.283 NA
ATOM      6  N   UNL     1      -5.932 -11.133  14.930  0.00  0.00    -0.312 N 
ATOM     10  C   UNL     1      -2.944 -11.300  14.184  0.00  0.00    +0.084 C 
ATOM     11  C   UNL     1      -4.181 -11.332  13.240  0.00  0.00    +0.161 C 
ATOM     12  C   UNL     1      -1.953 -10.433  13.385  0.00  0.00    +0.036 C 
ATOM     13  C   UNL     1      -2.301 -10.737  11.944  0.00  0.00    +0.087 C 
ATOM     14  C   UNL     1      -4.025 -11.737  16.391  0.00  0.00    +0.074 C 
ATOM     15  C   UNL     1      -5.413 -10.600  13.765  0.00  0.00    +0.232 C 
ATOM     16  C   UNL     1      -5.301 -12.210  15.668  0.00  0.00    +0.123 C 
ATOM     19  C   UNL     1      -1.839 -10.683  16.260  0.00  0.00    +0.105 C 
ATOM     30  H   UNL     1      -6.767 -10.706  15.321  0.00  0.00    +0.149 HD
ENDROOT
BRANCH   5  17
ATOM     17  C   UNL     1      -4.358 -11.291  10.797  0.00  0.00    +0.159 C 
BRANCH  17  21
ATOM      7  N   UNL     1      -5.295  -9.004  10.409  0.00  0.00    -0.347 N 
ATOM      8  N   UNL     1      -5.627 -10.475   8.779  0.00  0.00    -0.239 NA
ATOM     21  C   UNL     1      -5.098 -10.282   9.967  0.00  0.00    +0.121 A 
ATOM     23  C   UNL     1      -5.994  -8.339   9.442  0.00  0.00    +0.104 A 
ATOM     24  C   UNL     1      -6.187  -9.267   8.446  0.00  0.00    +0.130 A 
ATOM     31  H   UNL     1      -4.984  -8.619  11.292  0.00  0.00    +0.167 HD
ENDBRANCH  17  21
ENDBRANCH   5  17
BRANCH  14  18
ATOM     18  C   UNL     1      -4.464 -11.019  17.684  0.00  0.00    +0.029 C 
BRANCH  18  20
ATOM     20  C   UNL     1      -4.872 -12.025  18.745  0.00  0.00    +0.097 C 
BRANCH  20  22
ATOM      3  O   UNL     1      -6.126 -11.137  20.616  0.00  0.00    -0.276 OA
ATOM      9  N   UNL     1      -7.262 -11.771  18.694  0.00  0.00    -0.311 N 
ATOM     22  C   UNL     1      -6.129 -11.590  19.475  0.00  0.00    +0.213 C 
ATOM     32  H   UNL     1      -7.167 -12.138  17.751  0.00  0.00    +0.149 HD
BRANCH   9  25
ATOM     25  C   UNL     1      -8.585 -11.433  19.164  0.00  0.00    +0.146 C 
BRANCH  25  26
ATOM      1  S   UNL     1      -8.176  -9.380  17.336  0.00  0.00    -0.100 S 
ATOM     26  C   UNL     1      -9.166 -10.267  18.416  0.00  0.00    +0.007 A 
ATOM     27  C   UNL     1     -10.449  -9.769  18.469  0.00  0.00    +0.013 A 
ATOM     28  C   UNL     1     -10.621  -8.645  17.611  0.00  0.00    +0.008 A 
ATOM     29  C   UNL     1      -9.465  -8.327  16.935  0.00  0.00    +0.045 A 
ENDBRANCH  25  26
ENDBRANCH   9  25
ENDBRANCH  20  22
ENDBRANCH  18  20
ENDBRANCH  14  18
TORSDOF 7
ENDMDL
MODEL 3
REMARK VINA RESULT:      -6.5     27.607     30.319
REMARK  Name = 45361019
REMARK  8 active torsions:
REMARK  status: ('A' for Active; 'I' for Inactive)
REMARK    1  A    between atoms: N_4  and  C_19
REMARK    2  A    between atoms: N_5  and  C_17
REMARK    3  A    between atoms: N_9  and  C_25
REMARK    4  A    between atoms: C_14  and  C_18
REMARK    5  A    between atoms: C_17  and  C_21
REMARK    6  A    between atoms: C_18  and  C_20
REMARK    7  A    between atoms: C_20  and  C_22
REMARK    8  A    between atoms: C_25  and  C_26
REMARK                            x       y       z     vdW  Elec       q    Type
REMARK                         _______ _______ _______ _____ _____    ______ ____
ROOT
ATOM      2  O   UNL     1      13.470   7.384  21.973  0.00  0.00    -0.274 OA
ATOM      4  N   UNL     1      17.079   8.400  21.006  0.00  0.00    -0.296 NA
ATOM      5  N   UNL     1      13.707   9.806  20.801  0.00  0.00    -0.283 NA
ATOM      6  N   UNL     1      15.054   6.373  20.667  0.00  0.00    -0.312 N 
ATOM     10  C   UNL     1      16.046   9.283  20.421  0.00  0.00    +0.084 C 
ATOM     11  C   UNL     1      14.593   8.741  20.293  0.00  0.00    +0.161 C 
ATOM     12  C   UNL     1      15.832  10.595  21.200  0.00  0.00    +0.036 C 
ATOM     13  C   UNL     1      14.461  11.052  20.749  0.00  0.00    +0.087 C 
ATOM     14  C   UNL     1      17.357   7.169  20.216  0.00  0.00    +0.074 C 
ATOM     15  C   UNL     1      14.309   7.462  21.076  0.00  0.00    +0.232 C 
ATOM     16  C   UNL     1      16.106   6.451  19.672  0.00  0.00    +0.123 C 
ATOM     19  C   UNL     1      18.328   9.142  21.249  0.00  0.00    +0.105 C 
ATOM     30  H   UNL     1      14.898   5.484  21.132  0.00  0.00    +0.149 HD
ENDROOT
BRANCH   5  17
ATOM     17  C   UNL     1      12.444   9.898  20.081  0.00  0.00    +0.159 C 
BRANCH  17  21
ATOM      7  N   UNL     1      13.064  10.588  17.757  0.00  0.00    -0.347 N 
ATOM      8  N   UNL     1      12.362   8.494  17.990  0.00  0.00    -0.239 NA
ATOM     21  C   UNL     1      12.611   9.624  18.614  0.00  0.00    +0.121 A 
ATOM     23  C   UNL     1      13.105  10.039  16.507  0.00  0.00    +0.104 A 
ATOM     24  C   UNL     1      12.667   8.746  16.676  0.00  0.00    +0.130 A 
ATOM     31  H   UNL     1      13.318  11.537  18.001  0.00  0.00    +0.167 HD
ENDBRANCH  17  21
ENDBRANCH   5  17
BRANCH  14  18
ATOM     18  C   UNL     1      18.145   6.149  21.065  0.00  0.00    +0.029 C 
BRANCH  18  20
ATOM     20  C   UNL     1      19.196   5.448  20.222  0.00  0.00    +0.097 C 
BRANCH  20  22
ATOM      3  O   UNL     1      20.813   6.247  21.837  0.00  0.00    -0.276 OA
ATOM      9  N   UNL     1      21.539   4.936  20.065  0.00  0.00    -0.311 N 
ATOM     22  C   UNL     1      20.584   5.604  20.817  0.00  0.00    +0.213 C 
ATOM     32  H   UNL     1      21.254   4.413  19.241  0.00  0.00    +0.149 HD
BRANCH   9  25
ATOM     25  C   UNL     1      22.938   4.932  20.422  0.00  0.00    +0.146 C 
BRANCH  25  26
ATOM      1  S   UNL     1      23.113   3.457  22.770  0.00  0.00    -0.100 S 
ATOM     26  C   UNL     1      23.346   3.648  21.084  0.00  0.00    +0.007 A 
ATOM     27  C   UNL     1      23.916   2.532  20.511  0.00  0.00    +0.013 A 
ATOM     28  C   UNL     1      24.163   1.507  21.469  0.00  0.00    +0.008 A 
ATOM     29  C   UNL     1      23.773   1.878  22.737  0.00  0.00    +0.045 A 
ENDBRANCH  25  26
ENDBRANCH   9  25
ENDBRANCH  20  22
ENDBRANCH  18  20
ENDBRANCH  14  18
TORSDOF 7
ENDMDL
MODEL 4
REMARK VINA RESULT:      -6.5     27.537     30.413
REMARK  Name = 45361019
REMARK  8 active torsions:
REMARK  status: ('A' for Active; 'I' for Inactive)
REMARK    1  A    between atoms: N_4  and  C_19
REMARK    2  A    between atoms: N_5  and  C_17
REMARK    3  A    between atoms: N_9  and  C_25
REMARK    4  A    between atoms: C_14  and  C_18
REMARK    5  A    between atoms: C_17  and  C_21
REMARK    6  A    between atoms: C_18  and  C_20
REMARK    7  A    between atoms: C_20  and  C_22
REMARK    8  A    between atoms: C_25  and  C_26
REMARK                            x       y       z     vdW  Elec       q    Type
REMARK                         _______ _______ _______ _____ _____    ______ ____
ROOT
ATOM      2  O   UNL     1      14.519   7.300  22.357  0.00  0.00    -0.274 OA
ATOM      4  N   UNL     1      17.717   9.116  21.147  0.00  0.00    -0.296 NA
ATOM      5  N   UNL     1      14.188   8.899  20.206  0.00  0.00    -0.283 NA
ATOM      6  N   UNL     1      16.577   6.528  21.719  0.00  0.00    -0.312 N 
ATOM     10  C   UNL     1      16.595   9.205  20.186  0.00  0.00    +0.084 C 
ATOM     11  C   UNL     1      15.456   8.149  20.277  0.00  0.00    +0.161 C 
ATOM     12  C   UNL     1      15.812  10.529  20.262  0.00  0.00    +0.036 C 
ATOM     13  C   UNL     1      14.489  10.194  19.607  0.00  0.00    +0.087 C 
ATOM     14  C   UNL     1      18.535   7.878  21.026  0.00  0.00    +0.074 C 
ATOM     15  C   UNL     1      15.450   7.312  21.554  0.00  0.00    +0.232 C 
ATOM     16  C   UNL     1      17.725   6.581  20.835  0.00  0.00    +0.123 C 
ATOM     19  C   UNL     1      18.579  10.307  21.059  0.00  0.00    +0.105 C 
ATOM     30  H   UNL     1      16.627   5.930  22.538  0.00  0.00    +0.149 HD
ENDROOT
BRANCH   5  17
ATOM     17  C   UNL     1      13.138   8.191  19.484  0.00  0.00    +0.159 C 
BRANCH  17  21
ATOM      7  N   UNL     1      12.079   6.221  20.605  0.00  0.00    -0.347 N 
ATOM      8  N   UNL     1      11.228   8.205  21.128  0.00  0.00    -0.239 NA
ATOM     21  C   UNL     1      12.135   7.573  20.414  0.00  0.00    +0.121 A 
ATOM     23  C   UNL     1      11.073   5.973  21.495  0.00  0.00    +0.104 A 
ATOM     24  C   UNL     1      10.563   7.213  21.803  0.00  0.00    +0.130 A 
ATOM     31  H   UNL     1      12.670   5.528  20.165  0.00  0.00    +0.167 HD
ENDBRANCH  17  21
ENDBRANCH   5  17
BRANCH  14  18
ATOM     18  C   UNL     1      19.422   7.692  22.275  0.00  0.00    +0.029 C 
BRANCH  18  20
ATOM     20  C   UNL     1      20.815   7.233  21.881  0.00  0.00    +0.097 C 
BRANCH  20  22
ATOM      3  O   UNL     1      21.148   5.726  23.746  0.00  0.00    -0.276 OA
ATOM      9  N   UNL     1      21.525   4.955  21.589  0.00  0.00    -0.311 N 
ATOM     22  C   UNL     1      21.172   5.909  22.532  0.00  0.00    +0.213 C 
ATOM     32  H   UNL     1      21.500   5.193  20.602  0.00  0.00    +0.149 HD
BRANCH   9  25
ATOM     25  C   UNL     1      21.908   3.612  21.957  0.00  0.00    +0.146 C 
BRANCH  25  26
ATOM      1  S   UNL     1      23.869   1.940  20.919  0.00  0.00    -0.100 S 
ATOM     26  C   UNL     1      23.371   3.363  21.731  0.00  0.00    +0.007 A 
ATOM     27  C   UNL     1      24.440   4.150  22.099  0.00  0.00    +0.013 A 
ATOM     28  C   UNL     1      25.685   3.576  21.709  0.00  0.00    +0.008 A 
ATOM     29  C   UNL     1      25.519   2.374  21.058  0.00  0.00    +0.045 A 
ENDBRANCH  25  26
ENDBRANCH   9  25
ENDBRANCH  20  22
ENDBRANCH  18  20
ENDBRANCH  14  18
TORSDOF 7
ENDMDL
MODEL 5
REMARK VINA RESULT:      -6.4      2.601      3.347
REMARK  Name = 45361019
REMARK  8 active torsions:
REMARK  status: ('A' for Active; 'I' for Inactive)
REMARK    1  A    between atoms: N_4  and  C_19
REMARK    2  A    between atoms: N_5  and  C_17
REMARK    3  A    between atoms: N_9  and  C_25
REMARK    4  A    between atoms: C_14  and  C_18
REMARK    5  A    between atoms: C_17  and  C_21
REMARK    6  A    between atoms: C_18  and  C_20
REMARK    7  A    between atoms: C_20  and  C_22
REMARK    8  A    between atoms: C_25  and  C_26
REMARK                            x       y       z     vdW  Elec       q    Type
REMARK                         _______ _______ _______ _____ _____    ______ ____
ROOT
ATOM      2  O   UNL     1      -8.355  -9.738  14.894  0.00  0.00    -0.274 OA
ATOM      4  N   UNL     1      -6.331 -11.448  17.717  0.00  0.00    -0.296 NA
ATOM      5  N   UNL     1      -9.394  -9.477  17.373  0.00  0.00    -0.283 NA
ATOM      6  N   UNL     1      -6.178  -9.531  15.566  0.00  0.00    -0.312 N 
ATOM     10  C   UNL     1      -7.383 -10.538  18.221  0.00  0.00    +0.084 C 
ATOM     11  C   UNL     1      -7.924  -9.431  17.270  0.00  0.00    +0.161 C 
ATOM     12  C   UNL     1      -8.677 -11.256  18.646  0.00  0.00    +0.036 C 
ATOM     13  C   UNL     1      -9.715 -10.154  18.625  0.00  0.00    +0.087 C 
ATOM     14  C   UNL     1      -5.044 -10.777  17.383  0.00  0.00    +0.074 C 
ATOM     15  C   UNL     1      -7.538  -9.594  15.802  0.00  0.00    +0.232 C 
ATOM     16  C   UNL     1      -5.186  -9.445  16.620  0.00  0.00    +0.123 C 
ATOM     19  C   UNL     1      -6.098 -12.555  18.660  0.00  0.00    +0.105 C 
ATOM     30  H   UNL     1      -5.854  -9.610  14.606  0.00  0.00    +0.149 HD
ENDROOT
BRANCH   5  17
ATOM     17  C   UNL     1     -10.021  -8.165  17.283  0.00  0.00    +0.159 C 
BRANCH  17  21
ATOM      7  N   UNL     1     -10.882  -8.004  14.939  0.00  0.00    -0.347 N 
ATOM      8  N   UNL     1     -12.422  -8.241  16.521  0.00  0.00    -0.239 NA
ATOM     21  C   UNL     1     -11.134  -8.141  16.276  0.00  0.00    +0.121 A 
ATOM     23  C   UNL     1     -12.085  -8.017  14.291  0.00  0.00    +0.104 A 
ATOM     24  C   UNL     1     -13.020  -8.164  15.289  0.00  0.00    +0.130 A 
ATOM     31  H   UNL     1      -9.972  -7.906  14.506  0.00  0.00    +0.167 HD
ENDBRANCH  17  21
ENDBRANCH   5  17
BRANCH  14  18
ATOM     18  C   UNL     1      -4.155 -11.707  16.531  0.00  0.00    +0.029 C 
BRANCH  18  20
ATOM     20  C   UNL     1      -2.900 -10.982  16.077  0.00  0.00    +0.097 C 
BRANCH  20  22
ATOM      3  O   UNL     1      -2.149 -12.608  14.448  0.00  0.00    -0.276 OA
ATOM      9  N   UNL     1      -2.430 -10.400  13.792  0.00  0.00    -0.311 N 
ATOM     22  C   UNL     1      -2.452 -11.447  14.703  0.00  0.00    +0.213 C 
ATOM     32  H   UNL     1      -2.714  -9.471  14.090  0.00  0.00    +0.149 HD
BRANCH   9  25
ATOM     25  C   UNL     1      -2.037 -10.584  12.415  0.00  0.00    +0.146 C 
BRANCH  25  26
ATOM      1  S   UNL     1      -4.710 -10.144  11.796  0.00  0.00    -0.100 S 
ATOM     26  C   UNL     1      -3.037  -9.995  11.462  0.00  0.00    +0.007 A 
ATOM     27  C   UNL     1      -2.802  -9.314  10.288  0.00  0.00    +0.013 A 
ATOM     28  C   UNL     1      -4.012  -8.908   9.655  0.00  0.00    +0.008 A 
ATOM     29  C   UNL     1      -5.125  -9.295  10.369  0.00  0.00    +0.045 A 
ENDBRANCH  25  26
ENDBRANCH   9  25
ENDBRANCH  20  22
ENDBRANCH  18  20
ENDBRANCH  14  18
TORSDOF 7
ENDMDL
MODEL 6
REMARK VINA RESULT:      -6.3      4.959      9.647
REMARK  Name = 45361019
REMARK  8 active torsions:
REMARK  status: ('A' for Active; 'I' for Inactive)
REMARK    1  A    between atoms: N_4  and  C_19
REMARK    2  A    between atoms: N_5  and  C_17
REMARK    3  A    between atoms: N_9  and  C_25
REMARK    4  A    between atoms: C_14  and  C_18
REMARK    5  A    between atoms: C_17  and  C_21
REMARK    6  A    between atoms: C_18  and  C_20
REMARK    7  A    between atoms: C_20  and  C_22
REMARK    8  A    between atoms: C_25  and  C_26
REMARK                            x       y       z     vdW  Elec       q    Type
REMARK                         _______ _______ _______ _____ _____    ______ ____
ROOT
ATOM      2  O   UNL     1      -6.051  -9.632   7.265  0.00  0.00    -0.274 OA
ATOM      4  N   UNL     1      -6.566  -9.925  11.091  0.00  0.00    -0.296 NA
ATOM      5  N   UNL     1      -8.097  -8.179   8.264  0.00  0.00    -0.283 NA
ATOM      6  N   UNL     1      -4.653  -9.256   9.037  0.00  0.00    -0.312 N 
ATOM     10  C   UNL     1      -7.347  -8.828  10.479  0.00  0.00    +0.084 C 
ATOM     11  C   UNL     1      -6.886  -8.269   9.101  0.00  0.00    +0.161 C 
ATOM     12  C   UNL     1      -8.818  -9.188  10.203  0.00  0.00    +0.036 C 
ATOM     13  C   UNL     1      -9.242  -8.169   9.167  0.00  0.00    +0.087 C 
ATOM     14  C   UNL     1      -5.165  -9.563  11.442  0.00  0.00    +0.074 C 
ATOM     15  C   UNL     1      -5.855  -9.124   8.369  0.00  0.00    +0.232 C 
ATOM     16  C   UNL     1      -4.420  -8.740  10.372  0.00  0.00    +0.123 C 
ATOM     19  C   UNL     1      -7.261 -10.470  12.269  0.00  0.00    +0.105 C 
ATOM     30  H   UNL     1      -3.915  -9.795   8.594  0.00  0.00    +0.149 HD
ENDROOT
BRANCH   5  17
ATOM     17  C   UNL     1      -8.094  -7.030   7.368  0.00  0.00    +0.159 C 
BRANCH  17  21
ATOM      7  N   UNL     1      -7.269  -7.772   5.125  0.00  0.00    -0.347 N 
ATOM      8  N   UNL     1      -9.466  -7.507   5.308  0.00  0.00    -0.239 NA
ATOM     21  C   UNL     1      -8.314  -7.432   5.938  0.00  0.00    +0.121 A 
ATOM     23  C   UNL     1      -7.787  -8.083   3.900  0.00  0.00    +0.104 A 
ATOM     24  C   UNL     1      -9.144  -7.912   4.038  0.00  0.00    +0.130 A 
ATOM     31  H   UNL     1      -6.290  -7.788   5.381  0.00  0.00    +0.167 HD
ENDBRANCH  17  21
ENDBRANCH   5  17
BRANCH  14  18
ATOM     18  C   UNL     1      -4.331 -10.833  11.715  0.00  0.00    +0.029 C 
BRANCH  18  20
ATOM     20  C   UNL     1      -2.861 -10.486  11.875  0.00  0.00    +0.097 C 
BRANCH  20  22
ATOM      3  O   UNL     1      -1.490  -9.859  13.769  0.00  0.00    -0.276 OA
ATOM      9  N   UNL     1      -3.249 -11.339  14.088  0.00  0.00    -0.311 N 
ATOM     22  C   UNL     1      -2.437 -10.506  13.332  0.00  0.00    +0.213 C 
ATOM     32  H   UNL     1      -4.023 -11.824  13.643  0.00  0.00    +0.149 HD
BRANCH   9  25
ATOM     25  C   UNL     1      -3.050 -11.530  15.506  0.00  0.00    +0.146 C 
BRANCH  25  26
ATOM      1  S   UNL     1      -5.472 -10.169  15.527  0.00  0.00    -0.100 S 
ATOM     26  C   UNL     1      -4.218 -11.034  16.309  0.00  0.00    +0.007 A 
ATOM     27  C   UNL     1      -4.449 -11.174  17.660  0.00  0.00    +0.013 A 
ATOM     28  C   UNL     1      -5.673 -10.563  18.058  0.00  0.00    +0.008 A 
ATOM     29  C   UNL     1      -6.330  -9.980  16.997  0.00  0.00    +0.045 A 
ENDBRANCH  25  26
ENDBRANCH   9  25
ENDBRANCH  20  22
ENDBRANCH  18  20
ENDBRANCH  14  18
TORSDOF 7
ENDMDL
MODEL 7
REMARK VINA RESULT:      -6.2      3.498      5.113
REMARK  Name = 45361019
REMARK  8 active torsions:
REMARK  status: ('A' for Active; 'I' for Inactive)
REMARK    1  A    between atoms: N_4  and  C_19
REMARK    2  A    between atoms: N_5  and  C_17
REMARK    3  A    between atoms: N_9  and  C_25
REMARK    4  A    between atoms: C_14  and  C_18
REMARK    5  A    between atoms: C_17  and  C_21
REMARK    6  A    between atoms: C_18  and  C_20
REMARK    7  A    between atoms: C_20  and  C_22
REMARK    8  A    between atoms: C_25  and  C_26
REMARK                            x       y       z     vdW  Elec       q    Type
REMARK                         _______ _______ _______ _____ _____    ______ ____
ROOT
ATOM      2  O   UNL     1      -9.146  -9.149  14.626  0.00  0.00    -0.274 OA
ATOM      4  N   UNL     1      -8.691 -11.118  17.929  0.00  0.00    -0.296 NA
ATOM      5  N   UNL     1     -10.815  -8.437  16.628  0.00  0.00    -0.283 NA
ATOM      6  N   UNL     1      -7.333  -9.476  15.983  0.00  0.00    -0.312 N 
ATOM     10  C   UNL     1      -9.557  -9.927  18.073  0.00  0.00    +0.084 C 
ATOM     11  C   UNL     1      -9.436  -8.790  17.017  0.00  0.00    +0.161 C 
ATOM     12  C   UNL     1     -11.064 -10.242  18.034  0.00  0.00    +0.036 C 
ATOM     13  C   UNL     1     -11.694  -8.909  17.691  0.00  0.00    +0.087 C 
ATOM     14  C   UNL     1      -7.233 -10.838  18.050  0.00  0.00    +0.074 C 
ATOM     15  C   UNL     1      -8.658  -9.159  15.756  0.00  0.00    +0.232 C 
ATOM     16  C   UNL     1      -6.750  -9.577  17.307  0.00  0.00    +0.123 C 
ATOM     19  C   UNL     1      -9.088 -12.173  18.876  0.00  0.00    +0.105 C 
ATOM     30  H   UNL     1      -6.752  -9.710  15.183  0.00  0.00    +0.149 HD
ENDROOT
BRANCH   5  17
ATOM     17  C   UNL     1     -10.992  -7.016  16.358  0.00  0.00    +0.159 C 
BRANCH  17  21
ATOM      7  N   UNL     1     -11.796  -7.779  14.115  0.00  0.00    -0.347 N 
ATOM      8  N   UNL     1     -12.127  -5.634  14.583  0.00  0.00    -0.239 NA
ATOM     21  C   UNL     1     -11.644  -6.773  15.028  0.00  0.00    +0.121 A 
ATOM     23  C   UNL     1     -12.415  -7.249  13.019  0.00  0.00    +0.104 A 
ATOM     24  C   UNL     1     -12.609  -5.924  13.332  0.00  0.00    +0.130 A 
ATOM     31  H   UNL     1     -11.502  -8.741  14.227  0.00  0.00    +0.167 HD
ENDBRANCH  17  21
ENDBRANCH   5  17
BRANCH  14  18
ATOM     18  C   UNL     1      -6.409 -12.032  17.524  0.00  0.00    +0.029 C 
BRANCH  18  20
ATOM     20  C   UNL     1      -5.446 -12.530  18.587  0.00  0.00    +0.097 C 
BRANCH  20  22
ATOM      3  O   UNL     1      -3.229 -11.855  19.285  0.00  0.00    -0.276 OA
ATOM      9  N   UNL     1      -3.829 -11.626  17.055  0.00  0.00    -0.311 N 
ATOM     22  C   UNL     1      -4.049 -11.975  18.380  0.00  0.00    +0.213 C 
ATOM     32  H   UNL     1      -4.563 -11.776  16.369  0.00  0.00    +0.149 HD
BRANCH   9  25
ATOM     25  C   UNL     1      -2.574 -11.072  16.601  0.00  0.00    +0.146 C 
BRANCH  25  26
ATOM      1  S   UNL     1      -2.799 -12.707  14.366  0.00  0.00    -0.100 S 
ATOM     26  C   UNL     1      -2.398 -11.222  15.118  0.00  0.00    +0.007 A 
ATOM     27  C   UNL     1      -1.933 -10.293  14.213  0.00  0.00    +0.013 A 
ATOM     28  C   UNL     1      -1.907 -10.808  12.885  0.00  0.00    +0.008 A 
ATOM     29  C   UNL     1      -2.353 -12.110  12.825  0.00  0.00    +0.045 A 
ENDBRANCH  25  26
ENDBRANCH   9  25
ENDBRANCH  20  22
ENDBRANCH  18  20
ENDBRANCH  14  18
TORSDOF 7
ENDMDL
MODEL 8
REMARK VINA RESULT:      -6.1      3.488      8.369
REMARK  Name = 45361019
REMARK  8 active torsions:
REMARK  status: ('A' for Active; 'I' for Inactive)
REMARK    1  A    between atoms: N_4  and  C_19
REMARK    2  A    between atoms: N_5  and  C_17
REMARK    3  A    between atoms: N_9  and  C_25
REMARK    4  A    between atoms: C_14  and  C_18
REMARK    5  A    between atoms: C_17  and  C_21
REMARK    6  A    between atoms: C_18  and  C_20
REMARK    7  A    between atoms: C_20  and  C_22
REMARK    8  A    between atoms: C_25  and  C_26
REMARK                            x       y       z     vdW  Elec       q    Type
REMARK                         _______ _______ _______ _____ _____    ______ ____
ROOT
ATOM      2  O   UNL     1      -6.512  -8.788  12.256  0.00  0.00    -0.274 OA
ATOM      4  N   UNL     1      -3.239 -10.327  13.639  0.00  0.00    -0.296 NA
ATOM      5  N   UNL     1      -4.939  -9.986  10.416  0.00  0.00    -0.283 NA
ATOM      6  N   UNL     1      -6.113 -10.331  13.897  0.00  0.00    -0.312 N 
ATOM     10  C   UNL     1      -3.537 -10.739  12.250  0.00  0.00    +0.084 C 
ATOM     11  C   UNL     1      -5.005 -10.629  11.742  0.00  0.00    +0.161 C 
ATOM     12  C   UNL     1      -2.769  -9.937  11.182  0.00  0.00    +0.036 C 
ATOM     13  C   UNL     1      -3.578 -10.161   9.923  0.00  0.00    +0.087 C 
ATOM     14  C   UNL     1      -3.910 -11.149  14.683  0.00  0.00    +0.074 C 
ATOM     15  C   UNL     1      -5.937  -9.808  12.630  0.00  0.00    +0.232 C 
ATOM     16  C   UNL     1      -5.388 -11.483  14.396  0.00  0.00    +0.123 C 
ATOM     19  C   UNL     1      -1.786 -10.290  13.875  0.00  0.00    +0.105 C 
ATOM     30  H   UNL     1      -6.739  -9.845  14.533  0.00  0.00    +0.149 HD
ENDROOT
BRANCH   5  17
ATOM     17  C   UNL     1      -5.932 -10.493   9.479  0.00  0.00    +0.159 C 
BRANCH  17  21
ATOM      7  N   UNL     1      -6.489  -8.076   9.149  0.00  0.00    -0.347 N 
ATOM      8  N   UNL     1      -7.778  -9.522   8.064  0.00  0.00    -0.239 NA
ATOM     21  C   UNL     1      -6.754  -9.389   8.879  0.00  0.00    +0.121 A 
ATOM     23  C   UNL     1      -7.400  -7.323   8.465  0.00  0.00    +0.104 A 
ATOM     24  C   UNL     1      -8.185  -8.238   7.802  0.00  0.00    +0.130 A 
ATOM     31  H   UNL     1      -5.754  -7.723   9.750  0.00  0.00    +0.167 HD
ENDBRANCH  17  21
ENDBRANCH   5  17
BRANCH  14  18
ATOM     18  C   UNL     1      -3.853 -10.438  16.051  0.00  0.00    +0.029 C 
BRANCH  18  20
ATOM     20  C   UNL     1      -3.486 -11.418  17.151  0.00  0.00    +0.097 C 
BRANCH  20  22
ATOM      3  O   UNL     1      -4.373 -12.022  19.321  0.00  0.00    -0.276 OA
ATOM      9  N   UNL     1      -5.660 -10.715  17.899  0.00  0.00    -0.311 N 
ATOM     22  C   UNL     1      -4.529 -11.436  18.254  0.00  0.00    +0.213 C 
ATOM     32  H   UNL     1      -5.694 -10.248  16.998  0.00  0.00    +0.149 HD
BRANCH   9  25
ATOM     25  C   UNL     1      -6.797 -10.582  18.779  0.00  0.00    +0.146 C 
BRANCH  25  26
ATOM      1  S   UNL     1      -9.562 -10.340  18.646  0.00  0.00    -0.100 S 
ATOM     26  C   UNL     1      -7.985  -9.990  18.077  0.00  0.00    +0.007 A 
ATOM     27  C   UNL     1      -8.004  -9.162  16.977  0.00  0.00    +0.013 A 
ATOM     28  C   UNL     1      -9.331  -8.809  16.597  0.00  0.00    +0.008 A 
ATOM     29  C   UNL     1     -10.275  -9.380  17.421  0.00  0.00    +0.045 A 
ENDBRANCH  25  26
ENDBRANCH   9  25
ENDBRANCH  20  22
ENDBRANCH  18  20
ENDBRANCH  14  18
TORSDOF 7
ENDMDL
MODEL 9
REMARK VINA RESULT:      -6.1     26.073     30.152
REMARK  Name = 45361019
REMARK  8 active torsions:
REMARK  status: ('A' for Active; 'I' for Inactive)
REMARK    1  A    between atoms: N_4  and  C_19
REMARK    2  A    between atoms: N_5  and  C_17
REMARK    3  A    between atoms: N_9  and  C_25
REMARK    4  A    between atoms: C_14  and  C_18
REMARK    5  A    between atoms: C_17  and  C_21
REMARK    6  A    between atoms: C_18  and  C_20
REMARK    7  A    between atoms: C_20  and  C_22
REMARK    8  A    between atoms: C_25  and  C_26
REMARK                            x       y       z     vdW  Elec       q    Type
REMARK                         _______ _______ _______ _____ _____    ______ ____
ROOT
ATOM      2  O   UNL     1      13.059   6.196   7.731  0.00  0.00    -0.274 OA
ATOM      4  N   UNL     1      14.237   9.722   6.652  0.00  0.00    -0.296 NA
ATOM      5  N   UNL     1      11.084   7.998   7.345  0.00  0.00    -0.283 NA
ATOM      6  N   UNL     1      14.338   6.919   5.977  0.00  0.00    -0.312 N 
ATOM     10  C   UNL     1      12.777   9.526   6.513  0.00  0.00    +0.084 C 
ATOM     11  C   UNL     1      12.230   8.071   6.419  0.00  0.00    +0.161 C 
ATOM     12  C   UNL     1      11.955  10.103   7.680  0.00  0.00    +0.036 C 
ATOM     13  C   UNL     1      10.636   9.366   7.581  0.00  0.00    +0.087 C 
ATOM     14  C   UNL     1      15.037   9.246   5.491  0.00  0.00    +0.074 C 
ATOM     15  C   UNL     1      13.228   6.980   6.799  0.00  0.00    +0.232 C 
ATOM     16  C   UNL     1      14.607   7.878   4.923  0.00  0.00    +0.123 C 
ATOM     19  C   UNL     1      14.551  11.132   6.943  0.00  0.00    +0.105 C 
ATOM     30  H   UNL     1      15.031   6.200   6.161  0.00  0.00    +0.149 HD
ENDROOT
BRANCH   5  17
ATOM     17  C   UNL     1      10.008   7.143   6.864  0.00  0.00    +0.159 C 
BRANCH  17  21
ATOM      7  N   UNL     1      10.199   4.752   7.576  0.00  0.00    -0.347 N 
ATOM      8  N   UNL     1       9.022   6.070   8.921  0.00  0.00    -0.239 NA
ATOM     21  C   UNL     1       9.723   6.012   7.810  0.00  0.00    +0.121 A 
ATOM     23  C   UNL     1       9.775   3.956   8.602  0.00  0.00    +0.104 A 
ATOM     24  C   UNL     1       9.050   4.792   9.419  0.00  0.00    +0.130 A 
ATOM     31  H   UNL     1      10.761   4.459   6.787  0.00  0.00    +0.167 HD
ENDBRANCH  17  21
ENDBRANCH   5  17
BRANCH  14  18
ATOM     18  C   UNL     1      16.530   9.142   5.869  0.00  0.00    +0.029 C 
BRANCH  18  20
ATOM     20  C   UNL     1      17.377  10.007   4.952  0.00  0.00    +0.097 C 
BRANCH  20  22
ATOM      3  O   UNL     1      19.693  10.702   4.848  0.00  0.00    -0.276 OA
ATOM      9  N   UNL     1      19.084   9.022   6.329  0.00  0.00    -0.311 N 
ATOM     22  C   UNL     1      18.842   9.973   5.348  0.00  0.00    +0.213 C 
ATOM     32  H   UNL     1      18.311   8.473   6.696  0.00  0.00    +0.149 HD
BRANCH   9  25
ATOM     25  C   UNL     1      20.401   8.795   6.874  0.00  0.00    +0.146 C 
BRANCH  25  26
ATOM      1  S   UNL     1      22.809   8.888   5.491  0.00  0.00    -0.100 S 
ATOM     26  C   UNL     1      21.317   8.143   5.879  0.00  0.00    +0.007 A 
ATOM     27  C   UNL     1      21.130   6.968   5.185  0.00  0.00    +0.013 A 
ATOM     28  C   UNL     1      22.227   6.675   4.324  0.00  0.00    +0.008 A 
ATOM     29  C   UNL     1      23.210   7.637   4.393  0.00  0.00    +0.045 A 
ENDBRANCH  25  26
ENDBRANCH   9  25
ENDBRANCH  20  22
ENDBRANCH  18  20
ENDBRANCH  14  18
TORSDOF 7
ENDMDL
MODEL 10
REMARK VINA RESULT:      -6.0     19.303     21.513
REMARK  Name = 45361019
REMARK  8 active torsions:
REMARK  status: ('A' for Active; 'I' for Inactive)
REMARK    1  A    between atoms: N_4  and  C_19
REMARK    2  A    between atoms: N_5  and  C_17
REMARK    3  A    between atoms: N_9  and  C_25
REMARK    4  A    between atoms: C_14  and  C_18
REMARK    5  A    between atoms: C_17  and  C_21
REMARK    6  A    between atoms: C_18  and  C_20
REMARK    7  A    between atoms: C_20  and  C_22
REMARK    8  A    between atoms: C_25  and  C_26
REMARK                            x       y       z     vdW  Elec       q    Type
REMARK                         _______ _______ _______ _____ _____    ______ ____
ROOT
ATOM      2  O   UNL     1     -13.508   5.053  22.236  0.00  0.00    -0.274 OA
ATOM      4  N   UNL     1     -17.126   3.703  22.512  0.00  0.00    -0.296 NA
ATOM      5  N   UNL     1     -15.311   6.265  20.631  0.00  0.00    -0.283 NA
ATOM      6  N   UNL     1     -14.935   4.832  24.011  0.00  0.00    -0.312 N 
ATOM     10  C   UNL     1     -17.031   4.969  21.752  0.00  0.00    +0.084 C 
ATOM     11  C   UNL     1     -15.784   5.875  21.973  0.00  0.00    +0.161 C 
ATOM     12  C   UNL     1     -17.023   4.781  20.223  0.00  0.00    +0.036 C 
ATOM     13  C   UNL     1     -16.427   6.075  19.712  0.00  0.00    +0.087 C 
ATOM     14  C   UNL     1     -17.220   3.876  23.988  0.00  0.00    +0.074 C 
ATOM     15  C   UNL     1     -14.628   5.213  22.719  0.00  0.00    +0.232 C 
ATOM     16  C   UNL     1     -16.265   4.931  24.580  0.00  0.00    +0.123 C 
ATOM     19  C   UNL     1     -18.245   2.881  22.022  0.00  0.00    +0.105 C 
ATOM     30  H   UNL     1     -14.203   4.405  24.571  0.00  0.00    +0.149 HD
ENDROOT
BRANCH   5  17
ATOM     17  C   UNL     1     -14.780   7.620  20.578  0.00  0.00    +0.159 C 
BRANCH  17  21
ATOM      7  N   UNL     1     -12.293   7.560  20.847  0.00  0.00    -0.347 N 
ATOM      8  N   UNL     1     -13.035   7.776  18.765  0.00  0.00    -0.239 NA
ATOM     21  C   UNL     1     -13.383   7.655  20.028  0.00  0.00    +0.121 A 
ATOM     23  C   UNL     1     -11.179   7.624  20.058  0.00  0.00    +0.104 A 
ATOM     24  C   UNL     1     -11.663   7.757  18.778  0.00  0.00    +0.130 A 
ATOM     31  H   UNL     1     -12.305   7.464  21.855  0.00  0.00    +0.167 HD
ENDBRANCH  17  21
ENDBRANCH   5  17
BRANCH  14  18
ATOM     18  C   UNL     1     -16.939   2.540  24.707  0.00  0.00    +0.029 C 
BRANCH  18  20
ATOM     20  C   UNL     1     -17.975   2.284  25.787  0.00  0.00    +0.097 C 
BRANCH  20  22
ATOM      3  O   UNL     1     -17.889   0.080  26.787  0.00  0.00    -0.276 OA
ATOM      9  N   UNL     1     -16.578   1.776  27.676  0.00  0.00    -0.311 N 
ATOM     22  C   UNL     1     -17.497   1.243  26.784  0.00  0.00    +0.213 C 
ATOM     32  H   UNL     1     -16.299   2.749  27.588  0.00  0.00    +0.149 HD
BRANCH   9  25
ATOM     25  C   UNL     1     -15.974   0.987  28.725  0.00  0.00    +0.146 C 
BRANCH  25  26
ATOM      1  S   UNL     1     -15.123   3.502  29.543  0.00  0.00    -0.100 S 
ATOM     26  C   UNL     1     -15.437   1.844  29.834  0.00  0.00    +0.007 A 
ATOM     27  C   UNL     1     -15.136   1.480  31.128  0.00  0.00    +0.013 A 
ATOM     28  C   UNL     1     -14.643   2.577  31.891  0.00  0.00    +0.008 A 
ATOM     29  C   UNL     1     -14.585   3.737  31.151  0.00  0.00    +0.045 A 
ENDBRANCH  25  26
ENDBRANCH   9  25
ENDBRANCH  20  22
ENDBRANCH  18  20
ENDBRANCH  14  18
TORSDOF 7
ENDMDL
