REMARK  Name = 38031114
REMARK  10 active torsions:
REMARK  status: ('A' for Active; 'I' for Inactive)
REMARK    1  A    between atoms: N_4  and  C_13
REMARK    2  A    between atoms: C_8  and  C_12
REMARK    3  A    between atoms: C_9  and  C_13
REMARK    4  A    between atoms: C_11  and  C_18
REMARK    5  A    between atoms: C_12  and  C_22
REMARK    6  A    between atoms: C_12  and  C_23
REMARK    7  A    between atoms: C_15  and  C_24
REMARK    8  A    between atoms: C_18  and  C_25
REMARK    9  A    between atoms: C_19  and  C_26
REMARK   10  A    between atoms: C_27  and  C_28
REMARK                            x       y       z     vdW  Elec       q    Type
REMARK                         _______ _______ _______ _____ _____    ______ ____
ROOT
ATOM      8  C   UNL     1       1.674  -2.065   0.734  0.00  0.00    +0.000 C 
ATOM      9  C   UNL     1       1.766  -1.955  -0.806  0.00  0.00    +0.029 C 
ATOM     10  C   UNL     1       0.206  -2.118   1.182  0.00  0.00    +0.012 C 
ATOM     11  C   UNL     1      -0.589  -3.273   0.537  0.00  0.00    +0.024 C 
ATOM     14  C   UNL     1       0.812  -2.885  -1.511  0.00  0.00    -0.023 C 
ATOM     15  C   UNL     1      -0.237  -3.493  -0.927  0.00  0.00    -0.073 C 
ATOM     24  C   UNL     1      -1.075  -4.471  -1.703  0.00  0.00    +0.039 C 
ENDROOT
BRANCH   8  12
ATOM     12  C   UNL     1       2.458  -3.276   1.256  0.00  0.00    -0.013 C 
ATOM     22  C   UNL     1       3.957  -2.999   1.211  0.00  0.00    +0.007 C 
ATOM     23  C   UNL     1       2.015  -3.626   2.673  0.00  0.00    +0.007 C 
ENDBRANCH   8  12
BRANCH   9  13
ATOM     13  C   UNL     1       1.519  -0.521  -1.287  0.00  0.00    +0.092 C 
BRANCH  13   4
ATOM      4  N   UNL     1       2.445   0.408  -0.639  0.00  0.00    -0.302 NA
ATOM     16  C   UNL     1       3.762   0.356  -1.289  0.00  0.00    +0.085 C 
ATOM     17  C   UNL     1       1.899   1.772  -0.654  0.00  0.00    +0.085 C 
ATOM     19  C   UNL     1       4.237   2.716  -0.532  0.00  0.00    +0.077 C 
ATOM     20  C   UNL     1       4.759   1.282  -0.589  0.00  0.00    +0.028 C 
ATOM     21  C   UNL     1       2.831   2.747   0.067  0.00  0.00    +0.028 C 
BRANCH  19  26
ATOM      3  O   UNL     1       5.801   3.112   1.230  0.00  0.00    -0.276 OA
ATOM      6  N   UNL     1       5.175   4.888  -0.092  0.00  0.00    -0.329 N 
ATOM     26  C   UNL     1       5.152   3.568   0.292  0.00  0.00    +0.214 C 
ATOM     34  H   UNL     1       4.618   5.242  -0.863  0.00  0.00    +0.145 HD
ATOM     35  H   UNL     1       5.755   5.563   0.396  0.00  0.00    +0.145 HD
ENDBRANCH  19  26
ENDBRANCH  13   4
ENDBRANCH   9  13
BRANCH  11  18
ATOM     18  C   UNL     1      -2.086  -3.021   0.759  0.00  0.00    +0.105 C 
BRANCH  18  25
ATOM      2  O   UNL     1      -3.107  -0.804   0.762  0.00  0.00    -0.420 OA
ATOM      5  N   UNL     1      -2.509  -1.534  -1.266  0.00  0.00    -0.112 NA
ATOM      7  N   UNL     1      -3.068  -0.278  -1.412  0.00  0.00    -0.107 NA
ATOM     25  C   UNL     1      -2.552  -1.800   0.019  0.00  0.00    +0.218 A 
ATOM     27  C   UNL     1      -3.403   0.109  -0.203  0.00  0.00    +0.251 A 
BRANCH  27  28
ATOM      1  F   UNL     1      -4.119   2.159  -1.974  0.00  0.00    -0.205 F 
ATOM     28  C   UNL     1      -4.020   1.322   0.249  0.00  0.00    +0.074 A 
ATOM     29  C   UNL     1      -4.361   2.319  -0.665  0.00  0.00    +0.136 A 
ATOM     30  C   UNL     1      -4.279   1.503   1.608  0.00  0.00    +0.016 A 
ATOM     31  C   UNL     1      -4.961   3.497  -0.221  0.00  0.00    +0.039 A 
ATOM     32  C   UNL     1      -4.880   2.681   2.052  0.00  0.00    +0.001 A 
ATOM     33  C   UNL     1      -5.221   3.678   1.138  0.00  0.00    +0.003 A 
ENDBRANCH  27  28
ENDBRANCH  18  25
ENDBRANCH  11  18
TORSDOF 7
