MODEL 1
REMARK VINA RESULT:      -5.5      0.000      0.000
REMARK  Name = 75536815
REMARK  8 active torsions:
REMARK  status: ('A' for Active; 'I' for Inactive)
REMARK    1  A    between atoms: O_3  and  C_9
REMARK    2  A    between atoms: O_5  and  C_17
REMARK    3  A    between atoms: O_5  and  C_18
REMARK    4  A    between atoms: N_6  and  C_8
REMARK    5  A    between atoms: N_6  and  C_11
REMARK    6  A    between atoms: N_7  and  C_15
REMARK    7  A    between atoms: C_10  and  C_15
REMARK    8  A    between atoms: C_16  and  C_17
REMARK                            x       y       z     vdW  Elec       q    Type
REMARK                         _______ _______ _______ _____ _____    ______ ____
ROOT
ATOM      1  O   UNL     1      13.243   7.981  21.573  0.00  0.00    -0.371 OA
ATOM      8  C   UNL     1      11.364   8.985  22.622  0.00  0.00    +0.111 C 
ATOM      9  C   UNL     1      10.879   8.021  21.556  0.00  0.00    +0.164 C 
ATOM     10  C   UNL     1      12.101   7.128  21.389  0.00  0.00    +0.165 C 
ATOM     12  C   UNL     1      12.807   9.200  22.199  0.00  0.00    +0.181 C 
ENDROOT
BRANCH   9   3
ATOM      3  O   UNL     1       9.740   7.286  21.961  0.00  0.00    -0.388 OA
ATOM     20  H   UNL     1       9.319   7.758  22.700  0.00  0.00    +0.210 HD
ENDBRANCH   9   3
BRANCH   8   6
ATOM      6  N   UNL     1      10.601  10.221  22.682  0.00  0.00    -0.302 NA
ATOM     19  H   UNL     1      10.256  10.463  21.754  0.00  0.00    +0.123 HD
BRANCH   6  11
ATOM      2  O   UNL     1      10.203  12.396  24.666  0.00  0.00    -0.377 OA
ATOM     11  C   UNL     1      11.412  11.268  23.317  0.00  0.00    +0.106 C 
ATOM     13  C   UNL     1      11.125  11.287  24.818  0.00  0.00    +0.180 C 
ATOM     14  C   UNL     1      10.632  12.583  23.293  0.00  0.00    +0.180 C 
ENDBRANCH   6  11
ENDBRANCH   8   6
BRANCH  10  15
ATOM     15  C   UNL     1      12.174   6.459  20.029  0.00  0.00    +0.138 C 
BRANCH  15   7
ATOM      4  O   UNL     1      13.902   7.553  17.982  0.00  0.00    -0.273 OA
ATOM      7  N   UNL     1      11.807   7.366  18.980  0.00  0.00    -0.311 N 
ATOM     16  C   UNL     1      12.710   7.843  18.034  0.00  0.00    +0.239 C 
ATOM     21  H   UNL     1      10.841   7.679  18.939  0.00  0.00    +0.149 HD
BRANCH  16  17
ATOM     17  C   UNL     1      12.053   8.784  17.046  0.00  0.00    +0.255 C 
BRANCH  17   5
ATOM      5  O   UNL     1      12.778   8.821  15.836  0.00  0.00    -0.374 OA
ATOM     18  C   UNL     1      13.375  10.095  15.612  0.00  0.00    +0.194 C 
ENDBRANCH  17   5
ENDBRANCH  16  17
ENDBRANCH  15   7
ENDBRANCH  10  15
TORSDOF 7
ENDMDL
MODEL 2
REMARK VINA RESULT:      -5.2      4.890      6.902
REMARK  Name = 75536815
REMARK  8 active torsions:
REMARK  status: ('A' for Active; 'I' for Inactive)
REMARK    1  A    between atoms: O_3  and  C_9
REMARK    2  A    between atoms: O_5  and  C_17
REMARK    3  A    between atoms: O_5  and  C_18
REMARK    4  A    between atoms: N_6  and  C_8
REMARK    5  A    between atoms: N_6  and  C_11
REMARK    6  A    between atoms: N_7  and  C_15
REMARK    7  A    between atoms: C_10  and  C_15
REMARK    8  A    between atoms: C_16  and  C_17
REMARK                            x       y       z     vdW  Elec       q    Type
REMARK                         _______ _______ _______ _____ _____    ______ ____
ROOT
ATOM      1  O   UNL     1      16.717   6.108  19.031  0.00  0.00    -0.371 OA
ATOM      8  C   UNL     1      17.451   6.411  21.270  0.00  0.00    +0.111 C 
ATOM      9  C   UNL     1      16.139   7.147  21.075  0.00  0.00    +0.164 C 
ATOM     10  C   UNL     1      15.582   6.436  19.850  0.00  0.00    +0.165 C 
ATOM     12  C   UNL     1      17.906   6.222  19.832  0.00  0.00    +0.181 C 
ENDROOT
BRANCH   9   3
ATOM      3  O   UNL     1      15.277   7.030  22.191  0.00  0.00    -0.388 OA
ATOM     20  H   UNL     1      14.495   6.519  21.921  0.00  0.00    +0.210 HD
ENDBRANCH   9   3
BRANCH   8   6
ATOM      6  N   UNL     1      18.415   7.139  22.078  0.00  0.00    -0.302 NA
ATOM     19  H   UNL     1      18.123   8.111  22.177  0.00  0.00    +0.123 HD
BRANCH   6  11
ATOM      2  O   UNL     1      21.226   7.504  22.967  0.00  0.00    -0.377 OA
ATOM     11  C   UNL     1      19.760   6.968  21.513  0.00  0.00    +0.106 C 
ATOM     13  C   UNL     1      20.646   6.248  22.529  0.00  0.00    +0.180 C 
ATOM     14  C   UNL     1      20.603   8.196  21.856  0.00  0.00    +0.180 C 
ENDBRANCH   6  11
ENDBRANCH   8   6
BRANCH  10  15
ATOM     15  C   UNL     1      14.605   7.285  19.056  0.00  0.00    +0.138 C 
BRANCH  15   7
ATOM      4  O   UNL     1      11.832   7.373  18.237  0.00  0.00    -0.273 OA
ATOM      7  N   UNL     1      13.478   7.670  19.856  0.00  0.00    -0.311 N 
ATOM     16  C   UNL     1      12.171   7.682  19.376  0.00  0.00    +0.239 C 
ATOM     21  H   UNL     1      13.652   7.955  20.815  0.00  0.00    +0.149 HD
BRANCH  16  17
ATOM     17  C   UNL     1      11.182   8.127  20.432  0.00  0.00    +0.255 C 
BRANCH  17   5
ATOM      5  O   UNL     1      11.828   8.308  21.675  0.00  0.00    -0.374 OA
ATOM     18  C   UNL     1      10.956   8.873  22.649  0.00  0.00    +0.194 C 
ENDBRANCH  17   5
ENDBRANCH  16  17
ENDBRANCH  15   7
ENDBRANCH  10  15
TORSDOF 7
ENDMDL
MODEL 3
REMARK VINA RESULT:      -5.0     27.701     28.915
REMARK  Name = 75536815
REMARK  8 active torsions:
REMARK  status: ('A' for Active; 'I' for Inactive)
REMARK    1  A    between atoms: O_3  and  C_9
REMARK    2  A    between atoms: O_5  and  C_17
REMARK    3  A    between atoms: O_5  and  C_18
REMARK    4  A    between atoms: N_6  and  C_8
REMARK    5  A    between atoms: N_6  and  C_11
REMARK    6  A    between atoms: N_7  and  C_15
REMARK    7  A    between atoms: C_10  and  C_15
REMARK    8  A    between atoms: C_16  and  C_17
REMARK                            x       y       z     vdW  Elec       q    Type
REMARK                         _______ _______ _______ _____ _____    ______ ____
ROOT
ATOM      1  O   UNL     1     -15.053  -0.038  29.081  0.00  0.00    -0.371 OA
ATOM      8  C   UNL     1     -14.289   1.785  30.398  0.00  0.00    +0.111 C 
ATOM      9  C   UNL     1     -15.263   2.301  29.357  0.00  0.00    +0.164 C 
ATOM     10  C   UNL     1     -16.016   1.026  29.001  0.00  0.00    +0.165 C 
ATOM     12  C   UNL     1     -13.908   0.436  29.811  0.00  0.00    +0.181 C 
ENDROOT
BRANCH   9   3
ATOM      3  O   UNL     1     -16.127   3.300  29.865  0.00  0.00    -0.388 OA
ATOM     20  H   UNL     1     -16.109   4.058  29.258  0.00  0.00    +0.210 HD
ENDBRANCH   9   3
BRANCH   8   6
ATOM      6  N   UNL     1     -13.143   2.655  30.608  0.00  0.00    -0.302 NA
ATOM     19  H   UNL     1     -12.300   2.216  30.239  0.00  0.00    +0.123 HD
BRANCH   6  11
ATOM      2  O   UNL     1     -14.917   3.855  32.665  0.00  0.00    -0.377 OA
ATOM     11  C   UNL     1     -13.059   3.023  32.027  0.00  0.00    +0.106 C 
ATOM     13  C   UNL     1     -14.316   2.538  32.748  0.00  0.00    +0.180 C 
ATOM     14  C   UNL     1     -13.659   4.417  32.215  0.00  0.00    +0.180 C 
ENDBRANCH   6  11
ENDBRANCH   8   6
BRANCH  10  15
ATOM     15  C   UNL     1     -16.629   1.060  27.613  0.00  0.00    +0.138 C 
BRANCH  15   7
ATOM      4  O   UNL     1     -16.351   1.582  24.780  0.00  0.00    -0.273 OA
ATOM      7  N   UNL     1     -16.427   2.333  26.983  0.00  0.00    -0.311 N 
ATOM     16  C   UNL     1     -16.303   2.491  25.605  0.00  0.00    +0.239 C 
ATOM     21  H   UNL     1     -16.361   3.152  27.579  0.00  0.00    +0.149 HD
BRANCH  16  17
ATOM     17  C   UNL     1     -16.098   3.939  25.215  0.00  0.00    +0.255 C 
BRANCH  17   5
ATOM      5  O   UNL     1     -14.995   4.070  24.345  0.00  0.00    -0.374 OA
ATOM     18  C   UNL     1     -15.264   4.974  23.278  0.00  0.00    +0.194 C 
ENDBRANCH  17   5
ENDBRANCH  16  17
ENDBRANCH  15   7
ENDBRANCH  10  15
TORSDOF 7
ENDMDL
MODEL 4
REMARK VINA RESULT:      -4.9      2.336      3.112
REMARK  Name = 75536815
REMARK  8 active torsions:
REMARK  status: ('A' for Active; 'I' for Inactive)
REMARK    1  A    between atoms: O_3  and  C_9
REMARK    2  A    between atoms: O_5  and  C_17
REMARK    3  A    between atoms: O_5  and  C_18
REMARK    4  A    between atoms: N_6  and  C_8
REMARK    5  A    between atoms: N_6  and  C_11
REMARK    6  A    between atoms: N_7  and  C_15
REMARK    7  A    between atoms: C_10  and  C_15
REMARK    8  A    between atoms: C_16  and  C_17
REMARK                            x       y       z     vdW  Elec       q    Type
REMARK                         _______ _______ _______ _____ _____    ______ ____
ROOT
ATOM      1  O   UNL     1      11.955  11.563  20.845  0.00  0.00    -0.371 OA
ATOM      8  C   UNL     1      11.255  11.640  23.114  0.00  0.00    +0.111 C 
ATOM      9  C   UNL     1      11.042  10.238  22.578  0.00  0.00    +0.164 C 
ATOM     10  C   UNL     1      11.988  10.232  21.385  0.00  0.00    +0.165 C 
ATOM     12  C   UNL     1      11.374  12.440  21.827  0.00  0.00    +0.181 C 
ENDROOT
BRANCH   9   3
ATOM      3  O   UNL     1      11.374   9.236  23.521  0.00  0.00    -0.388 OA
ATOM     20  H   UNL     1      11.859   8.531  23.059  0.00  0.00    +0.210 HD
ENDBRANCH   9   3
BRANCH   8   6
ATOM      6  N   UNL     1      10.179  12.107  23.973  0.00  0.00    -0.302 NA
ATOM     19  H   UNL     1       9.753  12.944  23.575  0.00  0.00    +0.123 HD
BRANCH   6  11
ATOM      2  O   UNL     1      11.956  13.990  25.428  0.00  0.00    -0.377 OA
ATOM     11  C   UNL     1      10.683  12.280  25.342  0.00  0.00    +0.106 C 
ATOM     13  C   UNL     1      10.560  13.750  25.741  0.00  0.00    +0.180 C 
ATOM     14  C   UNL     1      12.184  12.565  25.285  0.00  0.00    +0.180 C 
ENDBRANCH   6  11
ENDBRANCH   8   6
BRANCH  10  15
ATOM     15  C   UNL     1      11.595   9.233  20.312  0.00  0.00    +0.138 C 
BRANCH  15   7
ATOM      4  O   UNL     1      12.155   6.529  19.448  0.00  0.00    -0.273 OA
ATOM      7  N   UNL     1      12.740   8.779  19.577  0.00  0.00    -0.311 N 
ATOM     16  C   UNL     1      12.928   7.451  19.202  0.00  0.00    +0.239 C 
ATOM     21  H   UNL     1      13.449   9.464  19.331  0.00  0.00    +0.149 HD
BRANCH  16  17
ATOM     17  C   UNL     1      14.219   7.254  18.437  0.00  0.00    +0.255 C 
BRANCH  17   5
ATOM      5  O   UNL     1      15.095   6.406  19.148  0.00  0.00    -0.374 OA
ATOM     18  C   UNL     1      16.174   7.128  19.735  0.00  0.00    +0.194 C 
ENDBRANCH  17   5
ENDBRANCH  16  17
ENDBRANCH  15   7
ENDBRANCH  10  15
TORSDOF 7
ENDMDL
MODEL 5
REMARK VINA RESULT:      -4.8      2.848      3.896
REMARK  Name = 75536815
REMARK  8 active torsions:
REMARK  status: ('A' for Active; 'I' for Inactive)
REMARK    1  A    between atoms: O_3  and  C_9
REMARK    2  A    between atoms: O_5  and  C_17
REMARK    3  A    between atoms: O_5  and  C_18
REMARK    4  A    between atoms: N_6  and  C_8
REMARK    5  A    between atoms: N_6  and  C_11
REMARK    6  A    between atoms: N_7  and  C_15
REMARK    7  A    between atoms: C_10  and  C_15
REMARK    8  A    between atoms: C_16  and  C_17
REMARK                            x       y       z     vdW  Elec       q    Type
REMARK                         _______ _______ _______ _____ _____    ______ ____
ROOT
ATOM      1  O   UNL     1      12.149   6.624  19.751  0.00  0.00    -0.371 OA
ATOM      8  C   UNL     1      11.903   8.580  21.076  0.00  0.00    +0.111 C 
ATOM      9  C   UNL     1      13.192   8.679  20.282  0.00  0.00    +0.164 C 
ATOM     10  C   UNL     1      12.925   7.681  19.163  0.00  0.00    +0.165 C 
ATOM     12  C   UNL     1      11.620   7.089  21.006  0.00  0.00    +0.181 C 
ENDROOT
BRANCH   9   3
ATOM      3  O   UNL     1      13.427   9.982  19.782  0.00  0.00    -0.388 OA
ATOM     20  H   UNL     1      12.613  10.502  19.891  0.00  0.00    +0.210 HD
ENDBRANCH   9   3
BRANCH   8   6
ATOM      6  N   UNL     1      12.019   9.072  22.440  0.00  0.00    -0.302 NA
ATOM     19  H   UNL     1      11.611   8.398  23.088  0.00  0.00    +0.123 HD
BRANCH   6  11
ATOM      2  O   UNL     1      12.224  11.428  24.236  0.00  0.00    -0.377 OA
ATOM     11  C   UNL     1      11.441  10.419  22.527  0.00  0.00    +0.106 C 
ATOM     13  C   UNL     1      12.553  11.425  22.823  0.00  0.00    +0.180 C 
ATOM     14  C   UNL     1      11.010  10.682  23.970  0.00  0.00    +0.180 C 
ENDBRANCH   6  11
ENDBRANCH   8   6
BRANCH  10  15
ATOM     15  C   UNL     1      14.192   7.110  18.554  0.00  0.00    +0.138 C 
BRANCH  15   7
ATOM      4  O   UNL     1      16.627   5.553  18.697  0.00  0.00    -0.273 OA
ATOM      7  N   UNL     1      15.332   7.360  19.389  0.00  0.00    -0.311 N 
ATOM     16  C   UNL     1      16.467   6.553  19.392  0.00  0.00    +0.239 C 
ATOM     21  H   UNL     1      15.296   8.160  20.013  0.00  0.00    +0.149 HD
BRANCH  16  17
ATOM     17  C   UNL     1      17.513   7.048  20.368  0.00  0.00    +0.255 C 
BRANCH  17   5
ATOM      5  O   UNL     1      16.929   7.884  21.343  0.00  0.00    -0.374 OA
ATOM     18  C   UNL     1      17.742   9.017  21.629  0.00  0.00    +0.194 C 
ENDBRANCH  17   5
ENDBRANCH  16  17
ENDBRANCH  15   7
ENDBRANCH  10  15
TORSDOF 7
ENDMDL
MODEL 6
REMARK VINA RESULT:      -4.7      2.891      6.404
REMARK  Name = 75536815
REMARK  8 active torsions:
REMARK  status: ('A' for Active; 'I' for Inactive)
REMARK    1  A    between atoms: O_3  and  C_9
REMARK    2  A    between atoms: O_5  and  C_17
REMARK    3  A    between atoms: O_5  and  C_18
REMARK    4  A    between atoms: N_6  and  C_8
REMARK    5  A    between atoms: N_6  and  C_11
REMARK    6  A    between atoms: N_7  and  C_15
REMARK    7  A    between atoms: C_10  and  C_15
REMARK    8  A    between atoms: C_16  and  C_17
REMARK                            x       y       z     vdW  Elec       q    Type
REMARK                         _______ _______ _______ _____ _____    ______ ____
ROOT
ATOM      1  O   UNL     1      12.119   7.133  19.311  0.00  0.00    -0.371 OA
ATOM      8  C   UNL     1      14.310   7.247  20.222  0.00  0.00    +0.111 C 
ATOM      9  C   UNL     1      13.394   8.152  21.023  0.00  0.00    +0.164 C 
ATOM     10  C   UNL     1      12.030   7.569  20.678  0.00  0.00    +0.165 C 
ATOM     12  C   UNL     1      13.509   7.061  18.944  0.00  0.00    +0.181 C 
ENDROOT
BRANCH   9   3
ATOM      3  O   UNL     1      13.654   8.099  22.413  0.00  0.00    -0.388 OA
ATOM     20  H   UNL     1      14.048   7.235  22.618  0.00  0.00    +0.210 HD
ENDBRANCH   9   3
BRANCH   8   6
ATOM      6  N   UNL     1      15.629   7.813  19.986  0.00  0.00    -0.302 NA
ATOM     19  H   UNL     1      16.037   7.405  19.145  0.00  0.00    +0.123 HD
BRANCH   6  11
ATOM      2  O   UNL     1      18.500   7.422  20.639  0.00  0.00    -0.377 OA
ATOM     11  C   UNL     1      16.453   7.658  21.192  0.00  0.00    +0.106 C 
ATOM     13  C   UNL     1      17.691   8.546  21.073  0.00  0.00    +0.180 C 
ATOM     14  C   UNL     1      17.432   6.503  20.979  0.00  0.00    +0.180 C 
ENDBRANCH   6  11
ENDBRANCH   8   6
BRANCH  10  15
ATOM     15  C   UNL     1      10.896   8.567  20.825  0.00  0.00    +0.138 C 
BRANCH  15   7
ATOM      4  O   UNL     1      11.286  11.301  21.688  0.00  0.00    -0.273 OA
ATOM      7  N   UNL     1      10.815   9.072  22.165  0.00  0.00    -0.311 N 
ATOM     16  C   UNL     1      11.019  10.410  22.490  0.00  0.00    +0.239 C 
ATOM     21  H   UNL     1      10.609   8.411  22.909  0.00  0.00    +0.149 HD
BRANCH  16  17
ATOM     17  C   UNL     1      10.873  10.663  23.975  0.00  0.00    +0.255 C 
BRANCH  17   5
ATOM      5  O   UNL     1      10.322  11.941  24.212  0.00  0.00    -0.374 OA
ATOM     18  C   UNL     1      10.928  12.582  25.330  0.00  0.00    +0.194 C 
ENDBRANCH  17   5
ENDBRANCH  16  17
ENDBRANCH  15   7
ENDBRANCH  10  15
TORSDOF 7
ENDMDL
MODEL 7
REMARK VINA RESULT:      -4.7     25.396     26.121
REMARK  Name = 75536815
REMARK  8 active torsions:
REMARK  status: ('A' for Active; 'I' for Inactive)
REMARK    1  A    between atoms: O_3  and  C_9
REMARK    2  A    between atoms: O_5  and  C_17
REMARK    3  A    between atoms: O_5  and  C_18
REMARK    4  A    between atoms: N_6  and  C_8
REMARK    5  A    between atoms: N_6  and  C_11
REMARK    6  A    between atoms: N_7  and  C_15
REMARK    7  A    between atoms: C_10  and  C_15
REMARK    8  A    between atoms: C_16  and  C_17
REMARK                            x       y       z     vdW  Elec       q    Type
REMARK                         _______ _______ _______ _____ _____    ______ ____
ROOT
ATOM      1  O   UNL     1      -4.340 -10.434  14.513  0.00  0.00    -0.371 OA
ATOM      8  C   UNL     1      -3.989 -10.569  16.858  0.00  0.00    +0.111 C 
ATOM      9  C   UNL     1      -2.851 -11.274  16.146  0.00  0.00    +0.164 C 
ATOM     10  C   UNL     1      -2.941 -10.653  14.759  0.00  0.00    +0.165 C 
ATOM     12  C   UNL     1      -5.044 -10.520  15.765  0.00  0.00    +0.181 C 
ENDROOT
BRANCH   9   3
ATOM      3  O   UNL     1      -1.595 -11.033  16.752  0.00  0.00    -0.388 OA
ATOM     20  H   UNL     1      -1.481 -10.072  16.846  0.00  0.00    +0.210 HD
ENDBRANCH   9   3
BRANCH   8   6
ATOM      6  N   UNL     1      -4.446 -11.258  18.055  0.00  0.00    -0.302 NA
ATOM     19  H   UNL     1      -4.101 -12.217  18.057  0.00  0.00    +0.123 HD
BRANCH   6  11
ATOM      2  O   UNL     1      -6.514 -11.540  20.167  0.00  0.00    -0.377 OA
ATOM     11  C   UNL     1      -5.906 -11.142  18.161  0.00  0.00    +0.106 C 
ATOM     13  C   UNL     1      -6.257 -10.331  19.408  0.00  0.00    +0.180 C 
ATOM     14  C   UNL     1      -6.442 -12.333  18.956  0.00  0.00    +0.180 C 
ENDBRANCH   6  11
ENDBRANCH   8   6
BRANCH  10  15
ATOM     15  C   UNL     1      -2.359 -11.533  13.668  0.00  0.00    +0.138 C 
BRANCH  15   7
ATOM      4  O   UNL     1      -1.586  -9.777  11.502  0.00  0.00    -0.273 OA
ATOM      7  N   UNL     1      -3.045 -11.341  12.422  0.00  0.00    -0.311 N 
ATOM     16  C   UNL     1      -2.597 -10.471  11.431  0.00  0.00    +0.239 C 
ATOM     21  H   UNL     1      -3.902 -11.862  12.267  0.00  0.00    +0.149 HD
BRANCH  16  17
ATOM     17  C   UNL     1      -3.510 -10.466  10.224  0.00  0.00    +0.255 C 
BRANCH  17   5
ATOM      5  O   UNL     1      -3.600  -9.171   9.672  0.00  0.00    -0.374 OA
ATOM     18  C   UNL     1      -4.721  -8.453  10.178  0.00  0.00    +0.194 C 
ENDBRANCH  17   5
ENDBRANCH  16  17
ENDBRANCH  15   7
ENDBRANCH  10  15
TORSDOF 7
ENDMDL
MODEL 8
REMARK VINA RESULT:      -4.7     24.932     26.536
REMARK  Name = 75536815
REMARK  8 active torsions:
REMARK  status: ('A' for Active; 'I' for Inactive)
REMARK    1  A    between atoms: O_3  and  C_9
REMARK    2  A    between atoms: O_5  and  C_17
REMARK    3  A    between atoms: O_5  and  C_18
REMARK    4  A    between atoms: N_6  and  C_8
REMARK    5  A    between atoms: N_6  and  C_11
REMARK    6  A    between atoms: N_7  and  C_15
REMARK    7  A    between atoms: C_10  and  C_15
REMARK    8  A    between atoms: C_16  and  C_17
REMARK                            x       y       z     vdW  Elec       q    Type
REMARK                         _______ _______ _______ _____ _____    ______ ____
ROOT
ATOM      1  O   UNL     1      -5.631 -11.226  18.209  0.00  0.00    -0.371 OA
ATOM      8  C   UNL     1      -7.346  -9.882  17.262  0.00  0.00    +0.111 C 
ATOM      9  C   UNL     1      -6.052  -9.636  16.509  0.00  0.00    +0.164 C 
ATOM     10  C   UNL     1      -5.265 -10.891  16.859  0.00  0.00    +0.165 C 
ATOM     12  C   UNL     1      -6.831 -10.509  18.547  0.00  0.00    +0.181 C 
ENDROOT
BRANCH   9   3
ATOM      3  O   UNL     1      -6.248  -9.509  15.114  0.00  0.00    -0.388 OA
ATOM     20  H   UNL     1      -6.549  -8.603  14.929  0.00  0.00    +0.210 HD
ENDBRANCH   9   3
BRANCH   8   6
ATOM      6  N   UNL     1      -8.126  -8.677  17.492  0.00  0.00    -0.302 NA
ATOM     19  H   UNL     1      -7.976  -8.342  18.444  0.00  0.00    +0.123 HD
BRANCH   6  11
ATOM      2  O   UNL     1     -10.095  -7.745  15.474  0.00  0.00    -0.377 OA
ATOM     11  C   UNL     1      -9.532  -8.930  17.156  0.00  0.00    +0.106 C 
ATOM     13  C   UNL     1      -9.663  -9.119  15.645  0.00  0.00    +0.180 C 
ATOM     14  C   UNL     1     -10.233  -7.594  16.909  0.00  0.00    +0.180 C 
ENDBRANCH   6  11
ENDBRANCH   8   6
BRANCH  10  15
ATOM     15  C   UNL     1      -3.761 -10.702  16.767  0.00  0.00    +0.138 C 
BRANCH  15   7
ATOM      4  O   UNL     1      -1.113 -11.012  15.644  0.00  0.00    -0.273 OA
ATOM      7  N   UNL     1      -3.353 -10.416  15.422  0.00  0.00    -0.311 N 
ATOM     16  C   UNL     1      -2.049 -10.597  14.967  0.00  0.00    +0.239 C 
ATOM     21  H   UNL     1      -4.052 -10.056  14.780  0.00  0.00    +0.149 HD
BRANCH  16  17
ATOM     17  C   UNL     1      -1.900 -10.218  13.509  0.00  0.00    +0.255 C 
BRANCH  17   5
ATOM      5  O   UNL     1      -2.977 -10.723  12.750  0.00  0.00    -0.374 OA
ATOM     18  C   UNL     1      -2.644 -11.949  12.105  0.00  0.00    +0.194 C 
ENDBRANCH  17   5
ENDBRANCH  16  17
ENDBRANCH  15   7
ENDBRANCH  10  15
TORSDOF 7
ENDMDL
MODEL 9
REMARK VINA RESULT:      -4.6     25.218     27.533
REMARK  Name = 75536815
REMARK  8 active torsions:
REMARK  status: ('A' for Active; 'I' for Inactive)
REMARK    1  A    between atoms: O_3  and  C_9
REMARK    2  A    between atoms: O_5  and  C_17
REMARK    3  A    between atoms: O_5  and  C_18
REMARK    4  A    between atoms: N_6  and  C_8
REMARK    5  A    between atoms: N_6  and  C_11
REMARK    6  A    between atoms: N_7  and  C_15
REMARK    7  A    between atoms: C_10  and  C_15
REMARK    8  A    between atoms: C_16  and  C_17
REMARK                            x       y       z     vdW  Elec       q    Type
REMARK                         _______ _______ _______ _____ _____    ______ ____
ROOT
ATOM      1  O   UNL     1      -6.887 -10.204  17.210  0.00  0.00    -0.371 OA
ATOM      8  C   UNL     1      -4.637 -10.620  16.572  0.00  0.00    +0.111 C 
ATOM      9  C   UNL     1      -4.835 -11.068  18.007  0.00  0.00    +0.164 C 
ATOM     10  C   UNL     1      -6.348 -11.232  18.058  0.00  0.00    +0.165 C 
ATOM     12  C   UNL     1      -5.830  -9.697  16.378  0.00  0.00    +0.181 C 
ENDROOT
BRANCH   9   3
ATOM      3  O   UNL     1      -4.163 -12.279  18.298  0.00  0.00    -0.388 OA
ATOM     20  H   UNL     1      -4.626 -13.003  17.843  0.00  0.00    +0.210 HD
ENDBRANCH   9   3
BRANCH   8   6
ATOM      6  N   UNL     1      -3.364  -9.957  16.337  0.00  0.00    -0.302 NA
ATOM     19  H   UNL     1      -3.516  -9.073  15.852  0.00  0.00    +0.123 HD
BRANCH   6  11
ATOM      2  O   UNL     1      -1.298  -9.798  14.210  0.00  0.00    -0.377 OA
ATOM     11  C   UNL     1      -2.453 -10.876  15.644  0.00  0.00    +0.106 C 
ATOM     13  C   UNL     1      -1.062 -10.245  15.570  0.00  0.00    +0.180 C 
ATOM     14  C   UNL     1      -2.509 -10.593  14.143  0.00  0.00    +0.180 C 
ENDBRANCH   6  11
ENDBRANCH   8   6
BRANCH  10  15
ATOM     15  C   UNL     1      -6.920 -11.096  19.458  0.00  0.00    +0.138 C 
BRANCH  15   7
ATOM      4  O   UNL     1      -9.454 -12.363  20.040  0.00  0.00    -0.273 OA
ATOM      7  N   UNL     1      -8.218 -10.486  19.434  0.00  0.00    -0.311 N 
ATOM     16  C   UNL     1      -9.390 -11.177  19.730  0.00  0.00    +0.239 C 
ATOM     21  H   UNL     1      -8.277  -9.505  19.178  0.00  0.00    +0.149 HD
BRANCH  16  17
ATOM     17  C   UNL     1     -10.613 -10.290  19.628  0.00  0.00    +0.255 C 
BRANCH  17   5
ATOM      5  O   UNL     1     -10.495  -9.402  18.538  0.00  0.00    -0.374 OA
ATOM     18  C   UNL     1     -11.222  -9.857  17.400  0.00  0.00    +0.194 C 
ENDBRANCH  17   5
ENDBRANCH  16  17
ENDBRANCH  15   7
ENDBRANCH  10  15
TORSDOF 7
ENDMDL
MODEL 10
REMARK VINA RESULT:      -4.6      1.980      6.736
REMARK  Name = 75536815
REMARK  8 active torsions:
REMARK  status: ('A' for Active; 'I' for Inactive)
REMARK    1  A    between atoms: O_3  and  C_9
REMARK    2  A    between atoms: O_5  and  C_17
REMARK    3  A    between atoms: O_5  and  C_18
REMARK    4  A    between atoms: N_6  and  C_8
REMARK    5  A    between atoms: N_6  and  C_11
REMARK    6  A    between atoms: N_7  and  C_15
REMARK    7  A    between atoms: C_10  and  C_15
REMARK    8  A    between atoms: C_16  and  C_17
REMARK                            x       y       z     vdW  Elec       q    Type
REMARK                         _______ _______ _______ _____ _____    ______ ____
ROOT
ATOM      1  O   UNL     1      13.537   8.264  21.237  0.00  0.00    -0.371 OA
ATOM      8  C   UNL     1      13.926   9.824  19.488  0.00  0.00    +0.111 C 
ATOM      9  C   UNL     1      12.660  10.214  20.227  0.00  0.00    +0.164 C 
ATOM     10  C   UNL     1      12.858   9.491  21.552  0.00  0.00    +0.165 C 
ATOM     12  C   UNL     1      14.087   8.373  19.912  0.00  0.00    +0.181 C 
ENDROOT
BRANCH   9   3
ATOM      3  O   UNL     1      12.540  11.613  20.401  0.00  0.00    -0.388 OA
ATOM     20  H   UNL     1      13.062  12.054  19.710  0.00  0.00    +0.210 HD
ENDBRANCH   9   3
BRANCH   8   6
ATOM      6  N   UNL     1      13.834   9.985  18.046  0.00  0.00    -0.302 NA
ATOM     19  H   UNL     1      13.266  10.802  17.823  0.00  0.00    +0.123 HD
BRANCH   6  11
ATOM      2  O   UNL     1      12.855   9.072  15.395  0.00  0.00    -0.377 OA
ATOM     11  C   UNL     1      13.358   8.735  17.441  0.00  0.00    +0.106 C 
ATOM     13  C   UNL     1      14.024   8.549  16.078  0.00  0.00    +0.180 C 
ATOM     14  C   UNL     1      12.095   9.025  16.629  0.00  0.00    +0.180 C 
ENDBRANCH   6  11
ENDBRANCH   8   6
BRANCH  10  15
ATOM     15  C   UNL     1      11.556   9.187  22.270  0.00  0.00    +0.138 C 
BRANCH  15   7
ATOM      4  O   UNL     1      10.795  11.942  22.719  0.00  0.00    -0.273 OA
ATOM      7  N   UNL     1      11.483   9.871  23.530  0.00  0.00    -0.311 N 
ATOM     16  C   UNL     1      11.104  11.206  23.652  0.00  0.00    +0.239 C 
ATOM     21  H   UNL     1      11.730   9.352  24.366  0.00  0.00    +0.149 HD
BRANCH  16  17
ATOM     17  C   UNL     1      11.114  11.669  25.093  0.00  0.00    +0.255 C 
BRANCH  17   5
ATOM      5  O   UNL     1      12.422  11.627  25.621  0.00  0.00    -0.374 OA
ATOM     18  C   UNL     1      13.182  12.772  25.249  0.00  0.00    +0.194 C 
ENDBRANCH  17   5
ENDBRANCH  16  17
ENDBRANCH  15   7
ENDBRANCH  10  15
TORSDOF 7
ENDMDL
