REMARK  Name = 11911867
REMARK  11 active torsions:
REMARK  status: ('A' for Active; 'I' for Inactive)
REMARK    1  A    between atoms: O_4  and  C_25
REMARK    2  A    between atoms: N_6  and  C_16
REMARK    3  A    between atoms: N_7  and  C_17
REMARK    4  A    between atoms: N_10  and  C_35
REMARK    5  A    between atoms: N_10  and  C_36
REMARK    6  A    between atoms: N_10  and  C_37
REMARK    7  A    between atoms: C_11  and  C_18
REMARK    8  A    between atoms: C_11  and  C_22
REMARK    9  A    between atoms: C_18  and  C_24
REMARK   10  A    between atoms: C_22  and  C_25
REMARK   11  A    between atoms: C_27  and  C_30
REMARK                            x       y       z     vdW  Elec       q    Type
REMARK                         _______ _______ _______ _____ _____    ______ ____
ROOT
ATOM      1  O   UNL     1       0.531   1.107  -1.709  0.00  0.00    -0.370 OA
ATOM      2  O   UNL     1       1.217   4.109  -1.207  0.00  0.00    -0.370 OA
ATOM     12  C   UNL     1       1.462   2.906  -0.461  0.00  0.00    +0.171 C 
ATOM     13  C   UNL     1       0.246   2.015  -0.631  0.00  0.00    +0.171 C 
ATOM     16  C   UNL     1       2.587   2.116  -1.089  0.00  0.00    +0.130 C 
ATOM     17  C   UNL     1      -0.858   2.967  -1.026  0.00  0.00    +0.130 C 
ATOM     21  C   UNL     1       1.869   1.334  -2.175  0.00  0.00    +0.185 C 
ATOM     23  C   UNL     1      -0.106   4.062  -1.761  0.00  0.00    +0.185 C 
ENDROOT
BRANCH  17   7
ATOM      7  N   UNL     1      -1.494   3.505   0.157  0.00  0.00    -0.306 N 
ATOM      8  N   UNL     1      -2.945   1.670   0.344  0.00  0.00    -0.214 NA
ATOM      9  N   UNL     1      -3.029   3.481   1.932  0.00  0.00    -0.223 NA
ATOM     26  C   UNL     1      -2.520   2.866   0.831  0.00  0.00    +0.216 A 
ATOM     27  C   UNL     1      -3.946   1.075   1.026  0.00  0.00    +0.076 A 
ATOM     28  C   UNL     1      -4.028   2.831   2.564  0.00  0.00    +0.116 A 
ATOM     29  C   UNL     1      -4.532   1.614   2.153  0.00  0.00    +0.048 A 
ATOM     39  H   UNL     1      -1.150   4.370   0.558  0.00  0.00    +0.149 HD
BRANCH  27  30
ATOM     30  C   UNL     1      -4.381  -0.193   0.493  0.00  0.00    +0.001 A 
ATOM     31  C   UNL     1      -5.706  -0.603   0.653  0.00  0.00    +0.012 A 
ATOM     32  C   UNL     1      -3.478  -1.016  -0.184  0.00  0.00    +0.012 A 
ATOM     33  C   UNL     1      -6.126  -1.830   0.140  0.00  0.00    +0.024 A 
ATOM     34  C   UNL     1      -3.898  -2.243  -0.698  0.00  0.00    +0.024 A 
ATOM     35  C   UNL     1      -5.222  -2.650  -0.536  0.00  0.00    +0.029 A 
BRANCH  35  10
ATOM     10  N   UNL     1      -5.647  -3.890  -1.056  0.00  0.00    -0.336 N 
ATOM     36  C   UNL     1      -6.715  -4.629  -0.412  0.00  0.00    +0.129 C 
ATOM     37  C   UNL     1      -5.030  -4.436  -2.249  0.00  0.00    +0.129 C 
ENDBRANCH  35  10
ENDBRANCH  27  30
ENDBRANCH  17   7
BRANCH  16   6
ATOM      3  O   UNL     1       5.289   1.081  -1.147  0.00  0.00    -0.276 OA
ATOM      6  N   UNL     1       3.205   1.233  -0.130  0.00  0.00    -0.308 N 
ATOM     24  C   UNL     1       4.515   0.786  -0.240  0.00  0.00    +0.214 C 
ATOM     38  H   UNL     1       2.624   0.881   0.626  0.00  0.00    +0.149 HD
BRANCH  24  18
ATOM     18  C   UNL     1       4.894  -0.126   0.912  0.00  0.00    +0.103 C 
BRANCH  18  11
ATOM     11  C   UNL     1       5.271  -1.540   0.446  0.00  0.00    -0.011 C 
ATOM     14  C   UNL     1       6.480  -1.484  -0.518  0.00  0.00    +0.008 C 
ATOM     15  C   UNL     1       5.743  -2.401   1.639  0.00  0.00    +0.008 C 
ATOM     19  C   UNL     1       7.485  -2.493   0.024  0.00  0.00    +0.001 C 
ATOM     20  C   UNL     1       7.260  -2.443   1.524  0.00  0.00    +0.001 C 
BRANCH  11  22
ATOM     22  C   UNL     1       4.056  -2.184  -0.233  0.00  0.00    +0.127 C 
BRANCH  22  25
ATOM      5  O   UNL     1       2.820  -2.821   1.769  0.00  0.00    -0.251 OA
ATOM     25  C   UNL     1       2.878  -2.242   0.695  0.00  0.00    +0.305 C 
BRANCH  25   4
ATOM      4  O   UNL     1       1.849  -1.536   0.161  0.00  0.00    -0.481 OA
ATOM     40  H   UNL     1       1.058  -1.545   0.741  0.00  0.00    +0.295 HD
ENDBRANCH  25   4
ENDBRANCH  22  25
ENDBRANCH  11  22
ENDBRANCH  18  11
ENDBRANCH  24  18
ENDBRANCH  16   6
TORSDOF 9
