REMARK  Name = 11886012
REMARK  8 active torsions:
REMARK  status: ('A' for Active; 'I' for Inactive)
REMARK    1  A    between atoms: S_1  and  C_21
REMARK    2  A    between atoms: S_1  and  C_23
REMARK    3  A    between atoms: O_7  and  C_18
REMARK    4  A    between atoms: O_7  and  C_22
REMARK    5  A    between atoms: N_10  and  C_17
REMARK    6  A    between atoms: N_14  and  C_24
REMARK    7  A    between atoms: C_23  and  C_25
REMARK    8  A    between atoms: C_28  and  C_33
REMARK                            x       y       z     vdW  Elec       q    Type
REMARK                         _______ _______ _______ _____ _____    ______ ____
ROOT
ATOM      5  O   UNL     1      -0.180   0.716  -1.298  0.00  0.00    -0.368 OA
ATOM      6  O   UNL     1      -1.707  -1.925  -0.798  0.00  0.00    -0.368 OA
ATOM     15  C   UNL     1      -1.803  -0.619  -0.189  0.00  0.00    +0.177 C 
ATOM     16  C   UNL     1      -0.393  -0.066  -0.113  0.00  0.00    +0.192 C 
ATOM     17  C   UNL     1      -2.532   0.326  -1.124  0.00  0.00    +0.168 C 
ATOM     18  C   UNL     1       0.454  -1.316  -0.110  0.00  0.00    +0.235 C 
ATOM     19  C   UNL     1      -1.412   0.838  -2.024  0.00  0.00    +0.190 C 
ATOM     20  C   UNL     1      -0.324  -2.229  -1.028  0.00  0.00    +0.207 C 
ENDROOT
BRANCH  17  10
ATOM     10  N   UNL     1      -3.282   1.359  -0.406  0.00  0.00    -0.212 N 
ATOM     11  N   UNL     1      -2.692   2.515  -0.073  0.00  0.00    -0.043 NA
ATOM     12  N   UNL     1      -4.811   2.503   0.621  0.00  0.00    -0.101 NA
ATOM     13  N   UNL     1      -3.632   3.211   0.555  0.00  0.00    -0.022 NA
ATOM     21  C   UNL     1      -4.572   1.360   0.020  0.00  0.00    +0.210 A 
BRANCH  21   1
ATOM      1  S   UNL     1      -5.662   0.052  -0.219  0.00  0.00    -0.077 S 
BRANCH   1  23
ATOM     23  C   UNL     1      -7.172   0.688   0.569  0.00  0.00    +0.151 C 
BRANCH  23  25
ATOM      9  O   UNL     1      -9.416   0.104  -0.162  0.00  0.00    -0.467 OA
ATOM     25  C   UNL     1      -8.292  -0.308   0.482  0.00  0.00    +0.115 A 
ATOM     29  C   UNL     1      -8.438  -1.601   0.929  0.00  0.00    +0.045 A 
ATOM     32  C   UNL     1      -9.734  -2.009   0.535  0.00  0.00    +0.041 A 
ATOM     34  C   UNL     1     -10.288  -0.937  -0.125  0.00  0.00    +0.195 A 
ENDBRANCH  23  25
ENDBRANCH   1  23
ENDBRANCH  21   1
ENDBRANCH  17  10
BRANCH  18   7
ATOM      7  O   UNL     1       1.772  -1.105  -0.563  0.00  0.00    -0.442 OA
BRANCH   7  22
ATOM      8  O   UNL     1       2.464  -0.773   1.592  0.00  0.00    -0.226 OA
ATOM     14  N   UNL     1       3.954  -0.654  -0.210  0.00  0.00    -0.251 N 
ATOM     22  C   UNL     1       2.726  -0.833   0.397  0.00  0.00    +0.405 C 
ATOM     35  H   UNL     1       3.972  -0.744  -1.223  0.00  0.00    +0.158 HD
BRANCH  14  24
ATOM     24  C   UNL     1       5.193  -0.360   0.404  0.00  0.00    +0.037 A 
ATOM     26  C   UNL     1       6.340  -0.212  -0.376  0.00  0.00    +0.035 A 
ATOM     27  C   UNL     1       5.268  -0.217   1.789  0.00  0.00    +0.023 A 
ATOM     28  C   UNL     1       7.562   0.078   0.231  0.00  0.00    +0.057 A 
ATOM     30  C   UNL     1       6.490   0.073   2.396  0.00  0.00    +0.002 A 
ATOM     31  C   UNL     1       7.637   0.221   1.616  0.00  0.00    +0.012 A 
BRANCH  28  33
ATOM      2  F   UNL     1       9.912   0.517   0.124  0.00  0.00    -0.166 F 
ATOM      3  F   UNL     1       9.105  -0.878  -1.327  0.00  0.00    -0.166 F 
ATOM      4  F   UNL     1       8.680   1.246  -1.513  0.00  0.00    -0.166 F 
ATOM     33  C   UNL     1       8.789   0.235  -0.602  0.00  0.00    +0.417 C 
ENDBRANCH  28  33
ENDBRANCH  14  24
ENDBRANCH   7  22
ENDBRANCH  18   7
TORSDOF 8
