REMARK  Name = 75536828
REMARK  8 active torsions:
REMARK  status: ('A' for Active; 'I' for Inactive)
REMARK    1  A    between atoms: S_1  and  N_7
REMARK    2  A    between atoms: S_1  and  C_16
REMARK    3  A    between atoms: O_3  and  C_10
REMARK    4  A    between atoms: N_6  and  C_9
REMARK    5  A    between atoms: N_6  and  C_14
REMARK    6  A    between atoms: N_7  and  C_13
REMARK    7  A    between atoms: C_11  and  C_13
REMARK    8  A    between atoms: C_14  and  C_15
REMARK                            x       y       z     vdW  Elec       q    Type
REMARK                         _______ _______ _______ _____ _____    ______ ____
ROOT
ATOM      2  O   UNL     1       1.706   0.457   1.171  0.00  0.00    -0.371 OA
ATOM      9  C   UNL     1      -0.365  -0.573   0.627  0.00  0.00    +0.111 C 
ATOM     10  C   UNL     1       0.703  -1.073  -0.328  0.00  0.00    +0.164 C 
ATOM     11  C   UNL     1       1.969  -0.763   0.459  0.00  0.00    +0.164 C 
ATOM     12  C   UNL     1       0.286   0.689   1.171  0.00  0.00    +0.181 C 
ENDROOT
BRANCH  10   3
ATOM      3  O   UNL     1       0.581  -2.454  -0.608  0.00  0.00    -0.388 OA
ATOM     22  H   UNL     1       0.602  -2.940   0.234  0.00  0.00    +0.210 HD
ENDBRANCH  10   3
BRANCH   9   6
ATOM      6  N   UNL     1      -1.646  -0.319  -0.011  0.00  0.00    -0.305 NA
ATOM     21  H   UNL     1      -1.874  -1.103  -0.624  0.00  0.00    +0.123 HD
BRANCH   6  14
ATOM     14  C   UNL     1      -2.706  -0.172   0.979  0.00  0.00    +0.116 C 
BRANCH  14  15
ATOM      8  N   UNL     1      -6.513   0.628  -0.855  0.00  0.00    -0.263 NA
ATOM     15  C   UNL     1      -4.038   0.108   0.337  0.00  0.00    -0.031 A 
ATOM     17  C   UNL     1      -4.321   1.376  -0.160  0.00  0.00    +0.024 A 
ATOM     18  C   UNL     1      -4.991  -0.899   0.238  0.00  0.00    +0.024 A 
ATOM     19  C   UNL     1      -5.562   1.583  -0.741  0.00  0.00    +0.111 A 
ATOM     20  C   UNL     1      -6.202  -0.591  -0.361  0.00  0.00    +0.111 A 
ENDBRANCH  14  15
ENDBRANCH   6  14
ENDBRANCH   9   6
BRANCH  11  13
ATOM     13  C   UNL     1       3.195  -0.590  -0.420  0.00  0.00    +0.139 C 
BRANCH  13   7
ATOM      7  N   UNL     1       4.370  -0.293   0.422  0.00  0.00    -0.192 NA
ATOM     23  H   UNL     1       4.649  -1.079   1.025  0.00  0.00    +0.148 HD
BRANCH   7   1
ATOM      1  S   UNL     1       5.639   0.648  -0.225  0.00  0.00    +0.027 S 
ATOM      4  O   UNL     1       6.802   0.563   0.636  0.00  0.00    -0.158 OA
ATOM      5  O   UNL     1       5.100   1.935  -0.619  0.00  0.00    -0.158 OA
ATOM     16  C   UNL     1       5.993  -0.259  -1.713  0.00  0.00    +0.214 C 
ENDBRANCH   7   1
ENDBRANCH  13   7
ENDBRANCH  11  13
TORSDOF 7
