MODEL 1
REMARK VINA RESULT:      -5.6      0.000      0.000
REMARK  Name = 56775536
REMARK  8 active torsions:
REMARK  status: ('A' for Active; 'I' for Inactive)
REMARK    1  A    between atoms: O_4  and  C_18
REMARK    2  A    between atoms: O_4  and  C_22
REMARK    3  A    between atoms: N_5  and  C_7
REMARK    4  A    between atoms: N_5  and  C_11
REMARK    5  A    between atoms: C_7  and  C_10
REMARK    6  A    between atoms: C_10  and  C_12
REMARK    7  A    between atoms: C_11  and  C_13
REMARK    8  A    between atoms: C_15  and  C_18
REMARK                            x       y       z     vdW  Elec       q    Type
REMARK                         _______ _______ _______ _____ _____    ______ ____
ROOT
ATOM      2  O   UNL     1      -0.796 -11.292  15.368  0.00  0.00    -0.376 OA
ATOM      7  C   UNL     1      -2.909 -11.330  15.063  0.00  0.00    +0.072 C 
ATOM      8  C   UNL     1      -1.674 -11.978  14.447  0.00  0.00    +0.184 C 
ATOM      9  C   UNL     1      -1.930 -10.717  16.058  0.00  0.00    +0.184 C 
ENDROOT
BRANCH   7   5
ATOM      5  N   UNL     1      -3.387 -10.277  14.162  0.00  0.00    -0.302 NA
ATOM     23  H   UNL     1      -3.829  -9.482  14.621  0.00  0.00    +0.123 HD
BRANCH   5  11
ATOM     11  C   UNL     1      -4.300 -10.863  13.182  0.00  0.00    +0.118 C 
BRANCH  11  13
ATOM      1 CL   UNL     1      -6.890  -9.292  12.605  0.00  0.00    -0.083 Cl
ATOM     13  C   UNL     1      -4.367 -10.061  11.921  0.00  0.00    -0.015 A 
ATOM     16  C   UNL     1      -5.500  -9.322  11.584  0.00  0.00    +0.045 A 
ATOM     17  C   UNL     1      -3.258 -10.065  11.075  0.00  0.00    +0.006 A 
ATOM     19  C   UNL     1      -5.524  -8.586  10.398  0.00  0.00    +0.020 A 
ATOM     20  C   UNL     1      -3.283  -9.329   9.890  0.00  0.00    +0.000 A 
ATOM     21  C   UNL     1      -4.415  -8.590   9.552  0.00  0.00    +0.001 A 
ENDBRANCH  11  13
ENDBRANCH   5  11
ENDBRANCH   7   5
BRANCH   7  10
ATOM     10  C   UNL     1      -4.011 -12.206  15.575  0.00  0.00    +0.085 C 
BRANCH  10  12
ATOM      3  O   UNL     1      -6.142  -9.980  17.461  0.00  0.00    -0.357 OA
ATOM      6  N   UNL     1      -5.511 -10.380  16.290  0.00  0.00    -0.083 NA
ATOM     12  C   UNL     1      -4.831 -11.482  16.622  0.00  0.00    +0.086 A 
ATOM     14  C   UNL     1      -4.993 -11.821  17.976  0.00  0.00    +0.073 A 
ATOM     15  C   UNL     1      -5.826 -10.845  18.459  0.00  0.00    +0.163 A 
BRANCH  15  18
ATOM     18  C   UNL     1      -6.412 -10.570  19.776  0.00  0.00    +0.236 C 
BRANCH  18   4
ATOM      4  O   UNL     1      -7.350 -11.591  20.125  0.00  0.00    -0.375 OA
ATOM     22  C   UNL     1      -8.588 -11.399  19.462  0.00  0.00    +0.194 C 
ENDBRANCH  18   4
ENDBRANCH  15  18
ENDBRANCH  10  12
ENDBRANCH   7  10
TORSDOF 7
ENDMDL
MODEL 2
REMARK VINA RESULT:      -5.4     23.103     25.833
REMARK  Name = 56775536
REMARK  8 active torsions:
REMARK  status: ('A' for Active; 'I' for Inactive)
REMARK    1  A    between atoms: O_4  and  C_18
REMARK    2  A    between atoms: O_4  and  C_22
REMARK    3  A    between atoms: N_5  and  C_7
REMARK    4  A    between atoms: N_5  and  C_11
REMARK    5  A    between atoms: C_7  and  C_10
REMARK    6  A    between atoms: C_10  and  C_12
REMARK    7  A    between atoms: C_11  and  C_13
REMARK    8  A    between atoms: C_15  and  C_18
REMARK                            x       y       z     vdW  Elec       q    Type
REMARK                         _______ _______ _______ _____ _____    ______ ____
ROOT
ATOM      2  O   UNL     1      13.358   6.860   3.351  0.00  0.00    -0.376 OA
ATOM      7  C   UNL     1      11.367   6.090   3.356  0.00  0.00    +0.072 C 
ATOM      8  C   UNL     1      12.141   7.207   4.047  0.00  0.00    +0.184 C 
ATOM      9  C   UNL     1      12.663   5.844   2.591  0.00  0.00    +0.184 C 
ENDROOT
BRANCH   7   5
ATOM      5  N   UNL     1      11.168   4.995   4.309  0.00  0.00    -0.302 NA
ATOM     23  H   UNL     1      11.438   4.072   3.972  0.00  0.00    +0.123 HD
BRANCH   5  11
ATOM     11  C   UNL     1       9.771   4.983   4.740  0.00  0.00    +0.118 C 
BRANCH  11  13
ATOM      1 CL   UNL     1       8.865   7.774   5.687  0.00  0.00    -0.083 Cl
ATOM     13  C   UNL     1       9.630   5.211   6.211  0.00  0.00    -0.015 A 
ATOM     16  C   UNL     1       9.225   6.443   6.724  0.00  0.00    +0.045 A 
ATOM     17  C   UNL     1       9.913   4.154   7.075  0.00  0.00    +0.006 A 
ATOM     19  C   UNL     1       9.105   6.617   8.104  0.00  0.00    +0.020 A 
ATOM     20  C   UNL     1       9.792   4.329   8.454  0.00  0.00    +0.000 A 
ATOM     21  C   UNL     1       9.388   5.560   8.968  0.00  0.00    +0.001 A 
ENDBRANCH  11  13
ENDBRANCH   5  11
ENDBRANCH   7   5
BRANCH   7  10
ATOM     10  C   UNL     1      10.126   6.431   2.590  0.00  0.00    +0.085 C 
BRANCH  10  12
ATOM      3  O   UNL     1      10.037   4.065  -0.138  0.00  0.00    -0.357 OA
ATOM      6  N   UNL     1      10.042   4.383   1.213  0.00  0.00    -0.083 NA
ATOM     12  C   UNL     1      10.105   5.718   1.254  0.00  0.00    +0.086 A 
ATOM     14  C   UNL     1      10.143   6.289  -0.029  0.00  0.00    +0.073 A 
ATOM     15  C   UNL     1      10.098   5.208  -0.869  0.00  0.00    +0.163 A 
BRANCH  15  18
ATOM     18  C   UNL     1      10.102   5.053  -2.329  0.00  0.00    +0.236 C 
BRANCH  18   4
ATOM      4  O   UNL     1       9.987   3.672  -2.682  0.00  0.00    -0.375 OA
ATOM     22  C   UNL     1       9.207   3.505  -3.854  0.00  0.00    +0.194 C 
ENDBRANCH  18   4
ENDBRANCH  15  18
ENDBRANCH  10  12
ENDBRANCH   7  10
TORSDOF 7
ENDMDL
MODEL 3
REMARK VINA RESULT:      -5.2      1.695      2.136
REMARK  Name = 56775536
REMARK  8 active torsions:
REMARK  status: ('A' for Active; 'I' for Inactive)
REMARK    1  A    between atoms: O_4  and  C_18
REMARK    2  A    between atoms: O_4  and  C_22
REMARK    3  A    between atoms: N_5  and  C_7
REMARK    4  A    between atoms: N_5  and  C_11
REMARK    5  A    between atoms: C_7  and  C_10
REMARK    6  A    between atoms: C_10  and  C_12
REMARK    7  A    between atoms: C_11  and  C_13
REMARK    8  A    between atoms: C_15  and  C_18
REMARK                            x       y       z     vdW  Elec       q    Type
REMARK                         _______ _______ _______ _____ _____    ______ ____
ROOT
ATOM      2  O   UNL     1      -3.221 -14.271  14.529  0.00  0.00    -0.376 OA
ATOM      7  C   UNL     1      -3.517 -12.165  14.707  0.00  0.00    +0.072 C 
ATOM      8  C   UNL     1      -4.202 -13.439  15.187  0.00  0.00    +0.184 C 
ATOM      9  C   UNL     1      -2.470 -13.104  14.120  0.00  0.00    +0.184 C 
ENDROOT
BRANCH   7   5
ATOM      5  N   UNL     1      -4.302 -11.591  13.610  0.00  0.00    -0.302 NA
ATOM     23  H   UNL     1      -4.471 -12.216  12.824  0.00  0.00    +0.123 HD
BRANCH   5  11
ATOM     11  C   UNL     1      -3.654 -10.365  13.147  0.00  0.00    +0.118 C 
BRANCH  11  13
ATOM      1 CL   UNL     1      -1.530  -9.492  11.089  0.00  0.00    -0.083 Cl
ATOM     13  C   UNL     1      -4.123  -9.954  11.788  0.00  0.00    -0.015 A 
ATOM     16  C   UNL     1      -3.230  -9.547  10.798  0.00  0.00    +0.045 A 
ATOM     17  C   UNL     1      -5.492  -9.988  11.522  0.00  0.00    +0.006 A 
ATOM     19  C   UNL     1      -3.707  -9.172   9.541  0.00  0.00    +0.020 A 
ATOM     20  C   UNL     1      -5.968  -9.613  10.265  0.00  0.00    +0.000 A 
ATOM     21  C   UNL     1      -5.075  -9.206   9.275  0.00  0.00    +0.001 A 
ENDBRANCH  11  13
ENDBRANCH   5  11
ENDBRANCH   7   5
BRANCH   7  10
ATOM     10  C   UNL     1      -3.092 -11.143  15.716  0.00  0.00    +0.085 C 
BRANCH  10  12
ATOM      3  O   UNL     1      -6.146  -9.959  17.240  0.00  0.00    -0.357 OA
ATOM      6  N   UNL     1      -5.295 -10.119  16.154  0.00  0.00    -0.083 NA
ATOM     12  C   UNL     1      -4.240 -10.784  16.636  0.00  0.00    +0.086 A 
ATOM     14  C   UNL     1      -4.369 -11.067  18.006  0.00  0.00    +0.073 A 
ATOM     15  C   UNL     1      -5.583 -10.527  18.338  0.00  0.00    +0.163 A 
BRANCH  15  18
ATOM     18  C   UNL     1      -6.355 -10.448  19.584  0.00  0.00    +0.236 C 
BRANCH  18   4
ATOM      4  O   UNL     1      -6.599 -11.760  20.100  0.00  0.00    -0.375 OA
ATOM     22  C   UNL     1      -7.699 -12.371  19.447  0.00  0.00    +0.194 C 
ENDBRANCH  18   4
ENDBRANCH  15  18
ENDBRANCH  10  12
ENDBRANCH   7  10
TORSDOF 7
ENDMDL
MODEL 4
REMARK VINA RESULT:      -5.1      3.069      5.241
REMARK  Name = 56775536
REMARK  8 active torsions:
REMARK  status: ('A' for Active; 'I' for Inactive)
REMARK    1  A    between atoms: O_4  and  C_18
REMARK    2  A    between atoms: O_4  and  C_22
REMARK    3  A    between atoms: N_5  and  C_7
REMARK    4  A    between atoms: N_5  and  C_11
REMARK    5  A    between atoms: C_7  and  C_10
REMARK    6  A    between atoms: C_10  and  C_12
REMARK    7  A    between atoms: C_11  and  C_13
REMARK    8  A    between atoms: C_15  and  C_18
REMARK                            x       y       z     vdW  Elec       q    Type
REMARK                         _______ _______ _______ _____ _____    ______ ____
ROOT
ATOM      2  O   UNL     1      -6.091 -11.347  20.226  0.00  0.00    -0.376 OA
ATOM      7  C   UNL     1      -6.648 -11.046  18.187  0.00  0.00    +0.072 C 
ATOM      8  C   UNL     1      -5.999 -12.143  19.023  0.00  0.00    +0.184 C 
ATOM      9  C   UNL     1      -6.797 -10.306  19.512  0.00  0.00    +0.184 C 
ENDROOT
BRANCH   7   5
ATOM      5  N   UNL     1      -5.611 -10.383  17.391  0.00  0.00    -0.302 NA
ATOM     23  H   UNL     1      -5.823  -9.426  17.115  0.00  0.00    +0.123 HD
BRANCH   5  11
ATOM     11  C   UNL     1      -5.322 -11.195  16.210  0.00  0.00    +0.118 C 
BRANCH  11  13
ATOM      1 CL   UNL     1      -5.153 -10.769  13.161  0.00  0.00    -0.083 Cl
ATOM     13  C   UNL     1      -3.984 -10.879  15.620  0.00  0.00    -0.015 A 
ATOM     16  C   UNL     1      -3.819 -10.672  14.251  0.00  0.00    +0.045 A 
ATOM     17  C   UNL     1      -2.887 -10.794  16.476  0.00  0.00    +0.006 A 
ATOM     19  C   UNL     1      -2.555 -10.379  13.739  0.00  0.00    +0.020 A 
ATOM     20  C   UNL     1      -1.623 -10.501  15.963  0.00  0.00    +0.000 A 
ATOM     21  C   UNL     1      -1.457 -10.293  14.595  0.00  0.00    +0.001 A 
ENDBRANCH  11  13
ENDBRANCH   5  11
ENDBRANCH   7   5
BRANCH   7  10
ATOM     10  C   UNL     1      -7.877 -11.368  17.394  0.00  0.00    +0.085 C 
BRANCH  10  12
ATOM      3  O   UNL     1      -9.064  -8.422  15.672  0.00  0.00    -0.357 OA
ATOM      6  N   UNL     1      -8.251  -9.544  15.773  0.00  0.00    -0.083 NA
ATOM     12  C   UNL     1      -8.574 -10.101  16.944  0.00  0.00    +0.086 A 
ATOM     14  C   UNL     1      -9.575  -9.381  17.619  0.00  0.00    +0.073 A 
ATOM     15  C   UNL     1      -9.848  -8.335  16.777  0.00  0.00    +0.163 A 
BRANCH  15  18
ATOM     18  C   UNL     1     -10.776  -7.199  16.835  0.00  0.00    +0.236 C 
BRANCH  18   4
ATOM      4  O   UNL     1     -10.464  -6.251  15.811  0.00  0.00    -0.375 OA
ATOM     22  C   UNL     1     -11.624  -5.874  15.089  0.00  0.00    +0.194 C 
ENDBRANCH  18   4
ENDBRANCH  15  18
ENDBRANCH  10  12
ENDBRANCH   7  10
TORSDOF 7
ENDMDL
MODEL 5
REMARK VINA RESULT:      -5.1      3.247      6.859
REMARK  Name = 56775536
REMARK  8 active torsions:
REMARK  status: ('A' for Active; 'I' for Inactive)
REMARK    1  A    between atoms: O_4  and  C_18
REMARK    2  A    between atoms: O_4  and  C_22
REMARK    3  A    between atoms: N_5  and  C_7
REMARK    4  A    between atoms: N_5  and  C_11
REMARK    5  A    between atoms: C_7  and  C_10
REMARK    6  A    between atoms: C_10  and  C_12
REMARK    7  A    between atoms: C_11  and  C_13
REMARK    8  A    between atoms: C_15  and  C_18
REMARK                            x       y       z     vdW  Elec       q    Type
REMARK                         _______ _______ _______ _____ _____    ______ ____
ROOT
ATOM      2  O   UNL     1      -3.003 -14.029  13.308  0.00  0.00    -0.376 OA
ATOM      7  C   UNL     1      -2.903 -12.178  14.367  0.00  0.00    +0.072 C 
ATOM      8  C   UNL     1      -1.945 -13.293  13.962  0.00  0.00    +0.184 C 
ATOM      9  C   UNL     1      -3.944 -12.964  13.578  0.00  0.00    +0.184 C 
ENDROOT
BRANCH   7   5
ATOM      5  N   UNL     1      -3.199 -12.307  15.797  0.00  0.00    -0.302 NA
ATOM     23  H   UNL     1      -4.061 -12.804  16.018  0.00  0.00    +0.123 HD
BRANCH   5  11
ATOM     11  C   UNL     1      -3.214 -10.978  16.405  0.00  0.00    +0.118 C 
BRANCH  11  13
ATOM      1 CL   UNL     1      -3.730 -11.999  19.269  0.00  0.00    -0.083 Cl
ATOM     13  C   UNL     1      -4.532 -10.658  17.036  0.00  0.00    -0.015 A 
ATOM     16  C   UNL     1      -4.846 -11.081  18.327  0.00  0.00    +0.045 A 
ATOM     17  C   UNL     1      -5.456  -9.917  16.299  0.00  0.00    +0.006 A 
ATOM     19  C   UNL     1      -6.087 -10.762  18.881  0.00  0.00    +0.020 A 
ATOM     20  C   UNL     1      -6.695  -9.599  16.854  0.00  0.00    +0.000 A 
ATOM     21  C   UNL     1      -7.011 -10.021  18.145  0.00  0.00    +0.001 A 
ENDBRANCH  11  13
ENDBRANCH   5  11
ENDBRANCH   7   5
BRANCH   7  10
ATOM     10  C   UNL     1      -2.594 -10.770  13.960  0.00  0.00    +0.085 C 
BRANCH  10  12
ATOM      3  O   UNL     1      -4.960  -9.763  11.422  0.00  0.00    -0.357 OA
ATOM      6  N   UNL     1      -4.605 -10.019  12.740  0.00  0.00    -0.083 NA
ATOM     12  C   UNL     1      -3.327 -10.406  12.685  0.00  0.00    +0.086 A 
ATOM     14  C   UNL     1      -2.827 -10.414  11.372  0.00  0.00    +0.073 A 
ATOM     15  C   UNL     1      -3.893 -10.002  10.615  0.00  0.00    +0.163 A 
BRANCH  15  18
ATOM     18  C   UNL     1      -4.095  -9.780   9.179  0.00  0.00    +0.236 C 
BRANCH  18   4
ATOM      4  O   UNL     1      -5.354  -9.142   8.947  0.00  0.00    -0.375 OA
ATOM     22  C   UNL     1      -5.992  -9.669   7.795  0.00  0.00    +0.194 C 
ENDBRANCH  18   4
ENDBRANCH  15  18
ENDBRANCH  10  12
ENDBRANCH   7  10
TORSDOF 7
ENDMDL
MODEL 6
REMARK VINA RESULT:      -5.0     26.245     28.156
REMARK  Name = 56775536
REMARK  8 active torsions:
REMARK  status: ('A' for Active; 'I' for Inactive)
REMARK    1  A    between atoms: O_4  and  C_18
REMARK    2  A    between atoms: O_4  and  C_22
REMARK    3  A    between atoms: N_5  and  C_7
REMARK    4  A    between atoms: N_5  and  C_11
REMARK    5  A    between atoms: C_7  and  C_10
REMARK    6  A    between atoms: C_10  and  C_12
REMARK    7  A    between atoms: C_11  and  C_13
REMARK    8  A    between atoms: C_15  and  C_18
REMARK                            x       y       z     vdW  Elec       q    Type
REMARK                         _______ _______ _______ _____ _____    ______ ____
ROOT
ATOM      2  O   UNL     1      15.741   9.171  21.394  0.00  0.00    -0.376 OA
ATOM      7  C   UNL     1      13.617   9.341  21.277  0.00  0.00    +0.072 C 
ATOM      8  C   UNL     1      14.807   9.479  20.335  0.00  0.00    +0.184 C 
ATOM      9  C   UNL     1      14.654   8.933  22.317  0.00  0.00    +0.184 C 
ENDROOT
BRANCH   7   5
ATOM      5  N   UNL     1      13.119  10.680  21.609  0.00  0.00    -0.302 NA
ATOM     23  H   UNL     1      13.637  11.167  22.339  0.00  0.00    +0.123 HD
BRANCH   5  11
ATOM     11  C   UNL     1      11.705  10.591  21.969  0.00  0.00    +0.118 C 
BRANCH  11  13
ATOM      1 CL   UNL     1      11.215  10.828  25.004  0.00  0.00    -0.083 Cl
ATOM     13  C   UNL     1      11.172  11.886  22.493  0.00  0.00    -0.015 A 
ATOM     16  C   UNL     1      10.922  12.078  23.851  0.00  0.00    +0.045 A 
ATOM     17  C   UNL     1      10.925  12.916  21.586  0.00  0.00    +0.006 A 
ATOM     19  C   UNL     1      10.424  13.302  24.302  0.00  0.00    +0.020 A 
ATOM     20  C   UNL     1      10.428  14.138  22.036  0.00  0.00    +0.000 A 
ATOM     21  C   UNL     1      10.177  14.331  23.394  0.00  0.00    +0.001 A 
ENDBRANCH  11  13
ENDBRANCH   5  11
ENDBRANCH   7   5
BRANCH   7  10
ATOM     10  C   UNL     1      12.520   8.382  20.929  0.00  0.00    +0.085 C 
BRANCH  10  12
ATOM      3  O   UNL     1      12.031   7.386  17.491  0.00  0.00    -0.357 OA
ATOM      6  N   UNL     1      12.173   7.107  18.844  0.00  0.00    -0.083 NA
ATOM     12  C   UNL     1      12.335   8.298  19.429  0.00  0.00    +0.086 A 
ATOM     14  C   UNL     1      12.305   9.354  18.503  0.00  0.00    +0.073 A 
ATOM     15  C   UNL     1      12.111   8.728  17.300  0.00  0.00    +0.163 A 
BRANCH  15  18
ATOM     18  C   UNL     1      11.981   9.202  15.917  0.00  0.00    +0.236 C 
BRANCH  18   4
ATOM      4  O   UNL     1      13.273   9.400  15.335  0.00  0.00    -0.375 OA
ATOM     22  C   UNL     1      13.518  10.774  15.085  0.00  0.00    +0.194 C 
ENDBRANCH  18   4
ENDBRANCH  15  18
ENDBRANCH  10  12
ENDBRANCH   7  10
TORSDOF 7
ENDMDL
MODEL 7
REMARK VINA RESULT:      -5.0     14.111     16.433
REMARK  Name = 56775536
REMARK  8 active torsions:
REMARK  status: ('A' for Active; 'I' for Inactive)
REMARK    1  A    between atoms: O_4  and  C_18
REMARK    2  A    between atoms: O_4  and  C_22
REMARK    3  A    between atoms: N_5  and  C_7
REMARK    4  A    between atoms: N_5  and  C_11
REMARK    5  A    between atoms: C_7  and  C_10
REMARK    6  A    between atoms: C_10  and  C_12
REMARK    7  A    between atoms: C_11  and  C_13
REMARK    8  A    between atoms: C_15  and  C_18
REMARK                            x       y       z     vdW  Elec       q    Type
REMARK                         _______ _______ _______ _____ _____    ______ ____
ROOT
ATOM      2  O   UNL     1      -2.364  -2.198  25.469  0.00  0.00    -0.376 OA
ATOM      7  C   UNL     1      -1.830  -0.327  24.591  0.00  0.00    +0.072 C 
ATOM      8  C   UNL     1      -2.689  -0.818  25.750  0.00  0.00    +0.184 C 
ATOM      9  C   UNL     1      -1.459  -1.795  24.415  0.00  0.00    +0.184 C 
ENDROOT
BRANCH   7   5
ATOM      5  N   UNL     1      -2.709   0.072  23.488  0.00  0.00    -0.302 NA
ATOM     23  H   UNL     1      -2.485  -0.340  22.584  0.00  0.00    +0.123 HD
BRANCH   5  11
ATOM     11  C   UNL     1      -2.719   1.531  23.387  0.00  0.00    +0.118 C 
BRANCH  11  13
ATOM      1 CL   UNL     1      -1.963   4.137  24.852  0.00  0.00    -0.083 Cl
ATOM     13  C   UNL     1      -3.743   2.153  24.282  0.00  0.00    -0.015 A 
ATOM     16  C   UNL     1      -3.483   3.331  24.981  0.00  0.00    +0.045 A 
ATOM     17  C   UNL     1      -4.982   1.526  24.407  0.00  0.00    +0.006 A 
ATOM     19  C   UNL     1      -4.465   3.882  25.807  0.00  0.00    +0.020 A 
ATOM     20  C   UNL     1      -5.963   2.077  25.232  0.00  0.00    +0.000 A 
ATOM     21  C   UNL     1      -5.704   3.255  25.932  0.00  0.00    +0.001 A 
ENDBRANCH  11  13
ENDBRANCH   5  11
ENDBRANCH   7   5
BRANCH   7  10
ATOM     10  C   UNL     1      -0.744   0.668  24.861  0.00  0.00    +0.085 C 
BRANCH  10  12
ATOM      3  O   UNL     1       1.520  -0.317  22.224  0.00  0.00    -0.357 OA
ATOM      6  N   UNL     1       0.297  -0.373  22.879  0.00  0.00    -0.083 NA
ATOM     12  C   UNL     1       0.418   0.468  23.911  0.00  0.00    +0.086 A 
ATOM     14  C   UNL     1       1.684   1.076  23.957  0.00  0.00    +0.073 A 
ATOM     15  C   UNL     1       2.339   0.549  22.875  0.00  0.00    +0.163 A 
BRANCH  15  18
ATOM     18  C   UNL     1       3.682   0.729  22.312  0.00  0.00    +0.236 C 
BRANCH  18   4
ATOM      4  O   UNL     1       4.626   0.994  23.354  0.00  0.00    -0.375 OA
ATOM     22  C   UNL     1       5.447  -0.134  23.602  0.00  0.00    +0.194 C 
ENDBRANCH  18   4
ENDBRANCH  15  18
ENDBRANCH  10  12
ENDBRANCH   7  10
TORSDOF 7
ENDMDL
MODEL 8
REMARK VINA RESULT:      -4.9     22.625     25.472
REMARK  Name = 56775536
REMARK  8 active torsions:
REMARK  status: ('A' for Active; 'I' for Inactive)
REMARK    1  A    between atoms: O_4  and  C_18
REMARK    2  A    between atoms: O_4  and  C_22
REMARK    3  A    between atoms: N_5  and  C_7
REMARK    4  A    between atoms: N_5  and  C_11
REMARK    5  A    between atoms: C_7  and  C_10
REMARK    6  A    between atoms: C_10  and  C_12
REMARK    7  A    between atoms: C_11  and  C_13
REMARK    8  A    between atoms: C_15  and  C_18
REMARK                            x       y       z     vdW  Elec       q    Type
REMARK                         _______ _______ _______ _____ _____    ______ ____
ROOT
ATOM      2  O   UNL     1      10.717   8.651   1.814  0.00  0.00    -0.376 OA
ATOM      7  C   UNL     1      10.890   6.611   2.417  0.00  0.00    +0.072 C 
ATOM      8  C   UNL     1      11.568   7.549   1.425  0.00  0.00    +0.184 C 
ATOM      9  C   UNL     1      10.097   7.842   2.840  0.00  0.00    +0.184 C 
ENDROOT
BRANCH   7   5
ATOM      5  N   UNL     1      10.002   5.707   1.681  0.00  0.00    -0.302 NA
ATOM     23  H   UNL     1       9.061   5.617   2.063  0.00  0.00    +0.123 HD
BRANCH   5  11
ATOM     11  C   UNL     1      10.632   4.392   1.580  0.00  0.00    +0.118 C 
BRANCH  11  13
ATOM      1 CL   UNL     1      13.443   3.125   1.557  0.00  0.00    -0.083 Cl
ATOM     13  C   UNL     1      11.293   4.181   0.256  0.00  0.00    -0.015 A 
ATOM     16  C   UNL     1      12.563   3.614   0.155  0.00  0.00    +0.045 A 
ATOM     17  C   UNL     1      10.607   4.566  -0.895  0.00  0.00    +0.006 A 
ATOM     19  C   UNL     1      13.148   3.433  -1.099  0.00  0.00    +0.020 A 
ATOM     20  C   UNL     1      11.192   4.384  -2.149  0.00  0.00    +0.000 A 
ATOM     21  C   UNL     1      12.462   3.817  -2.251  0.00  0.00    +0.001 A 
ENDBRANCH  11  13
ENDBRANCH   5  11
ENDBRANCH   7   5
BRANCH   7  10
ATOM     10  C   UNL     1      11.728   5.903   3.437  0.00  0.00    +0.085 C 
BRANCH  10  12
ATOM      3  O   UNL     1       9.504   5.156   6.184  0.00  0.00    -0.357 OA
ATOM      6  N   UNL     1       9.919   5.020   4.865  0.00  0.00    -0.083 NA
ATOM     12  C   UNL     1      10.997   5.803   4.759  0.00  0.00    +0.086 A 
ATOM     14  C   UNL     1      11.306   6.451   5.967  0.00  0.00    +0.073 A 
ATOM     15  C   UNL     1      10.338   6.011   6.830  0.00  0.00    +0.163 A 
BRANCH  15  18
ATOM     18  C   UNL     1      10.043   6.270   8.244  0.00  0.00    +0.236 C 
BRANCH  18   4
ATOM      4  O   UNL     1      10.458   5.162   9.049  0.00  0.00    -0.375 OA
ATOM     22  C   UNL     1       9.350   4.544   9.682  0.00  0.00    +0.194 C 
ENDBRANCH  18   4
ENDBRANCH  15  18
ENDBRANCH  10  12
ENDBRANCH   7  10
TORSDOF 7
ENDMDL
MODEL 9
REMARK VINA RESULT:      -4.8     26.830     28.782
REMARK  Name = 56775536
REMARK  8 active torsions:
REMARK  status: ('A' for Active; 'I' for Inactive)
REMARK    1  A    between atoms: O_4  and  C_18
REMARK    2  A    between atoms: O_4  and  C_22
REMARK    3  A    between atoms: N_5  and  C_7
REMARK    4  A    between atoms: N_5  and  C_11
REMARK    5  A    between atoms: C_7  and  C_10
REMARK    6  A    between atoms: C_10  and  C_12
REMARK    7  A    between atoms: C_11  and  C_13
REMARK    8  A    between atoms: C_15  and  C_18
REMARK                            x       y       z     vdW  Elec       q    Type
REMARK                         _______ _______ _______ _____ _____    ______ ____
ROOT
ATOM      2  O   UNL     1      10.922  10.359  23.605  0.00  0.00    -0.376 OA
ATOM      7  C   UNL     1      12.117   9.719  21.956  0.00  0.00    +0.072 C 
ATOM      8  C   UNL     1      10.829   9.282  22.645  0.00  0.00    +0.184 C 
ATOM      9  C   UNL     1      12.096  10.882  22.942  0.00  0.00    +0.184 C 
ENDROOT
BRANCH   7   5
ATOM      5  N   UNL     1      13.192   8.798  22.337  0.00  0.00    -0.302 NA
ATOM     23  H   UNL     1      14.135   9.174  22.252  0.00  0.00    +0.123 HD
BRANCH   5  11
ATOM     11  C   UNL     1      13.069   7.568  21.556  0.00  0.00    +0.118 C 
BRANCH  11  13
ATOM      1 CL   UNL     1      13.061   7.203  18.494  0.00  0.00    -0.083 Cl
ATOM     13  C   UNL     1      14.354   7.187  20.893  0.00  0.00    -0.015 A 
ATOM     16  C   UNL     1      14.438   7.003  19.514  0.00  0.00    +0.045 A 
ATOM     17  C   UNL     1      15.485   7.018  21.691  0.00  0.00    +0.006 A 
ATOM     19  C   UNL     1      15.656   6.647  18.932  0.00  0.00    +0.020 A 
ATOM     20  C   UNL     1      16.702   6.663  21.109  0.00  0.00    +0.000 A 
ATOM     21  C   UNL     1      16.788   6.478  19.729  0.00  0.00    +0.001 A 
ENDBRANCH  11  13
ENDBRANCH   5  11
ENDBRANCH   7   5
BRANCH   7  10
ATOM     10  C   UNL     1      12.093  10.012  20.487  0.00  0.00    +0.085 C 
BRANCH  10  12
ATOM      3  O   UNL     1      15.204  11.704  19.773  0.00  0.00    -0.357 OA
ATOM      6  N   UNL     1      14.472  10.594  20.176  0.00  0.00    -0.083 NA
ATOM     12  C   UNL     1      13.194  10.983  20.114  0.00  0.00    +0.086 A 
ATOM     14  C   UNL     1      13.061  12.313  19.683  0.00  0.00    +0.073 A 
ATOM     15  C   UNL     1      14.354  12.722  19.482  0.00  0.00    +0.163 A 
BRANCH  15  18
ATOM     18  C   UNL     1      14.965  13.979  19.037  0.00  0.00    +0.236 C 
BRANCH  18   4
ATOM      4  O   UNL     1      14.589  15.050  19.907  0.00  0.00    -0.375 OA
ATOM     22  C   UNL     1      15.301  14.991  21.132  0.00  0.00    +0.194 C 
ENDBRANCH  18   4
ENDBRANCH  15  18
ENDBRANCH  10  12
ENDBRANCH   7  10
TORSDOF 7
ENDMDL
MODEL 10
REMARK VINA RESULT:      -4.8     22.446     25.264
REMARK  Name = 56775536
REMARK  8 active torsions:
REMARK  status: ('A' for Active; 'I' for Inactive)
REMARK    1  A    between atoms: O_4  and  C_18
REMARK    2  A    between atoms: O_4  and  C_22
REMARK    3  A    between atoms: N_5  and  C_7
REMARK    4  A    between atoms: N_5  and  C_11
REMARK    5  A    between atoms: C_7  and  C_10
REMARK    6  A    between atoms: C_10  and  C_12
REMARK    7  A    between atoms: C_11  and  C_13
REMARK    8  A    between atoms: C_15  and  C_18
REMARK                            x       y       z     vdW  Elec       q    Type
REMARK                         _______ _______ _______ _____ _____    ______ ____
ROOT
ATOM      2  O   UNL     1      10.165   9.499   2.072  0.00  0.00    -0.376 OA
ATOM      7  C   UNL     1       9.730   7.678   3.097  0.00  0.00    +0.072 C 
ATOM      8  C   UNL     1      10.422   9.001   3.404  0.00  0.00    +0.184 C 
ATOM      9  C   UNL     1       9.414   8.307   1.744  0.00  0.00    +0.184 C 
ENDROOT
BRANCH   7   5
ATOM      5  N   UNL     1      10.751   6.643   2.908  0.00  0.00    -0.302 NA
ATOM     23  H   UNL     1      11.668   6.986   2.625  0.00  0.00    +0.123 HD
BRANCH   5  11
ATOM     11  C   UNL     1      10.263   5.657   1.945  0.00  0.00    +0.118 C 
BRANCH  11  13
ATOM      1 CL   UNL     1      11.078   6.348  -0.948  0.00  0.00    -0.083 Cl
ATOM     13  C   UNL     1      11.375   4.873   1.325  0.00  0.00    -0.015 A 
ATOM     16  C   UNL     1      11.806   5.121   0.022  0.00  0.00    +0.045 A 
ATOM     17  C   UNL     1      11.985   3.875   2.083  0.00  0.00    +0.006 A 
ATOM     19  C   UNL     1      12.848   4.368  -0.522  0.00  0.00    +0.020 A 
ATOM     20  C   UNL     1      13.026   3.122   1.539  0.00  0.00    +0.000 A 
ATOM     21  C   UNL     1      13.457   3.369   0.237  0.00  0.00    +0.001 A 
ENDBRANCH  11  13
ENDBRANCH   5  11
ENDBRANCH   7   5
BRANCH   7  10
ATOM     10  C   UNL     1       8.599   7.228   3.970  0.00  0.00    +0.085 C 
BRANCH  10  12
ATOM      3  O   UNL     1       9.729   4.813   6.407  0.00  0.00    -0.357 OA
ATOM      6  N   UNL     1       9.230   5.158   5.157  0.00  0.00    -0.083 NA
ATOM     12  C   UNL     1       9.119   6.490   5.186  0.00  0.00    +0.086 A 
ATOM     14  C   UNL     1       9.527   7.033   6.415  0.00  0.00    +0.073 A 
ATOM     15  C   UNL     1       9.902   5.937   7.148  0.00  0.00    +0.163 A 
BRANCH  15  18
ATOM     18  C   UNL     1      10.426   5.753   8.506  0.00  0.00    +0.236 C 
BRANCH  18   4
ATOM      4  O   UNL     1      10.069   4.462   9.006  0.00  0.00    -0.375 OA
ATOM     22  C   UNL     1       9.212   4.565  10.130  0.00  0.00    +0.194 C 
ENDBRANCH  18   4
ENDBRANCH  15  18
ENDBRANCH  10  12
ENDBRANCH   7  10
TORSDOF 7
ENDMDL
