MODEL 1
REMARK VINA RESULT:      -6.8      0.000      0.000
REMARK  Name = 75536679
REMARK  7 active torsions:
REMARK  status: ('A' for Active; 'I' for Inactive)
REMARK    1  A    between atoms: S_1  and  N_9
REMARK    2  A    between atoms: S_1  and  C_21
REMARK    3  A    between atoms: O_5  and  C_12
REMARK    4  A    between atoms: N_8  and  C_10
REMARK    5  A    between atoms: N_8  and  C_11
REMARK    6  A    between atoms: N_9  and  C_20
REMARK    7  A    between atoms: C_13  and  C_20
REMARK                            x       y       z     vdW  Elec       q    Type
REMARK                         _______ _______ _______ _____ _____    ______ ____
ROOT
ATOM      4  O   UNL     1     -17.544   1.560  25.958  0.00  0.00    -0.371 OA
ATOM     10  C   UNL     1     -16.326   3.059  27.341  0.00  0.00    +0.111 C 
ATOM     12  C   UNL     1     -16.053   3.394  25.887  0.00  0.00    +0.164 C 
ATOM     13  C   UNL     1     -17.253   2.750  25.206  0.00  0.00    +0.164 C 
ATOM     16  C   UNL     1     -16.870   1.644  27.226  0.00  0.00    +0.181 C 
ENDROOT
BRANCH  12   5
ATOM      5  O   UNL     1     -15.997   4.787  25.649  0.00  0.00    -0.388 OA
ATOM     28  H   UNL     1     -16.650   5.222  26.223  0.00  0.00    +0.210 HD
ENDBRANCH  12   5
BRANCH  10   8
ATOM      8  N   UNL     1     -15.149   3.145  28.190  0.00  0.00    -0.306 NA
ATOM     27  H   UNL     1     -14.862   4.118  28.296  0.00  0.00    +0.123 HD
BRANCH   8  11
ATOM      2  F   UNL     1     -14.858   1.392  33.463  0.00  0.00    -0.206 F 
ATOM      3  F   UNL     1     -13.333   2.473  32.350  0.00  0.00    -0.206 F 
ATOM     11  C   UNL     1     -15.413   2.558  29.503  0.00  0.00    +0.054 C 
ATOM     14  C   UNL     1     -14.390   1.454  29.794  0.00  0.00    +0.024 C 
ATOM     15  C   UNL     1     -15.373   3.650  30.579  0.00  0.00    +0.024 C 
ATOM     17  C   UNL     1     -14.591   0.864  31.189  0.00  0.00    +0.077 C 
ATOM     18  C   UNL     1     -15.575   3.062  31.974  0.00  0.00    +0.077 C 
ATOM     19  C   UNL     1     -14.583   1.946  32.257  0.00  0.00    +0.249 C 
ENDBRANCH   8  11
ENDBRANCH  10   8
BRANCH  13  20
ATOM     20  C   UNL     1     -16.999   2.390  23.754  0.00  0.00    +0.140 C 
BRANCH  20   9
ATOM      9  N   UNL     1     -16.029   3.339  23.171  0.00  0.00    -0.187 NA
ATOM     29  H   UNL     1     -15.149   3.452  23.689  0.00  0.00    +0.148 HD
BRANCH   9   1
ATOM      1  S   UNL     1     -16.575   4.633  22.210  0.00  0.00    +0.058 S 
ATOM      6  O   UNL     1     -17.333   5.556  23.034  0.00  0.00    -0.153 OA
ATOM      7  O   UNL     1     -17.151   4.104  20.989  0.00  0.00    -0.153 OA
BRANCH   1  21
ATOM     21  C   UNL     1     -15.057   5.421  21.767  0.00  0.00    +0.105 A 
ATOM     22  C   UNL     1     -15.068   6.525  20.914  0.00  0.00    +0.028 A 
ATOM     23  C   UNL     1     -13.848   4.937  22.266  0.00  0.00    +0.028 A 
ATOM     24  C   UNL     1     -13.870   7.145  20.561  0.00  0.00    +0.002 A 
ATOM     25  C   UNL     1     -12.649   5.557  21.912  0.00  0.00    +0.002 A 
ATOM     26  C   UNL     1     -12.661   6.662  21.059  0.00  0.00    +0.000 A 
ENDBRANCH   1  21
ENDBRANCH   9   1
ENDBRANCH  20   9
ENDBRANCH  13  20
TORSDOF 7
ENDMDL
MODEL 2
REMARK VINA RESULT:      -6.7      4.769      9.480
REMARK  Name = 75536679
REMARK  7 active torsions:
REMARK  status: ('A' for Active; 'I' for Inactive)
REMARK    1  A    between atoms: S_1  and  N_9
REMARK    2  A    between atoms: S_1  and  C_21
REMARK    3  A    between atoms: O_5  and  C_12
REMARK    4  A    between atoms: N_8  and  C_10
REMARK    5  A    between atoms: N_8  and  C_11
REMARK    6  A    between atoms: N_9  and  C_20
REMARK    7  A    between atoms: C_13  and  C_20
REMARK                            x       y       z     vdW  Elec       q    Type
REMARK                         _______ _______ _______ _____ _____    ______ ____
ROOT
ATOM      4  O   UNL     1     -16.230   4.702  21.716  0.00  0.00    -0.371 OA
ATOM     10  C   UNL     1     -14.097   5.734  21.879  0.00  0.00    +0.111 C 
ATOM     12  C   UNL     1     -14.449   5.110  23.216  0.00  0.00    +0.164 C 
ATOM     13  C   UNL     1     -15.506   4.096  22.799  0.00  0.00    +0.164 C 
ATOM     16  C   UNL     1     -15.462   5.810  21.215  0.00  0.00    +0.181 C 
ENDROOT
BRANCH  12   5
ATOM      5  O   UNL     1     -13.340   4.490  23.838  0.00  0.00    -0.388 OA
ATOM     28  H   UNL     1     -12.950   3.859  23.210  0.00  0.00    +0.210 HD
ENDBRANCH  12   5
BRANCH  10   8
ATOM      8  N   UNL     1     -13.450   7.031  21.993  0.00  0.00    -0.306 NA
ATOM     27  H   UNL     1     -12.649   6.971  22.621  0.00  0.00    +0.123 HD
BRANCH   8  11
ATOM      2  F   UNL     1     -10.680   9.281  17.724  0.00  0.00    -0.206 F 
ATOM      3  F   UNL     1     -10.039   9.176  19.800  0.00  0.00    -0.206 F 
ATOM     11  C   UNL     1     -13.021   7.513  20.681  0.00  0.00    +0.054 C 
ATOM     14  C   UNL     1     -12.835   9.033  20.721  0.00  0.00    +0.024 C 
ATOM     15  C   UNL     1     -11.725   6.805  20.265  0.00  0.00    +0.024 C 
ATOM     17  C   UNL     1     -12.318   9.565  19.385  0.00  0.00    +0.077 C 
ATOM     18  C   UNL     1     -11.208   7.335  18.929  0.00  0.00    +0.077 C 
ATOM     19  C   UNL     1     -11.050   8.846  18.954  0.00  0.00    +0.249 C 
ENDBRANCH   8  11
ENDBRANCH  10   8
BRANCH  13  20
ATOM     20  C   UNL     1     -16.464   3.732  23.918  0.00  0.00    +0.140 C 
BRANCH  20   9
ATOM      9  N   UNL     1     -15.944   2.562  24.655  0.00  0.00    -0.187 NA
ATOM     29  H   UNL     1     -15.106   2.121  24.257  0.00  0.00    +0.148 HD
BRANCH   9   1
ATOM      1  S   UNL     1     -16.999   1.605  25.586  0.00  0.00    +0.058 S 
ATOM      6  O   UNL     1     -16.729   0.203  25.326  0.00  0.00    -0.153 OA
ATOM      7  O   UNL     1     -18.346   2.124  25.458  0.00  0.00    -0.153 OA
BRANCH   1  21
ATOM     21  C   UNL     1     -16.460   1.966  27.230  0.00  0.00    +0.105 A 
ATOM     22  C   UNL     1     -16.419   0.953  28.189  0.00  0.00    +0.028 A 
ATOM     23  C   UNL     1     -16.080   3.264  27.570  0.00  0.00    +0.028 A 
ATOM     24  C   UNL     1     -15.998   1.238  29.487  0.00  0.00    +0.002 A 
ATOM     25  C   UNL     1     -15.659   3.549  28.870  0.00  0.00    +0.002 A 
ATOM     26  C   UNL     1     -15.618   2.536  29.828  0.00  0.00    +0.000 A 
ENDBRANCH   1  21
ENDBRANCH   9   1
ENDBRANCH  20   9
ENDBRANCH  13  20
TORSDOF 7
ENDMDL
MODEL 3
REMARK VINA RESULT:      -6.4      1.810      2.440
REMARK  Name = 75536679
REMARK  7 active torsions:
REMARK  status: ('A' for Active; 'I' for Inactive)
REMARK    1  A    between atoms: S_1  and  N_9
REMARK    2  A    between atoms: S_1  and  C_21
REMARK    3  A    between atoms: O_5  and  C_12
REMARK    4  A    between atoms: N_8  and  C_10
REMARK    5  A    between atoms: N_8  and  C_11
REMARK    6  A    between atoms: N_9  and  C_20
REMARK    7  A    between atoms: C_13  and  C_20
REMARK                            x       y       z     vdW  Elec       q    Type
REMARK                         _______ _______ _______ _____ _____    ______ ____
ROOT
ATOM      4  O   UNL     1     -18.267   5.470  25.567  0.00  0.00    -0.371 OA
ATOM     10  C   UNL     1     -16.813   3.871  26.554  0.00  0.00    +0.111 C 
ATOM     12  C   UNL     1     -16.368   4.132  25.127  0.00  0.00    +0.164 C 
ATOM     13  C   UNL     1     -17.017   5.483  24.858  0.00  0.00    +0.164 C 
ATOM     16  C   UNL     1     -18.240   4.395  26.523  0.00  0.00    +0.181 C 
ENDROOT
BRANCH  12   5
ATOM      5  O   UNL     1     -14.960   4.188  24.996  0.00  0.00    -0.388 OA
ATOM     28  H   UNL     1     -14.692   3.557  24.308  0.00  0.00    +0.210 HD
ENDBRANCH  12   5
BRANCH  10   8
ATOM      8  N   UNL     1     -16.732   2.474  26.944  0.00  0.00    -0.306 NA
ATOM     27  H   UNL     1     -16.024   1.993  26.390  0.00  0.00    +0.123 HD
BRANCH   8  11
ATOM      2  F   UNL     1     -14.267   1.662  31.866  0.00  0.00    -0.206 F 
ATOM      3  F   UNL     1     -13.368   1.464  29.895  0.00  0.00    -0.206 F 
ATOM     11  C   UNL     1     -16.420   2.350  28.367  0.00  0.00    +0.054 C 
ATOM     14  C   UNL     1     -15.997   0.911  28.683  0.00  0.00    +0.024 C 
ATOM     15  C   UNL     1     -15.320   3.349  28.747  0.00  0.00    +0.024 C 
ATOM     17  C   UNL     1     -15.594   0.760  30.149  0.00  0.00    +0.077 C 
ATOM     18  C   UNL     1     -14.917   3.200  30.213  0.00  0.00    +0.077 C 
ATOM     19  C   UNL     1     -14.526   1.768  30.539  0.00  0.00    +0.249 C 
ENDBRANCH   8  11
ENDBRANCH  10   8
BRANCH  13  20
ATOM     20  C   UNL     1     -17.265   5.747  23.384  0.00  0.00    +0.140 C 
BRANCH  20   9
ATOM      9  N   UNL     1     -16.050   6.322  22.773  0.00  0.00    -0.187 NA
ATOM     29  H   UNL     1     -15.995   7.349  22.768  0.00  0.00    +0.148 HD
BRANCH   9   1
ATOM      1  S   UNL     1     -15.216   5.463  21.564  0.00  0.00    +0.058 S 
ATOM      6  O   UNL     1     -16.086   5.280  20.418  0.00  0.00    -0.153 OA
ATOM      7  O   UNL     1     -14.555   4.321  22.167  0.00  0.00    -0.153 OA
BRANCH   1  21
ATOM     21  C   UNL     1     -13.952   6.611  21.110  0.00  0.00    +0.105 A 
ATOM     22  C   UNL     1     -12.609   6.239  21.193  0.00  0.00    +0.028 A 
ATOM     23  C   UNL     1     -14.295   7.890  20.672  0.00  0.00    +0.028 A 
ATOM     24  C   UNL     1     -11.611   7.146  20.838  0.00  0.00    +0.002 A 
ATOM     25  C   UNL     1     -13.296   8.797  20.318  0.00  0.00    +0.002 A 
ATOM     26  C   UNL     1     -11.955   8.425  20.401  0.00  0.00    +0.000 A 
ENDBRANCH   1  21
ENDBRANCH   9   1
ENDBRANCH  20   9
ENDBRANCH  13  20
TORSDOF 7
ENDMDL
MODEL 4
REMARK VINA RESULT:      -6.4     19.112     21.028
REMARK  Name = 75536679
REMARK  7 active torsions:
REMARK  status: ('A' for Active; 'I' for Inactive)
REMARK    1  A    between atoms: S_1  and  N_9
REMARK    2  A    between atoms: S_1  and  C_21
REMARK    3  A    between atoms: O_5  and  C_12
REMARK    4  A    between atoms: N_8  and  C_10
REMARK    5  A    between atoms: N_8  and  C_11
REMARK    6  A    between atoms: N_9  and  C_20
REMARK    7  A    between atoms: C_13  and  C_20
REMARK                            x       y       z     vdW  Elec       q    Type
REMARK                         _______ _______ _______ _____ _____    ______ ____
ROOT
ATOM      4  O   UNL     1      -4.946 -12.375  18.210  0.00  0.00    -0.371 OA
ATOM     10  C   UNL     1      -4.602 -11.529  16.017  0.00  0.00    +0.111 C 
ATOM     12  C   UNL     1      -5.360 -10.498  16.832  0.00  0.00    +0.164 C 
ATOM     13  C   UNL     1      -5.025 -10.940  18.250  0.00  0.00    +0.164 C 
ATOM     16  C   UNL     1      -4.831 -12.788  16.837  0.00  0.00    +0.181 C 
ENDROOT
BRANCH  12   5
ATOM      5  O   UNL     1      -4.929  -9.175  16.576  0.00  0.00    -0.388 OA
ATOM     28  H   UNL     1      -3.963  -9.183  16.472  0.00  0.00    +0.210 HD
ENDBRANCH  12   5
BRANCH  10   8
ATOM      8  N   UNL     1      -5.073 -11.652  14.648  0.00  0.00    -0.306 NA
ATOM     27  H   UNL     1      -6.069 -11.436  14.597  0.00  0.00    +0.123 HD
BRANCH   8  11
ATOM      2  F   UNL     1      -2.158  -9.428  10.463  0.00  0.00    -0.206 F 
ATOM      3  F   UNL     1      -2.878 -11.474  10.623  0.00  0.00    -0.206 F 
ATOM     11  C   UNL     1      -4.325 -10.764  13.759  0.00  0.00    +0.054 C 
ATOM     14  C   UNL     1      -2.903 -11.301  13.565  0.00  0.00    +0.024 C 
ATOM     15  C   UNL     1      -5.057 -10.632  12.418  0.00  0.00    +0.024 C 
ATOM     17  C   UNL     1      -2.112 -10.435  12.585  0.00  0.00    +0.077 C 
ATOM     18  C   UNL     1      -4.269  -9.766  11.438  0.00  0.00    +0.077 C 
ATOM     19  C   UNL     1      -2.847 -10.276  11.265  0.00  0.00    +0.249 C 
ENDBRANCH   8  11
ENDBRANCH  10   8
BRANCH  13  20
ATOM     20  C   UNL     1      -6.061 -10.512  19.273  0.00  0.00    +0.140 C 
BRANCH  20   9
ATOM      9  N   UNL     1      -7.239  -9.951  18.581  0.00  0.00    -0.187 NA
ATOM     29  H   UNL     1      -7.241  -8.930  18.459  0.00  0.00    +0.148 HD
BRANCH   9   1
ATOM      1  S   UNL     1      -8.734 -10.760  18.651  0.00  0.00    +0.058 S 
ATOM      6  O   UNL     1      -9.134 -10.909  20.038  0.00  0.00    -0.153 OA
ATOM      7  O   UNL     1      -8.687 -11.917  17.778  0.00  0.00    -0.153 OA
BRANCH   1  21
ATOM     21  C   UNL     1      -9.817  -9.586  17.896  0.00  0.00    +0.105 A 
ATOM     22  C   UNL     1     -11.197  -9.799  17.913  0.00  0.00    +0.028 A 
ATOM     23  C   UNL     1      -9.295  -8.450  17.279  0.00  0.00    +0.028 A 
ATOM     24  C   UNL     1     -12.052  -8.875  17.314  0.00  0.00    +0.002 A 
ATOM     25  C   UNL     1     -10.150  -7.526  16.679  0.00  0.00    +0.002 A 
ATOM     26  C   UNL     1     -11.529  -7.739  16.697  0.00  0.00    +0.000 A 
ENDBRANCH   1  21
ENDBRANCH   9   1
ENDBRANCH  20   9
ENDBRANCH  13  20
TORSDOF 7
ENDMDL
MODEL 5
REMARK VINA RESULT:      -6.3     19.822     21.131
REMARK  Name = 75536679
REMARK  7 active torsions:
REMARK  status: ('A' for Active; 'I' for Inactive)
REMARK    1  A    between atoms: S_1  and  N_9
REMARK    2  A    between atoms: S_1  and  C_21
REMARK    3  A    between atoms: O_5  and  C_12
REMARK    4  A    between atoms: N_8  and  C_10
REMARK    5  A    between atoms: N_8  and  C_11
REMARK    6  A    between atoms: N_9  and  C_20
REMARK    7  A    between atoms: C_13  and  C_20
REMARK                            x       y       z     vdW  Elec       q    Type
REMARK                         _______ _______ _______ _____ _____    ______ ____
ROOT
ATOM      4  O   UNL     1      -6.808 -12.205  13.352  0.00  0.00    -0.371 OA
ATOM     10  C   UNL     1      -7.337 -10.211  14.529  0.00  0.00    +0.111 C 
ATOM     12  C   UNL     1      -6.428  -9.872  13.362  0.00  0.00    +0.164 C 
ATOM     13  C   UNL     1      -6.632 -11.086  12.467  0.00  0.00    +0.164 C 
ATOM     16  C   UNL     1      -7.100 -11.706  14.669  0.00  0.00    +0.181 C 
ENDROOT
BRANCH  12   5
ATOM      5  O   UNL     1      -6.798  -8.670  12.714  0.00  0.00    -0.388 OA
ATOM     28  H   UNL     1      -7.304  -8.127  13.341  0.00  0.00    +0.210 HD
ENDBRANCH  12   5
BRANCH  10   8
ATOM      8  N   UNL     1      -7.028  -9.473  15.743  0.00  0.00    -0.306 NA
ATOM     27  H   UNL     1      -7.801  -8.853  15.984  0.00  0.00    +0.123 HD
BRANCH   8  11
ATOM      2  F   UNL     1      -5.927 -11.756  20.696  0.00  0.00    -0.206 F 
ATOM      3  F   UNL     1      -6.131  -9.640  20.239  0.00  0.00    -0.206 F 
ATOM     11  C   UNL     1      -6.760 -10.388  16.851  0.00  0.00    +0.054 C 
ATOM     14  C   UNL     1      -5.369 -10.109  17.431  0.00  0.00    +0.024 C 
ATOM     15  C   UNL     1      -7.848 -10.242  17.922  0.00  0.00    +0.024 C 
ATOM     17  C   UNL     1      -5.081 -11.001  18.639  0.00  0.00    +0.077 C 
ATOM     18  C   UNL     1      -7.563 -11.133  19.129  0.00  0.00    +0.077 C 
ATOM     19  C   UNL     1      -6.172 -10.882  19.689  0.00  0.00    +0.249 C 
ENDBRANCH   8  11
ENDBRANCH  10   8
BRANCH  13  20
ATOM     20  C   UNL     1      -5.464 -11.348  11.534  0.00  0.00    +0.140 C 
BRANCH  20   9
ATOM      9  N   UNL     1      -4.417 -10.330  11.753  0.00  0.00    -0.187 NA
ATOM     29  H   UNL     1      -4.655  -9.374  11.460  0.00  0.00    +0.148 HD
BRANCH   9   1
ATOM      1  S   UNL     1      -2.777 -10.784  11.773  0.00  0.00    +0.058 S 
ATOM      6  O   UNL     1      -1.985  -9.750  11.134  0.00  0.00    -0.153 OA
ATOM      7  O   UNL     1      -2.664 -12.163  11.337  0.00  0.00    -0.153 OA
BRANCH   1  21
ATOM     21  C   UNL     1      -2.414 -10.757  13.502  0.00  0.00    +0.105 A 
ATOM     22  C   UNL     1      -1.401  -9.931  13.989  0.00  0.00    +0.028 A 
ATOM     23  C   UNL     1      -3.137 -11.565  14.380  0.00  0.00    +0.028 A 
ATOM     24  C   UNL     1      -1.111  -9.912  15.353  0.00  0.00    +0.002 A 
ATOM     25  C   UNL     1      -2.847 -11.546  15.744  0.00  0.00    +0.002 A 
ATOM     26  C   UNL     1      -1.834 -10.719  16.230  0.00  0.00    +0.000 A 
ENDBRANCH   1  21
ENDBRANCH   9   1
ENDBRANCH  20   9
ENDBRANCH  13  20
TORSDOF 7
ENDMDL
MODEL 6
REMARK VINA RESULT:      -6.2     32.313     35.837
REMARK  Name = 75536679
REMARK  7 active torsions:
REMARK  status: ('A' for Active; 'I' for Inactive)
REMARK    1  A    between atoms: S_1  and  N_9
REMARK    2  A    between atoms: S_1  and  C_21
REMARK    3  A    between atoms: O_5  and  C_12
REMARK    4  A    between atoms: N_8  and  C_10
REMARK    5  A    between atoms: N_8  and  C_11
REMARK    6  A    between atoms: N_9  and  C_20
REMARK    7  A    between atoms: C_13  and  C_20
REMARK                            x       y       z     vdW  Elec       q    Type
REMARK                         _______ _______ _______ _____ _____    ______ ____
ROOT
ATOM      4  O   UNL     1      12.603   7.289   3.398  0.00  0.00    -0.371 OA
ATOM     10  C   UNL     1      10.786   6.088   4.346  0.00  0.00    +0.111 C 
ATOM     12  C   UNL     1      11.143   5.471   3.007  0.00  0.00    +0.164 C 
ATOM     13  C   UNL     1      12.569   5.972   2.823  0.00  0.00    +0.164 C 
ATOM     16  C   UNL     1      11.441   7.455   4.231  0.00  0.00    +0.181 C 
ENDROOT
BRANCH  12   5
ATOM      5  O   UNL     1      11.080   4.057   3.024  0.00  0.00    -0.388 OA
ATOM     28  H   UNL     1      11.132   3.738   2.107  0.00  0.00    +0.210 HD
ENDBRANCH  12   5
BRANCH  10   8
ATOM      8  N   UNL     1       9.355   6.166   4.589  0.00  0.00    -0.306 NA
ATOM     27  H   UNL     1       8.852   5.579   3.925  0.00  0.00    +0.123 HD
BRANCH   8  11
ATOM      2  F   UNL     1       9.464   5.039  10.037  0.00  0.00    -0.206 F 
ATOM      3  F   UNL     1      11.067   5.889   8.837  0.00  0.00    -0.206 F 
ATOM     11  C   UNL     1       9.038   5.755   5.956  0.00  0.00    +0.054 C 
ATOM     14  C   UNL     1       9.988   4.637   6.397  0.00  0.00    +0.024 C 
ATOM     15  C   UNL     1       9.127   6.964   6.897  0.00  0.00    +0.024 C 
ATOM     17  C   UNL     1       9.732   4.230   7.848  0.00  0.00    +0.077 C 
ATOM     18  C   UNL     1       8.870   6.559   8.347  0.00  0.00    +0.077 C 
ATOM     19  C   UNL     1       9.789   5.428   8.780  0.00  0.00    +0.249 C 
ENDBRANCH   8  11
ENDBRANCH  10   8
BRANCH  13  20
ATOM     20  C   UNL     1      13.000   6.036   1.369  0.00  0.00    +0.140 C 
BRANCH  20   9
ATOM      9  N   UNL     1      14.360   5.481   1.231  0.00  0.00    -0.187 NA
ATOM     29  H   UNL     1      15.086   6.146   0.934  0.00  0.00    +0.148 HD
BRANCH   9   1
ATOM      1  S   UNL     1      14.575   3.833   0.865  0.00  0.00    +0.058 S 
ATOM      6  O   UNL     1      13.778   3.032   1.775  0.00  0.00    -0.153 OA
ATOM      7  O   UNL     1      15.991   3.565   0.707  0.00  0.00    -0.153 OA
BRANCH   1  21
ATOM     21  C   UNL     1      13.845   3.719  -0.740  0.00  0.00    +0.105 A 
ATOM     22  C   UNL     1      14.449   4.353  -1.827  0.00  0.00    +0.028 A 
ATOM     23  C   UNL     1      12.663   3.001  -0.920  0.00  0.00    +0.028 A 
ATOM     24  C   UNL     1      13.871   4.267  -3.093  0.00  0.00    +0.002 A 
ATOM     25  C   UNL     1      12.085   2.916  -2.187  0.00  0.00    +0.002 A 
ATOM     26  C   UNL     1      12.690   3.549  -3.274  0.00  0.00    +0.000 A 
ENDBRANCH   1  21
ENDBRANCH   9   1
ENDBRANCH  20   9
ENDBRANCH  13  20
TORSDOF 7
ENDMDL
MODEL 7
REMARK VINA RESULT:      -6.1     16.341     17.521
REMARK  Name = 75536679
REMARK  7 active torsions:
REMARK  status: ('A' for Active; 'I' for Inactive)
REMARK    1  A    between atoms: S_1  and  N_9
REMARK    2  A    between atoms: S_1  and  C_21
REMARK    3  A    between atoms: O_5  and  C_12
REMARK    4  A    between atoms: N_8  and  C_10
REMARK    5  A    between atoms: N_8  and  C_11
REMARK    6  A    between atoms: N_9  and  C_20
REMARK    7  A    between atoms: C_13  and  C_20
REMARK                            x       y       z     vdW  Elec       q    Type
REMARK                         _______ _______ _______ _____ _____    ______ ____
ROOT
ATOM      4  O   UNL     1     -10.561 -10.931  16.465  0.00  0.00    -0.371 OA
ATOM     10  C   UNL     1      -8.528  -9.802  16.952  0.00  0.00    +0.111 C 
ATOM     12  C   UNL     1      -9.629  -8.777  16.753  0.00  0.00    +0.164 C 
ATOM     13  C   UNL     1     -10.870  -9.628  16.987  0.00  0.00    +0.164 C 
ATOM     16  C   UNL     1      -9.136 -11.028  16.289  0.00  0.00    +0.181 C 
ENDROOT
BRANCH  12   5
ATOM      5  O   UNL     1      -9.547  -7.702  17.670  0.00  0.00    -0.388 OA
ATOM     28  H   UNL     1      -8.887  -7.069  17.339  0.00  0.00    +0.210 HD
ENDBRANCH  12   5
BRANCH  10   8
ATOM      8  N   UNL     1      -7.257  -9.414  16.365  0.00  0.00    -0.306 NA
ATOM     27  H   UNL     1      -7.244  -8.410  16.183  0.00  0.00    +0.123 HD
BRANCH   8  11
ATOM      2  F   UNL     1      -3.611 -12.070  19.623  0.00  0.00    -0.206 F 
ATOM      3  F   UNL     1      -5.335 -12.924  18.608  0.00  0.00    -0.206 F 
ATOM     11  C   UNL     1      -6.147  -9.775  17.245  0.00  0.00    +0.054 C 
ATOM     14  C   UNL     1      -6.690 -10.307  18.576  0.00  0.00    +0.024 C 
ATOM     15  C   UNL     1      -5.252 -10.812  16.556  0.00  0.00    +0.024 C 
ATOM     17  C   UNL     1      -5.558 -10.762  19.496  0.00  0.00    +0.077 C 
ATOM     18  C   UNL     1      -4.119 -11.266  17.474  0.00  0.00    +0.077 C 
ATOM     19  C   UNL     1      -4.651 -11.767  18.807  0.00  0.00    +0.249 C 
ENDBRANCH   8  11
ENDBRANCH  10   8
BRANCH  13  20
ATOM     20  C   UNL     1     -12.111  -9.082  16.304  0.00  0.00    +0.140 C 
BRANCH  20   9
ATOM      9  N   UNL     1     -11.721  -8.066  15.307  0.00  0.00    -0.187 NA
ATOM     29  H   UNL     1     -10.826  -8.230  14.828  0.00  0.00    +0.148 HD
BRANCH   9   1
ATOM      1  S   UNL     1     -12.273  -6.463  15.462  0.00  0.00    +0.058 S 
ATOM      6  O   UNL     1     -11.264  -5.672  16.142  0.00  0.00    -0.153 OA
ATOM      7  O   UNL     1     -13.638  -6.480  15.950  0.00  0.00    -0.153 OA
BRANCH   1  21
ATOM     21  C   UNL     1     -12.332  -5.936  13.777  0.00  0.00    +0.105 A 
ATOM     22  C   UNL     1     -12.267  -4.576  13.469  0.00  0.00    +0.028 A 
ATOM     23  C   UNL     1     -12.449  -6.877  12.754  0.00  0.00    +0.028 A 
ATOM     24  C   UNL     1     -12.318  -4.159  12.140  0.00  0.00    +0.002 A 
ATOM     25  C   UNL     1     -12.501  -6.459  11.424  0.00  0.00    +0.002 A 
ATOM     26  C   UNL     1     -12.435  -5.100  11.117  0.00  0.00    +0.000 A 
ENDBRANCH   1  21
ENDBRANCH   9   1
ENDBRANCH  20   9
ENDBRANCH  13  20
TORSDOF 7
ENDMDL
MODEL 8
REMARK VINA RESULT:      -6.1     33.370     36.808
REMARK  Name = 75536679
REMARK  7 active torsions:
REMARK  status: ('A' for Active; 'I' for Inactive)
REMARK    1  A    between atoms: S_1  and  N_9
REMARK    2  A    between atoms: S_1  and  C_21
REMARK    3  A    between atoms: O_5  and  C_12
REMARK    4  A    between atoms: N_8  and  C_10
REMARK    5  A    between atoms: N_8  and  C_11
REMARK    6  A    between atoms: N_9  and  C_20
REMARK    7  A    between atoms: C_13  and  C_20
REMARK                            x       y       z     vdW  Elec       q    Type
REMARK                         _______ _______ _______ _____ _____    ______ ____
ROOT
ATOM      4  O   UNL     1      13.778   8.591   1.824  0.00  0.00    -0.371 OA
ATOM     10  C   UNL     1      13.291   7.242   3.719  0.00  0.00    +0.111 C 
ATOM     12  C   UNL     1      14.556   6.728   3.055  0.00  0.00    +0.164 C 
ATOM     13  C   UNL     1      14.989   7.951   2.260  0.00  0.00    +0.164 C 
ATOM     16  C   UNL     1      12.683   8.073   2.600  0.00  0.00    +0.181 C 
ENDROOT
BRANCH  12   5
ATOM      5  O   UNL     1      15.540   6.332   3.991  0.00  0.00    -0.388 OA
ATOM     28  H   UNL     1      15.589   5.361   3.991  0.00  0.00    +0.210 HD
ENDBRANCH  12   5
BRANCH  10   8
ATOM      8  N   UNL     1      12.407   6.188   4.185  0.00  0.00    -0.306 NA
ATOM     27  H   UNL     1      12.935   5.492   4.710  0.00  0.00    +0.123 HD
BRANCH   8  11
ATOM      2  F   UNL     1       8.400   7.004   7.958  0.00  0.00    -0.206 F 
ATOM      3  F   UNL     1       9.571   5.196   7.652  0.00  0.00    -0.206 F 
ATOM     11  C   UNL     1      11.340   6.737   5.020  0.00  0.00    +0.054 C 
ATOM     14  C   UNL     1      10.060   5.916   4.837  0.00  0.00    +0.024 C 
ATOM     15  C   UNL     1      11.784   6.754   6.488  0.00  0.00    +0.024 C 
ATOM     17  C   UNL     1       8.941   6.418   5.748  0.00  0.00    +0.077 C 
ATOM     18  C   UNL     1      10.668   7.257   7.401  0.00  0.00    +0.077 C 
ATOM     19  C   UNL     1       9.386   6.465   7.200  0.00  0.00    +0.249 C 
ENDBRANCH   8  11
ENDBRANCH  10   8
BRANCH  13  20
ATOM     20  C   UNL     1      15.851   7.612   1.057  0.00  0.00    +0.140 C 
BRANCH  20   9
ATOM      9  N   UNL     1      16.151   6.166   1.056  0.00  0.00    -0.187 NA
ATOM     29  H   UNL     1      17.020   5.890   1.532  0.00  0.00    +0.148 HD
BRANCH   9   1
ATOM      1  S   UNL     1      15.566   5.175  -0.198  0.00  0.00    +0.058 S 
ATOM      6  O   UNL     1      16.390   3.985  -0.293  0.00  0.00    -0.153 OA
ATOM      7  O   UNL     1      15.325   5.992  -1.372  0.00  0.00    -0.153 OA
BRANCH   1  21
ATOM     21  C   UNL     1      13.985   4.694   0.429  0.00  0.00    +0.105 A 
ATOM     22  C   UNL     1      12.845   5.417   0.076  0.00  0.00    +0.028 A 
ATOM     23  C   UNL     1      13.878   3.595   1.281  0.00  0.00    +0.028 A 
ATOM     24  C   UNL     1      11.598   5.040   0.573  0.00  0.00    +0.002 A 
ATOM     25  C   UNL     1      12.630   3.218   1.779  0.00  0.00    +0.002 A 
ATOM     26  C   UNL     1      11.491   3.941   1.425  0.00  0.00    +0.000 A 
ENDBRANCH   1  21
ENDBRANCH   9   1
ENDBRANCH  20   9
ENDBRANCH  13  20
TORSDOF 7
ENDMDL
MODEL 9
REMARK VINA RESULT:      -6.1     22.048     24.112
REMARK  Name = 75536679
REMARK  7 active torsions:
REMARK  status: ('A' for Active; 'I' for Inactive)
REMARK    1  A    between atoms: S_1  and  N_9
REMARK    2  A    between atoms: S_1  and  C_21
REMARK    3  A    between atoms: O_5  and  C_12
REMARK    4  A    between atoms: N_8  and  C_10
REMARK    5  A    between atoms: N_8  and  C_11
REMARK    6  A    between atoms: N_9  and  C_20
REMARK    7  A    between atoms: C_13  and  C_20
REMARK                            x       y       z     vdW  Elec       q    Type
REMARK                         _______ _______ _______ _____ _____    ______ ____
ROOT
ATOM      4  O   UNL     1      -5.240 -14.371  12.980  0.00  0.00    -0.371 OA
ATOM     10  C   UNL     1      -3.653 -13.849  11.291  0.00  0.00    +0.111 C 
ATOM     12  C   UNL     1      -3.141 -13.343  12.627  0.00  0.00    +0.164 C 
ATOM     13  C   UNL     1      -3.953 -14.191  13.595  0.00  0.00    +0.164 C 
ATOM     16  C   UNL     1      -5.134 -14.029  11.587  0.00  0.00    +0.181 C 
ENDROOT
BRANCH  12   5
ATOM      5  O   UNL     1      -1.749 -13.544  12.789  0.00  0.00    -0.388 OA
ATOM     28  H   UNL     1      -1.604 -14.464  13.068  0.00  0.00    +0.210 HD
ENDBRANCH  12   5
BRANCH  10   8
ATOM      8  N   UNL     1      -3.404 -12.938  10.187  0.00  0.00    -0.306 NA
ATOM     27  H   UNL     1      -3.672 -13.373   9.304  0.00  0.00    +0.123 HD
BRANCH   8  11
ATOM      2  F   UNL     1      -5.347  -7.735   9.856  0.00  0.00    -0.206 F 
ATOM      3  F   UNL     1      -3.749  -8.620   8.676  0.00  0.00    -0.206 F 
ATOM     11  C   UNL     1      -4.139 -11.688  10.370  0.00  0.00    +0.054 C 
ATOM     14  C   UNL     1      -3.177 -10.577  10.804  0.00  0.00    +0.024 C 
ATOM     15  C   UNL     1      -4.867 -11.317   9.071  0.00  0.00    +0.024 C 
ATOM     17  C   UNL     1      -3.899  -9.237  10.937  0.00  0.00    +0.077 C 
ATOM     18  C   UNL     1      -5.590  -9.979   9.203  0.00  0.00    +0.077 C 
ATOM     19  C   UNL     1      -4.647  -8.879   9.663  0.00  0.00    +0.249 C 
ENDBRANCH   8  11
ENDBRANCH  10   8
BRANCH  13  20
ATOM     20  C   UNL     1      -4.122 -13.549  14.960  0.00  0.00    +0.140 C 
BRANCH  20   9
ATOM      9  N   UNL     1      -2.911 -12.775  15.296  0.00  0.00    -0.187 NA
ATOM     29  H   UNL     1      -2.153 -13.305  15.746  0.00  0.00    +0.148 HD
BRANCH   9   1
ATOM      1  S   UNL     1      -3.025 -11.106  15.606  0.00  0.00    +0.058 S 
ATOM      6  O   UNL     1      -3.682 -10.454  14.489  0.00  0.00    -0.153 OA
ATOM      7  O   UNL     1      -1.741 -10.624  16.078  0.00  0.00    -0.153 OA
BRANCH   1  21
ATOM     21  C   UNL     1      -4.130 -11.067  16.984  0.00  0.00    +0.105 A 
ATOM     22  C   UNL     1      -3.801 -11.743  18.161  0.00  0.00    +0.028 A 
ATOM     23  C   UNL     1      -5.332 -10.366  16.896  0.00  0.00    +0.028 A 
ATOM     24  C   UNL     1      -4.674 -11.717  19.247  0.00  0.00    +0.002 A 
ATOM     25  C   UNL     1      -6.206 -10.340  17.983  0.00  0.00    +0.002 A 
ATOM     26  C   UNL     1      -5.876 -11.016  19.159  0.00  0.00    +0.000 A 
ENDBRANCH   1  21
ENDBRANCH   9   1
ENDBRANCH  20   9
ENDBRANCH  13  20
TORSDOF 7
ENDMDL
MODEL 10
REMARK VINA RESULT:      -6.0      5.199      8.969
REMARK  Name = 75536679
REMARK  7 active torsions:
REMARK  status: ('A' for Active; 'I' for Inactive)
REMARK    1  A    between atoms: S_1  and  N_9
REMARK    2  A    between atoms: S_1  and  C_21
REMARK    3  A    between atoms: O_5  and  C_12
REMARK    4  A    between atoms: N_8  and  C_10
REMARK    5  A    between atoms: N_8  and  C_11
REMARK    6  A    between atoms: N_9  and  C_20
REMARK    7  A    between atoms: C_13  and  C_20
REMARK                            x       y       z     vdW  Elec       q    Type
REMARK                         _______ _______ _______ _____ _____    ______ ____
ROOT
ATOM      4  O   UNL     1     -14.631   0.374  31.238  0.00  0.00    -0.371 OA
ATOM     10  C   UNL     1     -15.543   1.124  29.177  0.00  0.00    +0.111 C 
ATOM     12  C   UNL     1     -14.966   2.311  29.926  0.00  0.00    +0.164 C 
ATOM     13  C   UNL     1     -14.006   1.619  30.882  0.00  0.00    +0.164 C 
ATOM     16  C   UNL     1     -15.683   0.104  30.296  0.00  0.00    +0.181 C 
ENDROOT
BRANCH  12   5
ATOM      5  O   UNL     1     -14.297   3.221  29.073  0.00  0.00    -0.388 OA
ATOM     28  H   UNL     1     -14.897   3.962  28.885  0.00  0.00    +0.210 HD
ENDBRANCH  12   5
BRANCH  10   8
ATOM      8  N   UNL     1     -16.803   1.410  28.512  0.00  0.00    -0.306 NA
ATOM     27  H   UNL     1     -17.122   2.348  28.749  0.00  0.00    +0.123 HD
BRANCH   8  11
ATOM      2  F   UNL     1     -17.410   1.761  22.992  0.00  0.00    -0.206 F 
ATOM      3  F   UNL     1     -18.653   2.693  24.514  0.00  0.00    -0.206 F 
ATOM     11  C   UNL     1     -16.664   1.283  27.062  0.00  0.00    +0.054 C 
ATOM     14  C   UNL     1     -17.914   0.620  26.474  0.00  0.00    +0.024 C 
ATOM     15  C   UNL     1     -16.423   2.664  26.440  0.00  0.00    +0.024 C 
ATOM     17  C   UNL     1     -17.835   0.535  24.951  0.00  0.00    +0.077 C 
ATOM     18  C   UNL     1     -16.342   2.581  24.917  0.00  0.00    +0.077 C 
ATOM     19  C   UNL     1     -17.566   1.897  24.331  0.00  0.00    +0.249 C 
ENDBRANCH   8  11
ENDBRANCH  10   8
BRANCH  13  20
ATOM     20  C   UNL     1     -13.719   2.426  32.135  0.00  0.00    +0.140 C 
BRANCH  20   9
ATOM      9  N   UNL     1     -13.709   3.865  31.805  0.00  0.00    -0.187 NA
ATOM     29  H   UNL     1     -12.781   4.286  31.671  0.00  0.00    +0.148 HD
BRANCH   9   1
ATOM      1  S   UNL     1     -14.984   4.867  32.322  0.00  0.00    +0.058 S 
ATOM      6  O   UNL     1     -15.944   4.076  33.069  0.00  0.00    -0.153 OA
ATOM      7  O   UNL     1     -15.423   5.685  31.208  0.00  0.00    -0.153 OA
BRANCH   1  21
ATOM     21  C   UNL     1     -14.163   5.941  33.460  0.00  0.00    +0.105 A 
ATOM     22  C   UNL     1     -14.042   5.575  34.801  0.00  0.00    +0.028 A 
ATOM     23  C   UNL     1     -13.640   7.157  33.019  0.00  0.00    +0.028 A 
ATOM     24  C   UNL     1     -13.398   6.424  35.700  0.00  0.00    +0.002 A 
ATOM     25  C   UNL     1     -12.996   8.007  33.919  0.00  0.00    +0.002 A 
ATOM     26  C   UNL     1     -12.875   7.640  35.259  0.00  0.00    +0.000 A 
ENDBRANCH   1  21
ENDBRANCH   9   1
ENDBRANCH  20   9
ENDBRANCH  13  20
TORSDOF 7
ENDMDL
