MODEL 1
REMARK VINA RESULT:      -6.0      0.000      0.000
REMARK  Name = 44716627
REMARK  11 active torsions:
REMARK  status: ('A' for Active; 'I' for Inactive)
REMARK    1  A    between atoms: O_2  and  C_10
REMARK    2  A    between atoms: O_4  and  C_26
REMARK    3  A    between atoms: O_4  and  C_27
REMARK    4  A    between atoms: N_6  and  C_24
REMARK    5  A    between atoms: N_7  and  C_25
REMARK    6  A    between atoms: C_8  and  C_16
REMARK    7  A    between atoms: C_11  and  C_17
REMARK    8  A    between atoms: C_13  and  C_20
REMARK    9  A    between atoms: C_17  and  C_21
REMARK   10  A    between atoms: C_17  and  C_22
REMARK   11  A    between atoms: C_24  and  C_26
REMARK                            x       y       z     vdW  Elec       q    Type
REMARK                         _______ _______ _______ _____ _____    ______ ____
ROOT
ATOM      1  S   UNL     1      -5.227 -10.533   7.287  0.00  0.00    -0.057 S 
ATOM      5  N   UNL     1      -6.552  -8.870   8.760  0.00  0.00    -0.229 NA
ATOM      7  N   UNL     1      -7.081  -8.815   6.455  0.00  0.00    -0.327 N 
ATOM      8  C   UNL     1      -3.484 -10.772  11.005  0.00  0.00    -0.022 C 
ATOM      9  C   UNL     1      -4.785 -10.398  11.820  0.00  0.00    +0.033 C 
ATOM     10  C   UNL     1      -4.445 -10.027  13.290  0.00  0.00    +0.123 C 
ATOM     11  C   UNL     1      -3.583 -11.098  13.993  0.00  0.00    +0.029 C 
ATOM     12  C   UNL     1      -2.692 -11.864  11.762  0.00  0.00    +0.008 C 
ATOM     13  C   UNL     1      -5.653  -9.301  11.077  0.00  0.00    +0.042 C 
ATOM     14  C   UNL     1      -2.337 -11.466  13.188  0.00  0.00    +0.007 C 
ATOM     15  C   UNL     1      -3.882 -11.363   9.617  0.00  0.00    +0.051 C 
ATOM     16  C   UNL     1      -2.562  -9.545  10.783  0.00  0.00    +0.012 C 
ATOM     18  C   UNL     1      -5.709  -9.583   9.595  0.00  0.00    +0.057 A 
ATOM     19  C   UNL     1      -4.902 -10.503   8.958  0.00  0.00    +0.015 A 
ATOM     20  C   UNL     1      -7.075  -9.172  11.639  0.00  0.00    +0.014 C 
ATOM     23  C   UNL     1      -6.392  -9.294   7.525  0.00  0.00    +0.158 A 
ATOM     25  C   UNL     1      -8.090  -7.764   6.524  0.00  0.00    +0.127 C 
ATOM     30  H   UNL     1      -6.896  -9.196   5.531  0.00  0.00    +0.148 HD
ENDROOT
BRANCH  10   2
ATOM      2  O   UNL     1      -5.654  -9.899  14.039  0.00  0.00    -0.391 OA
ATOM     28  H   UNL     1      -6.147  -9.139  13.686  0.00  0.00    +0.210 HD
ENDBRANCH  10   2
BRANCH  11  17
ATOM     17  C   UNL     1      -3.172 -10.664  15.405  0.00  0.00    +0.077 C 
ATOM     21  C   UNL     1      -1.720 -11.047  15.670  0.00  0.00    +0.017 C 
BRANCH  17  22
ATOM      3  O   UNL     1      -4.137 -12.500  16.665  0.00  0.00    -0.276 OA
ATOM      6  N   UNL     1      -4.844 -10.341  17.125  0.00  0.00    -0.313 N 
ATOM     22  C   UNL     1      -4.086 -11.290  16.454  0.00  0.00    +0.216 C 
ATOM     29  H   UNL     1      -4.707  -9.354  16.933  0.00  0.00    +0.149 HD
BRANCH   6  24
ATOM     24  C   UNL     1      -5.783 -10.690  18.153  0.00  0.00    +0.132 C 
BRANCH  24  26
ATOM     26  C   UNL     1      -7.082  -9.922  18.007  0.00  0.00    +0.178 C 
BRANCH  26   4
ATOM      4  O   UNL     1      -7.137  -9.327  16.716  0.00  0.00    -0.381 OA
ATOM     27  C   UNL     1      -8.477  -9.180  16.266  0.00  0.00    +0.194 C 
ENDBRANCH  26   4
ENDBRANCH  24  26
ENDBRANCH   6  24
ENDBRANCH  17  22
ENDBRANCH  11  17
TORSDOF 6
ENDMDL
MODEL 2
REMARK VINA RESULT:      -5.8      3.161      8.212
REMARK  Name = 44716627
REMARK  11 active torsions:
REMARK  status: ('A' for Active; 'I' for Inactive)
REMARK    1  A    between atoms: O_2  and  C_10
REMARK    2  A    between atoms: O_4  and  C_26
REMARK    3  A    between atoms: O_4  and  C_27
REMARK    4  A    between atoms: N_6  and  C_24
REMARK    5  A    between atoms: N_7  and  C_25
REMARK    6  A    between atoms: C_8  and  C_16
REMARK    7  A    between atoms: C_11  and  C_17
REMARK    8  A    between atoms: C_13  and  C_20
REMARK    9  A    between atoms: C_17  and  C_21
REMARK   10  A    between atoms: C_17  and  C_22
REMARK   11  A    between atoms: C_24  and  C_26
REMARK                            x       y       z     vdW  Elec       q    Type
REMARK                         _______ _______ _______ _____ _____    ______ ____
ROOT
ATOM      1  S   UNL     1      -2.011 -10.858  15.750  0.00  0.00    -0.057 S 
ATOM      5  N   UNL     1      -4.554 -11.302  15.893  0.00  0.00    -0.229 NA
ATOM      7  N   UNL     1      -3.351 -11.694  17.892  0.00  0.00    -0.327 N 
ATOM      8  C   UNL     1      -3.378 -10.503  11.887  0.00  0.00    -0.022 C 
ATOM      9  C   UNL     1      -4.833 -10.024  12.273  0.00  0.00    +0.033 C 
ATOM     10  C   UNL     1      -5.801 -10.122  11.061  0.00  0.00    +0.123 C 
ATOM     11  C   UNL     1      -5.253  -9.421   9.799  0.00  0.00    +0.029 C 
ATOM     12  C   UNL     1      -2.894  -9.738  10.632  0.00  0.00    +0.008 C 
ATOM     13  C   UNL     1      -5.372 -10.755  13.570  0.00  0.00    +0.042 C 
ATOM     14  C   UNL     1      -3.837  -9.878   9.446  0.00  0.00    +0.007 C 
ATOM     15  C   UNL     1      -2.388 -10.170  13.047  0.00  0.00    +0.051 C 
ATOM     16  C   UNL     1      -3.322 -12.026  11.601  0.00  0.00    +0.012 C 
ATOM     18  C   UNL     1      -4.281 -10.865  14.608  0.00  0.00    +0.057 A 
ATOM     19  C   UNL     1      -2.950 -10.608  14.353  0.00  0.00    +0.015 A 
ATOM     20  C   UNL     1      -6.607 -10.076  14.179  0.00  0.00    +0.014 C 
ATOM     23  C   UNL     1      -3.436 -11.326  16.585  0.00  0.00    +0.158 A 
ATOM     25  C   UNL     1      -4.484 -12.115  18.708  0.00  0.00    +0.127 C 
ATOM     30  H   UNL     1      -2.446 -11.687  18.354  0.00  0.00    +0.148 HD
ENDROOT
BRANCH  10   2
ATOM      2  O   UNL     1      -7.039  -9.492  11.389  0.00  0.00    -0.391 OA
ATOM     28  H   UNL     1      -7.469  -9.222  10.560  0.00  0.00    +0.210 HD
ENDBRANCH  10   2
BRANCH  11  17
ATOM     17  C   UNL     1      -6.173  -9.620   8.589  0.00  0.00    +0.077 C 
ATOM     21  C   UNL     1      -5.359 -10.062   7.378  0.00  0.00    +0.017 C 
BRANCH  17  22
ATOM      3  O   UNL     1      -7.083  -7.425   9.083  0.00  0.00    -0.276 OA
ATOM      6  N   UNL     1      -7.456  -8.339   6.986  0.00  0.00    -0.313 N 
ATOM     22  C   UNL     1      -6.942  -8.341   8.275  0.00  0.00    +0.216 C 
ATOM     29  H   UNL     1      -7.251  -9.108   6.356  0.00  0.00    +0.149 HD
BRANCH   6  24
ATOM     24  C   UNL     1      -8.223  -7.244   6.463  0.00  0.00    +0.132 C 
BRANCH  24  26
ATOM     26  C   UNL     1      -8.840  -7.586   5.120  0.00  0.00    +0.178 C 
BRANCH  26   4
ATOM      4  O   UNL     1      -8.043  -8.569   4.471  0.00  0.00    -0.381 OA
ATOM     27  C   UNL     1      -7.927  -8.309   3.078  0.00  0.00    +0.194 C 
ENDBRANCH  26   4
ENDBRANCH  24  26
ENDBRANCH   6  24
ENDBRANCH  17  22
ENDBRANCH  11  17
TORSDOF 6
ENDMDL
MODEL 3
REMARK VINA RESULT:      -5.7     28.396     30.677
REMARK  Name = 44716627
REMARK  11 active torsions:
REMARK  status: ('A' for Active; 'I' for Inactive)
REMARK    1  A    between atoms: O_2  and  C_10
REMARK    2  A    between atoms: O_4  and  C_26
REMARK    3  A    between atoms: O_4  and  C_27
REMARK    4  A    between atoms: N_6  and  C_24
REMARK    5  A    between atoms: N_7  and  C_25
REMARK    6  A    between atoms: C_8  and  C_16
REMARK    7  A    between atoms: C_11  and  C_17
REMARK    8  A    between atoms: C_13  and  C_20
REMARK    9  A    between atoms: C_17  and  C_21
REMARK   10  A    between atoms: C_17  and  C_22
REMARK   11  A    between atoms: C_24  and  C_26
REMARK                            x       y       z     vdW  Elec       q    Type
REMARK                         _______ _______ _______ _____ _____    ______ ____
ROOT
ATOM      1  S   UNL     1      19.477  12.027  23.652  0.00  0.00    -0.057 S 
ATOM      5  N   UNL     1      20.545   9.896  22.652  0.00  0.00    -0.229 NA
ATOM      7  N   UNL     1      22.020  11.280  23.879  0.00  0.00    -0.327 N 
ATOM      8  C   UNL     1      16.560  10.390  21.258  0.00  0.00    -0.022 C 
ATOM      9  C   UNL     1      17.040   8.894  21.417  0.00  0.00    +0.033 C 
ATOM     10  C   UNL     1      16.386   7.973  20.349  0.00  0.00    +0.123 C 
ATOM     11  C   UNL     1      14.848   8.109  20.303  0.00  0.00    +0.029 C 
ATOM     12  C   UNL     1      15.014  10.442  21.244  0.00  0.00    +0.008 C 
ATOM     13  C   UNL     1      18.619   8.780  21.465  0.00  0.00    +0.042 C 
ATOM     14  C   UNL     1      14.395   9.563  20.167  0.00  0.00    +0.007 C 
ATOM     15  C   UNL     1      17.044  11.232  22.479  0.00  0.00    +0.051 C 
ATOM     16  C   UNL     1      17.097  11.039  19.956  0.00  0.00    +0.012 C 
ATOM     18  C   UNL     1      19.204   9.886  22.311  0.00  0.00    +0.057 A 
ATOM     19  C   UNL     1      18.486  10.980  22.748  0.00  0.00    +0.015 A 
ATOM     20  C   UNL     1      19.113   7.418  21.971  0.00  0.00    +0.014 C 
ATOM     23  C   UNL     1      20.799  10.970  23.367  0.00  0.00    +0.158 A 
ATOM     25  C   UNL     1      23.220  10.468  23.705  0.00  0.00    +0.127 C 
ATOM     30  H   UNL     1      22.133  12.132  24.421  0.00  0.00    +0.148 HD
ENDROOT
BRANCH  10   2
ATOM      2  O   UNL     1      16.680   6.609  20.654  0.00  0.00    -0.391 OA
ATOM     28  H   UNL     1      17.646   6.498  20.634  0.00  0.00    +0.210 HD
ENDBRANCH  10   2
BRANCH  11  17
ATOM     17  C   UNL     1      14.235   7.272  19.174  0.00  0.00    +0.077 C 
ATOM     21  C   UNL     1      14.292   8.044  17.859  0.00  0.00    +0.017 C 
BRANCH  17  22
ATOM      3  O   UNL     1      11.868   7.013  18.707  0.00  0.00    -0.276 OA
ATOM      6  N   UNL     1      12.667   6.391  20.791  0.00  0.00    -0.313 N 
ATOM     22  C   UNL     1      12.797   6.887  19.503  0.00  0.00    +0.216 C 
ATOM     29  H   UNL     1      13.489   6.265  21.373  0.00  0.00    +0.149 HD
BRANCH   6  24
ATOM     24  C   UNL     1      11.406   5.967  21.332  0.00  0.00    +0.132 C 
BRANCH  24  26
ATOM     26  C   UNL     1      10.637   7.129  21.931  0.00  0.00    +0.178 C 
BRANCH  26   4
ATOM      4  O   UNL     1      11.551   8.134  22.350  0.00  0.00    -0.381 OA
ATOM     27  C   UNL     1      11.022   9.437  22.145  0.00  0.00    +0.194 C 
ENDBRANCH  26   4
ENDBRANCH  24  26
ENDBRANCH   6  24
ENDBRANCH  17  22
ENDBRANCH  11  17
TORSDOF 6
ENDMDL
MODEL 4
REMARK VINA RESULT:      -5.6     26.723     27.928
REMARK  Name = 44716627
REMARK  11 active torsions:
REMARK  status: ('A' for Active; 'I' for Inactive)
REMARK    1  A    between atoms: O_2  and  C_10
REMARK    2  A    between atoms: O_4  and  C_26
REMARK    3  A    between atoms: O_4  and  C_27
REMARK    4  A    between atoms: N_6  and  C_24
REMARK    5  A    between atoms: N_7  and  C_25
REMARK    6  A    between atoms: C_8  and  C_16
REMARK    7  A    between atoms: C_11  and  C_17
REMARK    8  A    between atoms: C_13  and  C_20
REMARK    9  A    between atoms: C_17  and  C_21
REMARK   10  A    between atoms: C_17  and  C_22
REMARK   11  A    between atoms: C_24  and  C_26
REMARK                            x       y       z     vdW  Elec       q    Type
REMARK                         _______ _______ _______ _____ _____    ______ ____
ROOT
ATOM      1  S   UNL     1      14.291  -7.716  -4.815  0.00  0.00    -0.057 S 
ATOM      5  N   UNL     1      14.688  -5.166  -4.971  0.00  0.00    -0.229 NA
ATOM      7  N   UNL     1      12.844  -5.974  -6.212  0.00  0.00    -0.327 N 
ATOM      8  C   UNL     1      17.875  -7.073  -2.902  0.00  0.00    -0.022 C 
ATOM      9  C   UNL     1      17.545  -5.603  -2.427  0.00  0.00    +0.033 C 
ATOM     10  C   UNL     1      18.825  -4.858  -1.955  0.00  0.00    +0.123 C 
ATOM     11  C   UNL     1      19.632  -5.660  -0.910  0.00  0.00    +0.029 C 
ATOM     12  C   UNL     1      18.661  -7.813  -1.794  0.00  0.00    +0.008 C 
ATOM     13  C   UNL     1      16.715  -4.802  -3.513  0.00  0.00    +0.042 C 
ATOM     14  C   UNL     1      19.930  -7.087  -1.373  0.00  0.00    +0.007 C 
ATOM     15  C   UNL     1      16.550  -7.860  -3.141  0.00  0.00    +0.051 C 
ATOM     16  C   UNL     1      18.711  -7.089  -4.208  0.00  0.00    +0.012 C 
ATOM     18  C   UNL     1      15.656  -5.685  -4.128  0.00  0.00    +0.057 A 
ATOM     19  C   UNL     1      15.603  -7.054  -3.957  0.00  0.00    +0.015 A 
ATOM     20  C   UNL     1      16.073  -3.521  -2.962  0.00  0.00    +0.014 C 
ATOM     23  C   UNL     1      13.908  -6.142  -5.382  0.00  0.00    +0.158 A 
ATOM     25  C   UNL     1      12.419  -4.693  -6.764  0.00  0.00    +0.127 C 
ATOM     30  H   UNL     1      12.291  -6.782  -6.485  0.00  0.00    +0.148 HD
ENDROOT
BRANCH  10   2
ATOM      2  O   UNL     1      18.458  -3.621  -1.346  0.00  0.00    -0.391 OA
ATOM     28  H   UNL     1      18.731  -3.652  -0.413  0.00  0.00    +0.210 HD
ENDBRANCH  10   2
BRANCH  11  17
ATOM     17  C   UNL     1      20.942  -4.957  -0.538  0.00  0.00    +0.077 C 
ATOM     21  C   UNL     1      22.123  -5.670  -1.188  0.00  0.00    +0.017 C 
BRANCH  17  22
ATOM      3  O   UNL     1      20.195  -4.680   1.754  0.00  0.00    -0.276 OA
ATOM      6  N   UNL     1      22.433  -5.133   1.359  0.00  0.00    -0.313 N 
ATOM     22  C   UNL     1      21.120  -4.905   0.976  0.00  0.00    +0.216 C 
ATOM     29  H   UNL     1      23.133  -5.367   0.662  0.00  0.00    +0.149 HD
BRANCH   6  24
ATOM     24  C   UNL     1      22.848  -5.128   2.734  0.00  0.00    +0.132 C 
BRANCH  24  26
ATOM     26  C   UNL     1      22.786  -6.517   3.340  0.00  0.00    +0.178 C 
BRANCH  26   4
ATOM      4  O   UNL     1      22.186  -6.446   4.627  0.00  0.00    -0.381 OA
ATOM     27  C   UNL     1      22.096  -7.728   5.233  0.00  0.00    +0.194 C 
ENDBRANCH  26   4
ENDBRANCH  24  26
ENDBRANCH   6  24
ENDBRANCH  17  22
ENDBRANCH  11  17
TORSDOF 6
ENDMDL
MODEL 5
REMARK VINA RESULT:      -5.3      2.223      3.296
REMARK  Name = 44716627
REMARK  11 active torsions:
REMARK  status: ('A' for Active; 'I' for Inactive)
REMARK    1  A    between atoms: O_2  and  C_10
REMARK    2  A    between atoms: O_4  and  C_26
REMARK    3  A    between atoms: O_4  and  C_27
REMARK    4  A    between atoms: N_6  and  C_24
REMARK    5  A    between atoms: N_7  and  C_25
REMARK    6  A    between atoms: C_8  and  C_16
REMARK    7  A    between atoms: C_11  and  C_17
REMARK    8  A    between atoms: C_13  and  C_20
REMARK    9  A    between atoms: C_17  and  C_21
REMARK   10  A    between atoms: C_17  and  C_22
REMARK   11  A    between atoms: C_24  and  C_26
REMARK                            x       y       z     vdW  Elec       q    Type
REMARK                         _______ _______ _______ _____ _____    ______ ____
ROOT
ATOM      1  S   UNL     1      -4.936 -13.107   9.997  0.00  0.00    -0.057 S 
ATOM      5  N   UNL     1      -5.226 -10.563  10.355  0.00  0.00    -0.229 NA
ATOM      7  N   UNL     1      -5.066 -11.249   8.096  0.00  0.00    -0.327 N 
ATOM      8  C   UNL     1      -4.621 -12.554  14.061  0.00  0.00    -0.022 C 
ATOM      9  C   UNL     1      -5.547 -11.276  14.124  0.00  0.00    +0.033 C 
ATOM     10  C   UNL     1      -5.395 -10.532  15.480  0.00  0.00    +0.123 C 
ATOM     11  C   UNL     1      -5.576 -11.466  16.697  0.00  0.00    +0.029 C 
ATOM     12  C   UNL     1      -4.880 -13.445  15.299  0.00  0.00    +0.008 C 
ATOM     13  C   UNL     1      -5.346 -10.337  12.864  0.00  0.00    +0.042 C 
ATOM     14  C   UNL     1      -4.689 -12.709  16.617  0.00  0.00    +0.007 C 
ATOM     15  C   UNL     1      -4.973 -13.399  12.797  0.00  0.00    +0.051 C 
ATOM     16  C   UNL     1      -3.117 -12.183  14.013  0.00  0.00    +0.012 C 
ATOM     18  C   UNL     1      -5.228 -11.159  11.603  0.00  0.00    +0.057 A 
ATOM     19  C   UNL     1      -5.052 -12.528  11.593  0.00  0.00    +0.015 A 
ATOM     20  C   UNL     1      -6.458  -9.291  12.705  0.00  0.00    +0.014 C 
ATOM     23  C   UNL     1      -5.091 -11.492   9.434  0.00  0.00    +0.158 A 
ATOM     25  C   UNL     1      -5.183  -9.926   7.494  0.00  0.00    +0.127 C 
ATOM     30  H   UNL     1      -4.956 -12.025   7.450  0.00  0.00    +0.148 HD
ENDROOT
BRANCH  10   2
ATOM      2  O   UNL     1      -6.390  -9.514  15.578  0.00  0.00    -0.391 OA
ATOM     28  H   UNL     1      -5.988  -8.742  16.012  0.00  0.00    +0.210 HD
ENDBRANCH  10   2
BRANCH  11  17
ATOM     17  C   UNL     1      -5.317 -10.735  18.020  0.00  0.00    +0.077 C 
ATOM     21  C   UNL     1      -4.249 -11.469  18.824  0.00  0.00    +0.017 C 
BRANCH  17  22
ATOM      3  O   UNL     1      -6.616 -10.508  20.057  0.00  0.00    -0.276 OA
ATOM      6  N   UNL     1      -7.735 -10.633  18.031  0.00  0.00    -0.313 N 
ATOM     22  C   UNL     1      -6.602 -10.611  18.832  0.00  0.00    +0.216 C 
ATOM     29  H   UNL     1      -7.642 -10.666  17.021  0.00  0.00    +0.149 HD
BRANCH   6  24
ATOM     24  C   UNL     1      -9.063 -10.537  18.570  0.00  0.00    +0.132 C 
BRANCH  24  26
ATOM     26  C   UNL     1      -9.931  -9.603  17.749  0.00  0.00    +0.178 C 
BRANCH  26   4
ATOM      4  O   UNL     1      -9.105  -8.803  16.913  0.00  0.00    -0.381 OA
ATOM     27  C   UNL     1      -9.805  -7.668  16.422  0.00  0.00    +0.194 C 
ENDBRANCH  26   4
ENDBRANCH  24  26
ENDBRANCH   6  24
ENDBRANCH  17  22
ENDBRANCH  11  17
TORSDOF 6
ENDMDL
MODEL 6
REMARK VINA RESULT:      -5.2      1.599      2.099
REMARK  Name = 44716627
REMARK  11 active torsions:
REMARK  status: ('A' for Active; 'I' for Inactive)
REMARK    1  A    between atoms: O_2  and  C_10
REMARK    2  A    between atoms: O_4  and  C_26
REMARK    3  A    between atoms: O_4  and  C_27
REMARK    4  A    between atoms: N_6  and  C_24
REMARK    5  A    between atoms: N_7  and  C_25
REMARK    6  A    between atoms: C_8  and  C_16
REMARK    7  A    between atoms: C_11  and  C_17
REMARK    8  A    between atoms: C_13  and  C_20
REMARK    9  A    between atoms: C_17  and  C_21
REMARK   10  A    between atoms: C_17  and  C_22
REMARK   11  A    between atoms: C_24  and  C_26
REMARK                            x       y       z     vdW  Elec       q    Type
REMARK                         _______ _______ _______ _____ _____    ______ ____
ROOT
ATOM      1  S   UNL     1      -5.534 -10.254   7.292  0.00  0.00    -0.057 S 
ATOM      5  N   UNL     1      -6.720  -8.625   8.912  0.00  0.00    -0.229 NA
ATOM      7  N   UNL     1      -7.370  -8.440   6.645  0.00  0.00    -0.327 N 
ATOM      8  C   UNL     1      -3.603 -10.728  10.893  0.00  0.00    -0.022 C 
ATOM      9  C   UNL     1      -4.845 -10.354  11.795  0.00  0.00    +0.033 C 
ATOM     10  C   UNL     1      -4.414 -10.066  13.260  0.00  0.00    +0.123 C 
ATOM     11  C   UNL     1      -3.553 -11.197  13.863  0.00  0.00    +0.029 C 
ATOM     12  C   UNL     1      -2.809 -11.880  11.553  0.00  0.00    +0.008 C 
ATOM     13  C   UNL     1      -5.714  -9.195  11.154  0.00  0.00    +0.042 C 
ATOM     14  C   UNL     1      -2.365 -11.563  12.974  0.00  0.00    +0.007 C 
ATOM     15  C   UNL     1      -4.095 -11.238   9.502  0.00  0.00    +0.051 C 
ATOM     16  C   UNL     1      -2.653  -9.521  10.678  0.00  0.00    +0.012 C 
ATOM     18  C   UNL     1      -5.858  -9.403   9.665  0.00  0.00    +0.057 A 
ATOM     19  C   UNL     1      -5.118 -10.316   8.942  0.00  0.00    +0.015 A 
ATOM     20  C   UNL     1      -7.099  -9.049  11.799  0.00  0.00    +0.014 C 
ATOM     23  C   UNL     1      -6.642  -8.993   7.652  0.00  0.00    +0.158 A 
ATOM     25  C   UNL     1      -8.338  -7.363   6.819  0.00  0.00    +0.127 C 
ATOM     30  H   UNL     1      -7.249  -8.781   5.696  0.00  0.00    +0.148 HD
ENDROOT
BRANCH  10   2
ATOM      2  O   UNL     1      -5.576  -9.937  14.080  0.00  0.00    -0.391 OA
ATOM     28  H   UNL     1      -5.725  -8.990  14.244  0.00  0.00    +0.210 HD
ENDBRANCH  10   2
BRANCH  11  17
ATOM     17  C   UNL     1      -3.052 -10.845  15.270  0.00  0.00    +0.077 C 
ATOM     21  C   UNL     1      -1.554 -11.112  15.375  0.00  0.00    +0.017 C 
BRANCH  17  22
ATOM      3  O   UNL     1      -3.741 -11.388  17.532  0.00  0.00    -0.276 OA
ATOM      6  N   UNL     1      -4.569 -12.660  15.780  0.00  0.00    -0.313 N 
ATOM     22  C   UNL     1      -3.810 -11.637  16.330  0.00  0.00    +0.216 C 
ATOM     29  H   UNL     1      -4.619 -12.770  14.772  0.00  0.00    +0.149 HD
BRANCH   6  24
ATOM     24  C   UNL     1      -5.365 -13.546  16.581  0.00  0.00    +0.132 C 
BRANCH  24  26
ATOM     26  C   UNL     1      -5.600 -14.871  15.881  0.00  0.00    +0.178 C 
BRANCH  26   4
ATOM      4  O   UNL     1      -6.980 -15.208  15.957  0.00  0.00    -0.381 OA
ATOM     27  C   UNL     1      -7.612 -14.572  17.060  0.00  0.00    +0.194 C 
ENDBRANCH  26   4
ENDBRANCH  24  26
ENDBRANCH   6  24
ENDBRANCH  17  22
ENDBRANCH  11  17
TORSDOF 6
ENDMDL
MODEL 7
REMARK VINA RESULT:      -5.2     22.808     24.719
REMARK  Name = 44716627
REMARK  11 active torsions:
REMARK  status: ('A' for Active; 'I' for Inactive)
REMARK    1  A    between atoms: O_2  and  C_10
REMARK    2  A    between atoms: O_4  and  C_26
REMARK    3  A    between atoms: O_4  and  C_27
REMARK    4  A    between atoms: N_6  and  C_24
REMARK    5  A    between atoms: N_7  and  C_25
REMARK    6  A    between atoms: C_8  and  C_16
REMARK    7  A    between atoms: C_11  and  C_17
REMARK    8  A    between atoms: C_13  and  C_20
REMARK    9  A    between atoms: C_17  and  C_21
REMARK   10  A    between atoms: C_17  and  C_22
REMARK   11  A    between atoms: C_24  and  C_26
REMARK                            x       y       z     vdW  Elec       q    Type
REMARK                         _______ _______ _______ _____ _____    ______ ____
ROOT
ATOM      1  S   UNL     1      11.731   3.427  -2.851  0.00  0.00    -0.057 S 
ATOM      5  N   UNL     1      11.125   5.934  -3.035  0.00  0.00    -0.229 NA
ATOM      7  N   UNL     1      11.679   4.880  -5.079  0.00  0.00    -0.327 N 
ATOM      8  C   UNL     1      11.401   4.736   1.034  0.00  0.00    -0.022 C 
ATOM      9  C   UNL     1      10.345   5.872   0.734  0.00  0.00    +0.033 C 
ATOM     10  C   UNL     1      10.222   6.861   1.927  0.00  0.00    +0.123 C 
ATOM     11  C   UNL     1       9.968   6.146   3.272  0.00  0.00    +0.029 C 
ATOM     12  C   UNL     1      11.063   4.056   2.382  0.00  0.00    +0.008 C 
ATOM     13  C   UNL     1      10.624   6.589  -0.651  0.00  0.00    +0.042 C 
ATOM     14  C   UNL     1      10.984   5.036   3.544  0.00  0.00    +0.007 C 
ATOM     15  C   UNL     1      11.325   3.640  -0.073  0.00  0.00    +0.051 C 
ATOM     16  C   UNL     1      12.849   5.288   1.097  0.00  0.00    +0.012 C 
ATOM     18  C   UNL     1      11.008   5.576  -1.703  0.00  0.00    +0.057 A 
ATOM     19  C   UNL     1      11.327   4.263  -1.424  0.00  0.00    +0.015 A 
ATOM     20  C   UNL     1       9.442   7.434  -1.145  0.00  0.00    +0.014 C 
ATOM     23  C   UNL     1      11.488   4.880  -3.733  0.00  0.00    +0.158 A 
ATOM     25  C   UNL     1      11.509   6.046  -5.938  0.00  0.00    +0.127 C 
ATOM     30  H   UNL     1      11.962   4.022  -5.544  0.00  0.00    +0.148 HD
ENDROOT
BRANCH  10   2
ATOM      2  O   UNL     1       9.121   7.741   1.703  0.00  0.00    -0.391 OA
ATOM     28  H   UNL     1       8.636   7.836   2.541  0.00  0.00    +0.210 HD
ENDBRANCH  10   2
BRANCH  11  17
ATOM     17  C   UNL     1       9.956   7.129   4.449  0.00  0.00    +0.077 C 
ATOM     21  C   UNL     1      11.383   7.474   4.860  0.00  0.00    +0.017 C 
BRANCH  17  22
ATOM      3  O   UNL     1       8.002   6.227   5.570  0.00  0.00    -0.276 OA
ATOM      6  N   UNL     1       9.973   6.444   6.769  0.00  0.00    -0.313 N 
ATOM     22  C   UNL     1       9.186   6.552   5.632  0.00  0.00    +0.216 C 
ATOM     29  H   UNL     1      10.959   6.681   6.729  0.00  0.00    +0.149 HD
BRANCH   6  24
ATOM     24  C   UNL     1       9.468   5.932   8.012  0.00  0.00    +0.132 C 
BRANCH  24  26
ATOM     26  C   UNL     1       9.881   4.489   8.231  0.00  0.00    +0.178 C 
BRANCH  26   4
ATOM      4  O   UNL     1      10.017   4.242   9.624  0.00  0.00    -0.381 OA
ATOM     27  C   UNL     1       8.853   4.636  10.339  0.00  0.00    +0.194 C 
ENDBRANCH  26   4
ENDBRANCH  24  26
ENDBRANCH   6  24
ENDBRANCH  17  22
ENDBRANCH  11  17
TORSDOF 6
ENDMDL
MODEL 8
REMARK VINA RESULT:      -5.1     23.829     28.040
REMARK  Name = 44716627
REMARK  11 active torsions:
REMARK  status: ('A' for Active; 'I' for Inactive)
REMARK    1  A    between atoms: O_2  and  C_10
REMARK    2  A    between atoms: O_4  and  C_26
REMARK    3  A    between atoms: O_4  and  C_27
REMARK    4  A    between atoms: N_6  and  C_24
REMARK    5  A    between atoms: N_7  and  C_25
REMARK    6  A    between atoms: C_8  and  C_16
REMARK    7  A    between atoms: C_11  and  C_17
REMARK    8  A    between atoms: C_13  and  C_20
REMARK    9  A    between atoms: C_17  and  C_21
REMARK   10  A    between atoms: C_17  and  C_22
REMARK   11  A    between atoms: C_24  and  C_26
REMARK                            x       y       z     vdW  Elec       q    Type
REMARK                         _______ _______ _______ _____ _____    ______ ____
ROOT
ATOM      1  S   UNL     1     -10.134  -2.235  40.423  0.00  0.00    -0.057 S 
ATOM      5  N   UNL     1     -11.479  -4.202  41.425  0.00  0.00    -0.229 NA
ATOM      7  N   UNL     1     -12.448  -2.066  41.725  0.00  0.00    -0.327 N 
ATOM      8  C   UNL     1      -7.687  -5.516  40.024  0.00  0.00    -0.022 C 
ATOM      9  C   UNL     1      -8.853  -6.577  39.913  0.00  0.00    +0.033 C 
ATOM     10  C   UNL     1      -8.322  -8.024  40.110  0.00  0.00    +0.123 C 
ATOM     11  C   UNL     1      -7.124  -8.352  39.193  0.00  0.00    +0.029 C 
ATOM     12  C   UNL     1      -6.540  -5.902  39.060  0.00  0.00    +0.008 C 
ATOM     13  C   UNL     1     -10.071  -6.218  40.860  0.00  0.00    +0.042 C 
ATOM     14  C   UNL     1      -6.010  -7.309  39.294  0.00  0.00    +0.007 C 
ATOM     15  C   UNL     1      -8.208  -4.111  39.590  0.00  0.00    +0.051 C 
ATOM     16  C   UNL     1      -7.122  -5.419  41.465  0.00  0.00    +0.012 C 
ATOM     18  C   UNL     1     -10.352  -4.735  40.823  0.00  0.00    +0.057 A 
ATOM     19  C   UNL     1      -9.502  -3.806  40.258  0.00  0.00    +0.015 A 
ATOM     20  C   UNL     1     -11.348  -7.002  40.528  0.00  0.00    +0.014 C 
ATOM     23  C   UNL     1     -11.475  -2.897  41.267  0.00  0.00    +0.158 A 
ATOM     25  C   UNL     1     -13.632  -2.503  42.457  0.00  0.00    +0.127 C 
ATOM     30  H   UNL     1     -12.369  -1.066  41.562  0.00  0.00    +0.148 HD
ENDROOT
BRANCH  10   2
ATOM      2  O   UNL     1      -9.358  -8.956  39.799  0.00  0.00    -0.391 OA
ATOM     28  H   UNL     1      -9.761  -8.688  38.956  0.00  0.00    +0.210 HD
ENDBRANCH  10   2
BRANCH  11  17
ATOM     17  C   UNL     1      -6.551  -9.745  39.477  0.00  0.00    +0.077 C 
ATOM     21  C   UNL     1      -5.148  -9.626  40.063  0.00  0.00    +0.017 C 
BRANCH  17  22
ATOM      3  O   UNL     1      -5.619 -11.376  37.941  0.00  0.00    -0.276 OA
ATOM      6  N   UNL     1      -7.636 -10.369  37.406  0.00  0.00    -0.313 N 
ATOM     22  C   UNL     1      -6.527 -10.592  38.209  0.00  0.00    +0.216 C 
ATOM     29  H   UNL     1      -8.373  -9.746  37.720  0.00  0.00    +0.149 HD
BRANCH   6  24
ATOM     24  C   UNL     1      -7.833 -11.047  36.156  0.00  0.00    +0.132 C 
BRANCH  24  26
ATOM     26  C   UNL     1      -8.832 -12.180  36.287  0.00  0.00    +0.178 C 
BRANCH  26   4
ATOM      4  O   UNL     1      -8.270 -13.371  35.751  0.00  0.00    -0.381 OA
ATOM     27  C   UNL     1      -7.080 -13.104  35.022  0.00  0.00    +0.194 C 
ENDBRANCH  26   4
ENDBRANCH  24  26
ENDBRANCH   6  24
ENDBRANCH  17  22
ENDBRANCH  11  17
TORSDOF 6
ENDMDL
MODEL 9
REMARK VINA RESULT:      -5.1      3.964      8.713
REMARK  Name = 44716627
REMARK  11 active torsions:
REMARK  status: ('A' for Active; 'I' for Inactive)
REMARK    1  A    between atoms: O_2  and  C_10
REMARK    2  A    between atoms: O_4  and  C_26
REMARK    3  A    between atoms: O_4  and  C_27
REMARK    4  A    between atoms: N_6  and  C_24
REMARK    5  A    between atoms: N_7  and  C_25
REMARK    6  A    between atoms: C_8  and  C_16
REMARK    7  A    between atoms: C_11  and  C_17
REMARK    8  A    between atoms: C_13  and  C_20
REMARK    9  A    between atoms: C_17  and  C_21
REMARK   10  A    between atoms: C_17  and  C_22
REMARK   11  A    between atoms: C_24  and  C_26
REMARK                            x       y       z     vdW  Elec       q    Type
REMARK                         _______ _______ _______ _____ _____    ______ ____
ROOT
ATOM      1  S   UNL     1      -4.157 -12.305  14.544  0.00  0.00    -0.057 S 
ATOM      5  N   UNL     1      -2.718 -10.384  13.583  0.00  0.00    -0.229 NA
ATOM      7  N   UNL     1      -1.923 -11.322  15.605  0.00  0.00    -0.327 N 
ATOM      8  C   UNL     1      -6.334 -10.811  11.391  0.00  0.00    -0.022 C 
ATOM      9  C   UNL     1      -5.089 -10.318  10.552  0.00  0.00    +0.033 C 
ATOM     10  C   UNL     1      -5.520  -9.351   9.414  0.00  0.00    +0.123 C 
ATOM     11  C   UNL     1      -6.648  -9.929   8.532  0.00  0.00    +0.029 C 
ATOM     12  C   UNL     1      -7.404 -11.396  10.439  0.00  0.00    +0.008 C 
ATOM     13  C   UNL     1      -3.946  -9.732  11.478  0.00  0.00    +0.042 C 
ATOM     14  C   UNL     1      -7.839 -10.420   9.355  0.00  0.00    +0.007 C 
ATOM     15  C   UNL     1      -5.898 -11.953  12.361  0.00  0.00    +0.051 C 
ATOM     16  C   UNL     1      -6.970  -9.664  12.219  0.00  0.00    +0.012 C 
ATOM     18  C   UNL     1      -3.773 -10.587  12.712  0.00  0.00    +0.057 A 
ATOM     19  C   UNL     1      -4.663 -11.570  13.095  0.00  0.00    +0.015 A 
ATOM     20  C   UNL     1      -2.600  -9.578  10.756  0.00  0.00    +0.014 C 
ATOM     23  C   UNL     1      -2.811 -11.240  14.578  0.00  0.00    +0.158 A 
ATOM     25  C   UNL     1      -0.746 -10.473  15.750  0.00  0.00    +0.127 C 
ATOM     30  H   UNL     1      -2.069 -12.011  16.337  0.00  0.00    +0.148 HD
ENDROOT
BRANCH  10   2
ATOM      2  O   UNL     1      -4.405  -9.095   8.561  0.00  0.00    -0.391 OA
ATOM     28  H   UNL     1      -3.859  -8.406   8.976  0.00  0.00    +0.210 HD
ENDBRANCH  10   2
BRANCH  11  17
ATOM     17  C   UNL     1      -7.129  -8.918   7.484  0.00  0.00    +0.077 C 
ATOM     21  C   UNL     1      -8.648  -8.798   7.531  0.00  0.00    +0.017 C 
BRANCH  17  22
ATOM      3  O   UNL     1      -6.807  -8.604   5.100  0.00  0.00    -0.276 OA
ATOM      6  N   UNL     1      -6.093 -10.585   6.069  0.00  0.00    -0.313 N 
ATOM     22  C   UNL     1      -6.670  -9.324   6.088  0.00  0.00    +0.216 C 
ATOM     29  H   UNL     1      -5.965 -11.098   6.935  0.00  0.00    +0.149 HD
BRANCH   6  24
ATOM     24  C   UNL     1      -5.590 -11.186   4.865  0.00  0.00    +0.132 C 
BRANCH  24  26
ATOM     26  C   UNL     1      -6.700 -11.830   4.057  0.00  0.00    +0.178 C 
BRANCH  26   4
ATOM      4  O   UNL     1      -6.829 -11.159   2.811  0.00  0.00    -0.381 OA
ATOM     27  C   UNL     1      -8.189 -10.886   2.503  0.00  0.00    +0.194 C 
ENDBRANCH  26   4
ENDBRANCH  24  26
ENDBRANCH   6  24
ENDBRANCH  17  22
ENDBRANCH  11  17
TORSDOF 6
ENDMDL
MODEL 10
REMARK VINA RESULT:      -5.0      3.598      5.977
REMARK  Name = 44716627
REMARK  11 active torsions:
REMARK  status: ('A' for Active; 'I' for Inactive)
REMARK    1  A    between atoms: O_2  and  C_10
REMARK    2  A    between atoms: O_4  and  C_26
REMARK    3  A    between atoms: O_4  and  C_27
REMARK    4  A    between atoms: N_6  and  C_24
REMARK    5  A    between atoms: N_7  and  C_25
REMARK    6  A    between atoms: C_8  and  C_16
REMARK    7  A    between atoms: C_11  and  C_17
REMARK    8  A    between atoms: C_13  and  C_20
REMARK    9  A    between atoms: C_17  and  C_21
REMARK   10  A    between atoms: C_17  and  C_22
REMARK   11  A    between atoms: C_24  and  C_26
REMARK                            x       y       z     vdW  Elec       q    Type
REMARK                         _______ _______ _______ _____ _____    ______ ____
ROOT
ATOM      1  S   UNL     1      -2.446 -10.971  13.858  0.00  0.00    -0.057 S 
ATOM      5  N   UNL     1      -4.620 -12.048  12.964  0.00  0.00    -0.229 NA
ATOM      7  N   UNL     1      -2.935 -11.690  11.343  0.00  0.00    -0.327 N 
ATOM      8  C   UNL     1      -5.086 -10.826  17.009  0.00  0.00    -0.022 C 
ATOM      9  C   UNL     1      -5.909 -12.108  16.591  0.00  0.00    +0.033 C 
ATOM     10  C   UNL     1      -7.257 -12.191  17.360  0.00  0.00    +0.123 C 
ATOM     11  C   UNL     1      -7.082 -12.062  18.889  0.00  0.00    +0.029 C 
ATOM     12  C   UNL     1      -4.935 -10.783  18.548  0.00  0.00    +0.008 C 
ATOM     13  C   UNL     1      -6.073 -12.220  15.019  0.00  0.00    +0.042 C 
ATOM     14  C   UNL     1      -6.268 -10.828  19.281  0.00  0.00    +0.007 C 
ATOM     15  C   UNL     1      -3.651 -10.899  16.401  0.00  0.00    +0.051 C 
ATOM     16  C   UNL     1      -5.766  -9.516  16.533  0.00  0.00    +0.012 C 
ATOM     18  C   UNL     1      -4.783 -11.854  14.325  0.00  0.00    +0.057 A 
ATOM     19  C   UNL     1      -3.713 -11.256  14.958  0.00  0.00    +0.015 A 
ATOM     20  C   UNL     1      -6.542 -13.606  14.556  0.00  0.00    +0.014 C 
ATOM     23  C   UNL     1      -3.424 -11.631  12.611  0.00  0.00    +0.158 A 
ATOM     25  C   UNL     1      -3.666 -12.223  10.198  0.00  0.00    +0.127 C 
ATOM     30  H   UNL     1      -1.998 -11.344  11.152  0.00  0.00    +0.148 HD
ENDROOT
BRANCH  10   2
ATOM      2  O   UNL     1      -7.869 -13.456  17.111  0.00  0.00    -0.391 OA
ATOM     28  H   UNL     1      -8.442 -13.365  16.330  0.00  0.00    +0.210 HD
ENDBRANCH  10   2
BRANCH  11  17
ATOM     17  C   UNL     1      -8.430 -12.040  19.619  0.00  0.00    +0.077 C 
ATOM     21  C   UNL     1      -8.838 -13.457  20.009  0.00  0.00    +0.017 C 
BRANCH  17  22
ATOM      3  O   UNL     1     -10.285 -12.046  18.054  0.00  0.00    -0.276 OA
ATOM      6  N   UNL     1      -9.498 -10.013  18.841  0.00  0.00    -0.313 N 
ATOM     22  C   UNL     1      -9.507 -11.398  18.751  0.00  0.00    +0.216 C 
ATOM     29  H   UNL     1      -8.861  -9.550  19.481  0.00  0.00    +0.149 HD
BRANCH   6  24
ATOM     24  C   UNL     1     -10.417  -9.186  18.110  0.00  0.00    +0.132 C 
BRANCH  24  26
ATOM     26  C   UNL     1      -9.701  -8.329  17.084  0.00  0.00    +0.178 C 
BRANCH  26   4
ATOM      4  O   UNL     1      -9.339  -9.131  15.967  0.00  0.00    -0.381 OA
ATOM     27  C   UNL     1     -10.480  -9.531  15.220  0.00  0.00    +0.194 C 
ENDBRANCH  26   4
ENDBRANCH  24  26
ENDBRANCH   6  24
ENDBRANCH  17  22
ENDBRANCH  11  17
TORSDOF 6
ENDMDL
