REMARK  Name = 26745453
REMARK  6 active torsions:
REMARK  status: ('A' for Active; 'I' for Inactive)
REMARK    1  A    between atoms: O_2  and  C_15
REMARK    2  A    between atoms: O_2  and  C_22
REMARK    3  A    between atoms: N_6  and  C_13
REMARK    4  A    between atoms: C_8  and  C_15
REMARK    5  A    between atoms: C_13  and  C_17
REMARK    6  A    between atoms: C_16  and  C_18
REMARK                            x       y       z     vdW  Elec       q    Type
REMARK                         _______ _______ _______ _____ _____    ______ ____
ROOT
ATOM      4  O   UNL     1       3.997   0.488   0.268  0.00  0.00    -0.269 OA
ATOM      5  N   UNL     1       1.700   0.580  -0.199  0.00  0.00    -0.277 N 
ATOM      6  N   UNL     1      -1.685   0.350  -1.785  0.00  0.00    -0.328 N 
ATOM      7  N   UNL     1      -1.383   2.513  -2.255  0.00  0.00    -0.240 NA
ATOM      8  C   UNL     1       1.643   2.054  -0.022  0.00  0.00    +0.191 C 
ATOM      9  C   UNL     1       0.862   2.802  -1.123  0.00  0.00    +0.091 C 
ATOM     10  C   UNL     1      -0.487   0.698  -1.236  0.00  0.00    +0.059 A 
ATOM     11  C   UNL     1       0.433  -0.161  -0.468  0.00  0.00    +0.164 C 
ATOM     12  C   UNL     1      -0.327   2.028  -1.534  0.00  0.00    +0.066 A 
ATOM     14  C   UNL     1      -2.186   1.476  -2.389  0.00  0.00    +0.200 A 
ATOM     16  C   UNL     1       2.924  -0.068   0.041  0.00  0.00    +0.254 C 
ENDROOT
BRANCH  16  18
ATOM      1  S   UNL     1       3.946  -2.348  -1.101  0.00  0.00    -0.092 S 
ATOM     18  C   UNL     1       2.944  -1.538   0.028  0.00  0.00    +0.074 A 
ATOM     21  C   UNL     1       2.247  -2.419   0.825  0.00  0.00    +0.021 A 
ATOM     25  C   UNL     1       2.538  -3.776   0.505  0.00  0.00    +0.008 A 
ATOM     26  C   UNL     1       3.447  -3.881  -0.525  0.00  0.00    +0.046 A 
ENDBRANCH  16  18
BRANCH   8  15
ATOM      3  O   UNL     1       0.660   1.391   2.077  0.00  0.00    -0.249 OA
ATOM     15  C   UNL     1       1.058   2.285   1.343  0.00  0.00    +0.328 C 
BRANCH  15   2
ATOM      2  O   UNL     1       1.047   3.621   1.614  0.00  0.00    -0.467 OA
ATOM     22  C   UNL     1       0.512   3.984   2.891  0.00  0.00    +0.280 C 
ENDBRANCH  15   2
ENDBRANCH   8  15
BRANCH   6  13
ATOM     13  C   UNL     1      -2.321  -0.944  -1.746  0.00  0.00    +0.158 C 
BRANCH  13  17
ATOM     17  C   UNL     1      -2.983  -1.245  -0.424  0.00  0.00    -0.028 A 
ATOM     19  C   UNL     1      -2.618  -2.382   0.297  0.00  0.00    +0.005 A 
ATOM     20  C   UNL     1      -3.960  -0.385   0.078  0.00  0.00    +0.005 A 
ATOM     23  C   UNL     1      -3.230  -2.660   1.519  0.00  0.00    +0.000 A 
ATOM     24  C   UNL     1      -4.573  -0.663   1.300  0.00  0.00    +0.000 A 
ATOM     27  C   UNL     1      -4.207  -1.800   2.021  0.00  0.00    +0.000 A 
ENDBRANCH  13  17
ENDBRANCH   6  13
TORSDOF 5
