MODEL 1
REMARK VINA RESULT:      -7.5      0.000      0.000
REMARK  Name = 45783323
REMARK  8 active torsions:
REMARK  status: ('A' for Active; 'I' for Inactive)
REMARK    1  A    between atoms: N_3  and  C_12
REMARK    2  A    between atoms: C_9  and  C_15
REMARK    3  A    between atoms: C_12  and  C_14
REMARK    4  A    between atoms: C_14  and  C_16
REMARK    5  A    between atoms: C_14  and  C_17
REMARK    6  A    between atoms: C_14  and  C_18
REMARK    7  A    between atoms: C_19  and  C_26
REMARK    8  A    between atoms: C_25  and  C_27
REMARK                            x       y       z     vdW  Elec       q    Type
REMARK                         _______ _______ _______ _____ _____    ______ ____
ROOT
ATOM      4  N   UNL     1      14.582   8.196  20.332  0.00  0.00    -0.315 N 
ATOM      7  N   UNL     1      15.894   6.614  19.157  0.00  0.00    -0.240 NA
ATOM     19  C   UNL     1      12.093   9.646  20.698  0.00  0.00    +0.078 C 
ATOM     20  C   UNL     1      12.975   9.241  21.878  0.00  0.00    +0.031 C 
ATOM     21  C   UNL     1      12.904   9.749  19.409  0.00  0.00    +0.031 C 
ATOM     22  C   UNL     1      13.835   8.013  21.583  0.00  0.00    +0.107 C 
ATOM     23  C   UNL     1      13.788   8.527  19.146  0.00  0.00    +0.107 C 
ATOM     24  C   UNL     1      15.779   7.485  20.185  0.00  0.00    +0.122 A 
ATOM     27  C   UNL     1      17.971   7.023  20.984  0.00  0.00    +0.027 A 
ATOM     28  C   UNL     1      16.777   7.723  21.116  0.00  0.00    +0.055 A 
ATOM     29  C   UNL     1      18.127   6.118  19.939  0.00  0.00    +0.031 A 
ATOM     30  C   UNL     1      17.068   5.952  19.061  0.00  0.00    +0.113 A 
ENDROOT
BRANCH  27  25
ATOM      1  O   UNL     1      20.472   8.174  23.194  0.00  0.00    -0.336 OA
ATOM      5  N   UNL     1      19.713   6.190  22.485  0.00  0.00    -0.190 NA
ATOM      6  N   UNL     1      19.434   8.453  22.296  0.00  0.00    -0.056 NA
ATOM     15  C   UNL     1      20.571   6.820  23.247  0.00  0.00    +0.245 A 
ATOM     25  C   UNL     1      19.038   7.234  21.921  0.00  0.00    +0.202 A 
BRANCH  15   9
ATOM      3  N   UNL     1      22.766   5.662  23.422  0.00  0.00    -0.291 NA
ATOM      9  C   UNL     1      21.636   6.256  24.164  0.00  0.00    +0.146 C 
ATOM     10  C   UNL     1      22.277   7.330  25.061  0.00  0.00    +0.030 C 
ATOM     11  C   UNL     1      23.945   5.812  24.276  0.00  0.00    +0.085 C 
ATOM     13  C   UNL     1      23.772   7.224  24.801  0.00  0.00    +0.017 C 
BRANCH   3  12
ATOM     12  C   UNL     1      22.539   4.273  23.043  0.00  0.00    +0.091 C 
BRANCH  12  14
ATOM     14  C   UNL     1      22.657   4.007  21.521  0.00  0.00    -0.025 C 
ATOM     16  C   UNL     1      21.313   3.440  21.024  0.00  0.00    +0.012 C 
ATOM     17  C   UNL     1      23.762   2.979  21.217  0.00  0.00    +0.012 C 
ATOM     18  C   UNL     1      22.953   5.310  20.757  0.00  0.00    +0.012 C 
ENDBRANCH  12  14
ENDBRANCH   3  12
ENDBRANCH  15   9
ENDBRANCH  27  25
BRANCH  19  26
ATOM      2  O   UNL     1      10.518   8.351  19.448  0.00  0.00    -0.276 OA
ATOM      8  N   UNL     1      10.414   8.271  21.746  0.00  0.00    -0.329 N 
ATOM     26  C   UNL     1      10.942   8.694  20.549  0.00  0.00    +0.214 C 
ATOM     31  H   UNL     1       9.633   7.624  21.766  0.00  0.00    +0.145 HD
ATOM     32  H   UNL     1      10.737   8.614  22.644  0.00  0.00    +0.145 HD
ENDBRANCH  19  26
TORSDOF 5
ENDMDL
MODEL 2
REMARK VINA RESULT:      -7.0     27.419     31.119
REMARK  Name = 45783323
REMARK  8 active torsions:
REMARK  status: ('A' for Active; 'I' for Inactive)
REMARK    1  A    between atoms: N_3  and  C_12
REMARK    2  A    between atoms: C_9  and  C_15
REMARK    3  A    between atoms: C_12  and  C_14
REMARK    4  A    between atoms: C_14  and  C_16
REMARK    5  A    between atoms: C_14  and  C_17
REMARK    6  A    between atoms: C_14  and  C_18
REMARK    7  A    between atoms: C_19  and  C_26
REMARK    8  A    between atoms: C_25  and  C_27
REMARK                            x       y       z     vdW  Elec       q    Type
REMARK                         _______ _______ _______ _____ _____    ______ ____
ROOT
ATOM      4  N   UNL     1      -4.396 -11.328  16.653  0.00  0.00    -0.315 N 
ATOM      7  N   UNL     1      -2.242 -10.509  16.111  0.00  0.00    -0.240 NA
ATOM     19  C   UNL     1      -6.382 -12.115  18.620  0.00  0.00    +0.078 C 
ATOM     20  C   UNL     1      -6.770 -11.473  17.289  0.00  0.00    +0.031 C 
ATOM     21  C   UNL     1      -5.021 -12.802  18.528  0.00  0.00    +0.031 C 
ATOM     22  C   UNL     1      -5.664 -10.591  16.710  0.00  0.00    +0.107 C 
ATOM     23  C   UNL     1      -3.934 -11.919  17.912  0.00  0.00    +0.107 C 
ATOM     24  C   UNL     1      -3.458 -10.927  15.694  0.00  0.00    +0.122 A 
ATOM     27  C   UNL     1      -2.926 -10.586  13.401  0.00  0.00    +0.027 A 
ATOM     28  C   UNL     1      -3.846 -10.984  14.365  0.00  0.00    +0.055 A 
ATOM     29  C   UNL     1      -1.665 -10.150  13.791  0.00  0.00    +0.031 A 
ATOM     30  C   UNL     1      -1.375 -10.130  15.145  0.00  0.00    +0.113 A 
ENDROOT
BRANCH  27  25
ATOM      1  O   UNL     1      -3.327 -10.236   9.910  0.00  0.00    -0.336 OA
ATOM      5  N   UNL     1      -4.259 -11.452  11.543  0.00  0.00    -0.190 NA
ATOM      6  N   UNL     1      -2.672  -9.868  11.092  0.00  0.00    -0.056 NA
ATOM     15  C   UNL     1      -4.246 -11.172  10.265  0.00  0.00    +0.245 A 
ATOM     25  C   UNL     1      -3.277 -10.628  12.010  0.00  0.00    +0.202 A 
BRANCH  15   9
ATOM      3  N   UNL     1      -5.913 -10.708   8.477  0.00  0.00    -0.291 NA
ATOM      9  C   UNL     1      -5.096 -11.739   9.147  0.00  0.00    +0.146 C 
ATOM     10  C   UNL     1      -4.257 -12.367   8.021  0.00  0.00    +0.030 C 
ATOM     11  C   UNL     1      -6.097 -11.160   7.098  0.00  0.00    +0.085 C 
ATOM     13  C   UNL     1      -4.713 -11.670   6.748  0.00  0.00    +0.017 C 
BRANCH   3  12
ATOM     12  C   UNL     1      -7.184 -10.457   9.145  0.00  0.00    +0.091 C 
BRANCH  12  14
ATOM     14  C   UNL     1      -7.267  -9.078   9.848  0.00  0.00    -0.025 C 
ATOM     16  C   UNL     1      -8.621  -8.435   9.491  0.00  0.00    +0.012 C 
ATOM     17  C   UNL     1      -6.142  -8.141   9.374  0.00  0.00    +0.012 C 
ATOM     18  C   UNL     1      -7.185  -9.236  11.376  0.00  0.00    +0.012 C 
ENDBRANCH  12  14
ENDBRANCH   3  12
ENDBRANCH  15   9
ENDBRANCH  27  25
BRANCH  19  26
ATOM      2  O   UNL     1      -5.771 -11.245  20.762  0.00  0.00    -0.276 OA
ATOM      8  N   UNL     1      -7.225 -10.021  19.465  0.00  0.00    -0.329 N 
ATOM     26  C   UNL     1      -6.411 -11.099  19.724  0.00  0.00    +0.214 C 
ATOM     31  H   UNL     1      -7.320  -9.271  20.141  0.00  0.00    +0.145 HD
ATOM     32  H   UNL     1      -7.795  -9.948  18.629  0.00  0.00    +0.145 HD
ENDBRANCH  19  26
TORSDOF 5
ENDMDL
MODEL 3
REMARK VINA RESULT:      -6.7     27.569     30.820
REMARK  Name = 45783323
REMARK  8 active torsions:
REMARK  status: ('A' for Active; 'I' for Inactive)
REMARK    1  A    between atoms: N_3  and  C_12
REMARK    2  A    between atoms: C_9  and  C_15
REMARK    3  A    between atoms: C_12  and  C_14
REMARK    4  A    between atoms: C_14  and  C_16
REMARK    5  A    between atoms: C_14  and  C_17
REMARK    6  A    between atoms: C_14  and  C_18
REMARK    7  A    between atoms: C_19  and  C_26
REMARK    8  A    between atoms: C_25  and  C_27
REMARK                            x       y       z     vdW  Elec       q    Type
REMARK                         _______ _______ _______ _____ _____    ______ ____
ROOT
ATOM      4  N   UNL     1      -4.888 -11.413  16.629  0.00  0.00    -0.315 N 
ATOM      7  N   UNL     1      -2.551 -11.035  16.629  0.00  0.00    -0.240 NA
ATOM     19  C   UNL     1      -7.341 -12.094  18.026  0.00  0.00    +0.078 C 
ATOM     20  C   UNL     1      -7.322 -11.118  16.852  0.00  0.00    +0.031 C 
ATOM     21  C   UNL     1      -6.152 -13.051  17.970  0.00  0.00    +0.031 C 
ATOM     22  C   UNL     1      -5.972 -10.424  16.677  0.00  0.00    +0.107 C 
ATOM     23  C   UNL     1      -4.811 -12.345  17.757  0.00  0.00    +0.107 C 
ATOM     24  C   UNL     1      -3.718 -11.057  15.947  0.00  0.00    +0.122 A 
ATOM     27  C   UNL     1      -2.685 -10.386  13.913  0.00  0.00    +0.027 A 
ATOM     28  C   UNL     1      -3.838 -10.744  14.603  0.00  0.00    +0.055 A 
ATOM     29  C   UNL     1      -1.466 -10.353  14.579  0.00  0.00    +0.031 A 
ATOM     30  C   UNL     1      -1.452 -10.683  15.925  0.00  0.00    +0.113 A 
ENDROOT
BRANCH  27  25
ATOM      1  O   UNL     1      -2.206  -9.601  10.503  0.00  0.00    -0.336 OA
ATOM      5  N   UNL     1      -3.948  -9.851  11.888  0.00  0.00    -0.190 NA
ATOM      6  N   UNL     1      -1.666  -9.922  11.755  0.00  0.00    -0.056 NA
ATOM     15  C   UNL     1      -3.554  -9.579  10.670  0.00  0.00    +0.245 A 
ATOM     25  C   UNL     1      -2.754 -10.054  12.518  0.00  0.00    +0.202 A 
BRANCH  15   9
ATOM      3  N   UNL     1      -5.260 -10.366   9.039  0.00  0.00    -0.291 NA
ATOM      9  C   UNL     1      -4.380  -9.252   9.443  0.00  0.00    +0.146 C 
ATOM     10  C   UNL     1      -5.332  -8.063   9.666  0.00  0.00    +0.030 C 
ATOM     11  C   UNL     1      -6.423  -9.760   8.390  0.00  0.00    +0.085 C 
ATOM     13  C   UNL     1      -6.713  -8.586   9.304  0.00  0.00    +0.017 C 
BRANCH   3  12
ATOM     12  C   UNL     1      -4.598 -11.338   8.177  0.00  0.00    +0.091 C 
BRANCH  12  14
ATOM     14  C   UNL     1      -4.728 -12.805   8.662  0.00  0.00    -0.025 C 
ATOM     16  C   UNL     1      -6.227 -13.144   8.779  0.00  0.00    +0.012 C 
ATOM     17  C   UNL     1      -4.075 -12.997  10.042  0.00  0.00    +0.012 C 
ATOM     18  C   UNL     1      -4.082 -13.774   7.656  0.00  0.00    +0.012 C 
ENDBRANCH  12  14
ENDBRANCH   3  12
ENDBRANCH  15   9
ENDBRANCH  27  25
BRANCH  19  26
ATOM      2  O   UNL     1      -6.702 -11.683  20.294  0.00  0.00    -0.276 OA
ATOM      8  N   UNL     1      -8.270 -10.298  19.336  0.00  0.00    -0.329 N 
ATOM     26  C   UNL     1      -7.387 -11.352  19.330  0.00  0.00    +0.214 C 
ATOM     31  H   UNL     1      -8.383  -9.723  20.164  0.00  0.00    +0.145 HD
ATOM     32  H   UNL     1      -8.873 -10.078  18.551  0.00  0.00    +0.145 HD
ENDBRANCH  19  26
TORSDOF 5
ENDMDL
MODEL 4
REMARK VINA RESULT:      -6.4     28.720     31.501
REMARK  Name = 45783323
REMARK  8 active torsions:
REMARK  status: ('A' for Active; 'I' for Inactive)
REMARK    1  A    between atoms: N_3  and  C_12
REMARK    2  A    between atoms: C_9  and  C_15
REMARK    3  A    between atoms: C_12  and  C_14
REMARK    4  A    between atoms: C_14  and  C_16
REMARK    5  A    between atoms: C_14  and  C_17
REMARK    6  A    between atoms: C_14  and  C_18
REMARK    7  A    between atoms: C_19  and  C_26
REMARK    8  A    between atoms: C_25  and  C_27
REMARK                            x       y       z     vdW  Elec       q    Type
REMARK                         _______ _______ _______ _____ _____    ______ ____
ROOT
ATOM      4  N   UNL     1      -4.833 -11.305  15.688  0.00  0.00    -0.315 N 
ATOM      7  N   UNL     1      -2.639 -11.604  14.852  0.00  0.00    -0.240 NA
ATOM     19  C   UNL     1      -6.768 -11.504  17.845  0.00  0.00    +0.078 C 
ATOM     20  C   UNL     1      -6.821 -10.381  16.811  0.00  0.00    +0.031 C 
ATOM     21  C   UNL     1      -6.044 -12.731  17.295  0.00  0.00    +0.031 C 
ATOM     22  C   UNL     1      -5.456 -10.075  16.194  0.00  0.00    +0.107 C 
ATOM     23  C   UNL     1      -4.696 -12.403  16.648  0.00  0.00    +0.107 C 
ATOM     24  C   UNL     1      -3.905 -11.177  14.648  0.00  0.00    +0.122 A 
ATOM     27  C   UNL     1      -3.442 -10.477  12.422  0.00  0.00    +0.027 A 
ATOM     28  C   UNL     1      -4.353 -10.612  13.464  0.00  0.00    +0.055 A 
ATOM     29  C   UNL     1      -2.131 -10.905  12.594  0.00  0.00    +0.031 A 
ATOM     30  C   UNL     1      -1.783 -11.456  13.816  0.00  0.00    +0.113 A 
ENDROOT
BRANCH  27  25
ATOM      1  O   UNL     1      -3.827  -8.922   9.275  0.00  0.00    -0.336 OA
ATOM      5  N   UNL     1      -5.164  -9.888  10.789  0.00  0.00    -0.190 NA
ATOM      6  N   UNL     1      -2.994  -9.339  10.321  0.00  0.00    -0.056 NA
ATOM     15  C   UNL     1      -5.087  -9.284   9.631  0.00  0.00    +0.245 A 
ATOM     25  C   UNL     1      -3.855  -9.899  11.175  0.00  0.00    +0.202 A 
BRANCH  15   9
ATOM      3  N   UNL     1      -6.611 -10.101   7.842  0.00  0.00    -0.291 NA
ATOM      9  C   UNL     1      -6.189  -8.940   8.651  0.00  0.00    +0.146 C 
ATOM     10  C   UNL     1      -7.476  -8.460   9.346  0.00  0.00    +0.030 C 
ATOM     11  C   UNL     1      -8.018  -9.882   7.507  0.00  0.00    +0.085 C 
ATOM     13  C   UNL     1      -8.576  -9.370   8.820  0.00  0.00    +0.017 C 
BRANCH   3  12
ATOM     12  C   UNL     1      -5.791 -10.302   6.653  0.00  0.00    +0.091 C 
BRANCH  12  14
ATOM     14  C   UNL     1      -5.222 -11.737   6.512  0.00  0.00    -0.025 C 
ATOM     16  C   UNL     1      -6.399 -12.703   6.280  0.00  0.00    +0.012 C 
ATOM     17  C   UNL     1      -4.479 -12.171   7.789  0.00  0.00    +0.012 C 
ATOM     18  C   UNL     1      -4.264 -11.831   5.312  0.00  0.00    +0.012 C 
ENDBRANCH  12  14
ENDBRANCH   3  12
ENDBRANCH  15   9
ENDBRANCH  27  25
BRANCH  19  26
ATOM      2  O   UNL     1      -5.192 -11.603  19.641  0.00  0.00    -0.276 OA
ATOM      8  N   UNL     1      -6.729  -9.889  19.633  0.00  0.00    -0.329 N 
ATOM     26  C   UNL     1      -6.138 -11.019  19.118  0.00  0.00    +0.214 C 
ATOM     31  H   UNL     1      -6.383  -9.471  20.491  0.00  0.00    +0.145 HD
ATOM     32  H   UNL     1      -7.548  -9.457  19.221  0.00  0.00    +0.145 HD
ENDBRANCH  19  26
TORSDOF 5
ENDMDL
MODEL 5
REMARK VINA RESULT:      -6.3     29.319     32.313
REMARK  Name = 45783323
REMARK  8 active torsions:
REMARK  status: ('A' for Active; 'I' for Inactive)
REMARK    1  A    between atoms: N_3  and  C_12
REMARK    2  A    between atoms: C_9  and  C_15
REMARK    3  A    between atoms: C_12  and  C_14
REMARK    4  A    between atoms: C_14  and  C_16
REMARK    5  A    between atoms: C_14  and  C_17
REMARK    6  A    between atoms: C_14  and  C_18
REMARK    7  A    between atoms: C_19  and  C_26
REMARK    8  A    between atoms: C_25  and  C_27
REMARK                            x       y       z     vdW  Elec       q    Type
REMARK                         _______ _______ _______ _____ _____    ______ ____
ROOT
ATOM      4  N   UNL     1      -5.052 -11.182  14.743  0.00  0.00    -0.315 N 
ATOM      7  N   UNL     1      -3.396 -10.679  13.128  0.00  0.00    -0.240 NA
ATOM     19  C   UNL     1      -5.814 -12.213  17.349  0.00  0.00    +0.078 C 
ATOM     20  C   UNL     1      -6.565 -11.062  16.683  0.00  0.00    +0.031 C 
ATOM     21  C   UNL     1      -5.099 -13.081  16.315  0.00  0.00    +0.031 C 
ATOM     22  C   UNL     1      -5.697 -10.275  15.701  0.00  0.00    +0.107 C 
ATOM     23  C   UNL     1      -4.264 -12.276  15.317  0.00  0.00    +0.107 C 
ATOM     24  C   UNL     1      -4.697 -10.656  13.495  0.00  0.00    +0.122 A 
ATOM     27  C   UNL     1      -5.379  -9.612  11.470  0.00  0.00    +0.027 A 
ATOM     28  C   UNL     1      -5.716 -10.139  12.711  0.00  0.00    +0.055 A 
ATOM     29  C   UNL     1      -4.051  -9.618  11.057  0.00  0.00    +0.031 A 
ATOM     30  C   UNL     1      -3.107 -10.157  11.915  0.00  0.00    +0.113 A 
ENDROOT
BRANCH  27  25
ATOM      1  O   UNL     1      -8.298  -8.546   9.793  0.00  0.00    -0.336 OA
ATOM      5  N   UNL     1      -6.087  -8.338   9.506  0.00  0.00    -0.190 NA
ATOM      6  N   UNL     1      -7.701  -9.233  10.857  0.00  0.00    -0.056 NA
ATOM     15  C   UNL     1      -7.277  -8.050   9.045  0.00  0.00    +0.245 A 
ATOM     25  C   UNL     1      -6.397  -9.065  10.619  0.00  0.00    +0.202 A 
BRANCH  15   9
ATOM      3  N   UNL     1      -8.154  -8.107   6.718  0.00  0.00    -0.291 NA
ATOM      9  C   UNL     1      -7.666  -7.253   7.818  0.00  0.00    +0.146 C 
ATOM     10  C   UNL     1      -8.818  -6.268   8.089  0.00  0.00    +0.030 C 
ATOM     11  C   UNL     1      -9.101  -7.296   5.953  0.00  0.00    +0.085 C 
ATOM     13  C   UNL     1      -9.881  -6.605   7.054  0.00  0.00    +0.017 C 
BRANCH   3  12
ATOM     12  C   UNL     1      -7.083  -8.633   5.880  0.00  0.00    +0.091 C 
BRANCH  12  14
ATOM     14  C   UNL     1      -6.907 -10.170   5.970  0.00  0.00    -0.025 C 
ATOM     16  C   UNL     1      -6.885 -10.739   4.538  0.00  0.00    +0.012 C 
ATOM     17  C   UNL     1      -8.072 -10.822   6.735  0.00  0.00    +0.012 C 
ATOM     18  C   UNL     1      -5.581 -10.531   6.662  0.00  0.00    +0.012 C 
ENDBRANCH  12  14
ENDBRANCH   3  12
ENDBRANCH  15   9
ENDBRANCH  27  25
BRANCH  19  26
ATOM      2  O   UNL     1      -5.033 -10.615  18.948  0.00  0.00    -0.276 OA
ATOM      8  N   UNL     1      -3.785 -12.520  18.613  0.00  0.00    -0.329 N 
ATOM     26  C   UNL     1      -4.859 -11.692  18.383  0.00  0.00    +0.214 C 
ATOM     31  H   UNL     1      -3.077 -12.269  19.294  0.00  0.00    +0.145 HD
ATOM     32  H   UNL     1      -3.626 -13.375  18.092  0.00  0.00    +0.145 HD
ENDBRANCH  19  26
TORSDOF 5
ENDMDL
MODEL 6
REMARK VINA RESULT:      -6.3     28.020     30.889
REMARK  Name = 45783323
REMARK  8 active torsions:
REMARK  status: ('A' for Active; 'I' for Inactive)
REMARK    1  A    between atoms: N_3  and  C_12
REMARK    2  A    between atoms: C_9  and  C_15
REMARK    3  A    between atoms: C_12  and  C_14
REMARK    4  A    between atoms: C_14  and  C_16
REMARK    5  A    between atoms: C_14  and  C_17
REMARK    6  A    between atoms: C_14  and  C_18
REMARK    7  A    between atoms: C_19  and  C_26
REMARK    8  A    between atoms: C_25  and  C_27
REMARK                            x       y       z     vdW  Elec       q    Type
REMARK                         _______ _______ _______ _____ _____    ______ ____
ROOT
ATOM      4  N   UNL     1      -8.248 -10.423  17.124  0.00  0.00    -0.315 N 
ATOM      7  N   UNL     1      -6.508 -10.796  18.685  0.00  0.00    -0.240 NA
ATOM     19  C   UNL     1     -11.050  -9.958  16.522  0.00  0.00    +0.078 C 
ATOM     20  C   UNL     1      -9.930  -9.346  15.683  0.00  0.00    +0.031 C 
ATOM     21  C   UNL     1     -10.578 -11.220  17.242  0.00  0.00    +0.031 C 
ATOM     22  C   UNL     1      -8.631  -9.166  16.468  0.00  0.00    +0.107 C 
ATOM     23  C   UNL     1      -9.257 -11.034  17.993  0.00  0.00    +0.107 C 
ATOM     24  C   UNL     1      -6.890 -10.619  17.400  0.00  0.00    +0.122 A 
ATOM     27  C   UNL     1      -4.663 -10.808  16.584  0.00  0.00    +0.027 A 
ATOM     28  C   UNL     1      -6.016 -10.617  16.324  0.00  0.00    +0.055 A 
ATOM     29  C   UNL     1      -4.233 -10.994  17.892  0.00  0.00    +0.031 A 
ATOM     30  C   UNL     1      -5.185 -10.980  18.898  0.00  0.00    +0.113 A 
ENDROOT
BRANCH  27  25
ATOM      1  O   UNL     1      -1.889 -10.858  14.400  0.00  0.00    -0.336 OA
ATOM      5  N   UNL     1      -4.117 -10.757  14.201  0.00  0.00    -0.190 NA
ATOM      6  N   UNL     1      -2.398 -10.878  15.705  0.00  0.00    -0.056 NA
ATOM     15  C   UNL     1      -2.967 -10.785  13.576  0.00  0.00    +0.245 A 
ATOM     25  C   UNL     1      -3.717 -10.816  15.504  0.00  0.00    +0.202 A 
BRANCH  15   9
ATOM      3  N   UNL     1      -3.737 -10.063  11.323  0.00  0.00    -0.291 NA
ATOM      9  C   UNL     1      -2.679 -10.751  12.090  0.00  0.00    +0.146 C 
ATOM     10  C   UNL     1      -1.388  -9.983  11.752  0.00  0.00    +0.030 C 
ATOM     11  C   UNL     1      -3.085  -9.485  10.148  0.00  0.00    +0.085 C 
ATOM     13  C   UNL     1      -1.808  -8.924  10.743  0.00  0.00    +0.017 C 
BRANCH   3  12
ATOM     12  C   UNL     1      -4.844 -10.939  10.959  0.00  0.00    +0.091 C 
BRANCH  12  14
ATOM     14  C   UNL     1      -6.244 -10.316  11.189  0.00  0.00    -0.025 C 
ATOM     16  C   UNL     1      -7.031 -11.236  12.142  0.00  0.00    +0.012 C 
ATOM     17  C   UNL     1      -7.027 -10.196   9.869  0.00  0.00    +0.012 C 
ATOM     18  C   UNL     1      -6.126  -8.925  11.836  0.00  0.00    +0.012 C 
ENDBRANCH  12  14
ENDBRANCH   3  12
ENDBRANCH  15   9
ENDBRANCH  27  25
BRANCH  19  26
ATOM      2  O   UNL     1     -11.427  -7.741  17.335  0.00  0.00    -0.276 OA
ATOM      8  N   UNL     1     -12.286  -9.504  18.540  0.00  0.00    -0.329 N 
ATOM     26  C   UNL     1     -11.600  -8.948  17.486  0.00  0.00    +0.214 C 
ATOM     31  H   UNL     1     -12.703  -8.915  19.253  0.00  0.00    +0.145 HD
ATOM     32  H   UNL     1     -12.364 -10.505  18.681  0.00  0.00    +0.145 HD
ENDBRANCH  19  26
TORSDOF 5
ENDMDL
MODEL 7
REMARK VINA RESULT:      -6.2     28.558     31.056
REMARK  Name = 45783323
REMARK  8 active torsions:
REMARK  status: ('A' for Active; 'I' for Inactive)
REMARK    1  A    between atoms: N_3  and  C_12
REMARK    2  A    between atoms: C_9  and  C_15
REMARK    3  A    between atoms: C_12  and  C_14
REMARK    4  A    between atoms: C_14  and  C_16
REMARK    5  A    between atoms: C_14  and  C_17
REMARK    6  A    between atoms: C_14  and  C_18
REMARK    7  A    between atoms: C_19  and  C_26
REMARK    8  A    between atoms: C_25  and  C_27
REMARK                            x       y       z     vdW  Elec       q    Type
REMARK                         _______ _______ _______ _____ _____    ______ ____
ROOT
ATOM      4  N   UNL     1      -7.470 -10.519  16.780  0.00  0.00    -0.315 N 
ATOM      7  N   UNL     1      -5.447 -10.897  17.951  0.00  0.00    -0.240 NA
ATOM     19  C   UNL     1     -10.350 -10.151  16.760  0.00  0.00    +0.078 C 
ATOM     20  C   UNL     1      -9.436  -9.444  15.761  0.00  0.00    +0.031 C 
ATOM     21  C   UNL     1      -9.704 -11.426  17.296  0.00  0.00    +0.031 C 
ATOM     22  C   UNL     1      -8.016  -9.248  16.290  0.00  0.00    +0.107 C 
ATOM     23  C   UNL     1      -8.269 -11.221  17.788  0.00  0.00    +0.107 C 
ATOM     24  C   UNL     1      -6.078 -10.668  16.777  0.00  0.00    +0.122 A 
ATOM     27  C   UNL     1      -4.049 -10.711  15.537  0.00  0.00    +0.027 A 
ATOM     28  C   UNL     1      -5.432 -10.568  15.556  0.00  0.00    +0.055 A 
ATOM     29  C   UNL     1      -3.365 -10.948  16.724  0.00  0.00    +0.031 A 
ATOM     30  C   UNL     1      -4.103 -11.031  17.893  0.00  0.00    +0.113 A 
ENDROOT
BRANCH  27  25
ATOM      1  O   UNL     1      -1.756 -10.445  12.864  0.00  0.00    -0.336 OA
ATOM      5  N   UNL     1      -3.975 -10.631  13.094  0.00  0.00    -0.190 NA
ATOM      6  N   UNL     1      -2.001 -10.508  14.242  0.00  0.00    -0.056 NA
ATOM     15  C   UNL     1      -2.971 -10.525  12.262  0.00  0.00    +0.245 A 
ATOM     25  C   UNL     1      -3.331 -10.617  14.297  0.00  0.00    +0.202 A 
BRANCH  15   9
ATOM      3  N   UNL     1      -4.181 -11.107  10.167  0.00  0.00    -0.291 NA
ATOM      9  C   UNL     1      -2.977 -10.480  10.748  0.00  0.00    +0.146 C 
ATOM     10  C   UNL     1      -2.979  -9.043  10.196  0.00  0.00    +0.030 C 
ATOM     11  C   UNL     1      -4.430 -10.424   8.897  0.00  0.00    +0.085 C 
ATOM     13  C   UNL     1      -4.182  -8.975   9.268  0.00  0.00    +0.017 C 
BRANCH   3  12
ATOM     12  C   UNL     1      -4.052 -12.549   9.996  0.00  0.00    +0.091 C 
BRANCH  12  14
ATOM     14  C   UNL     1      -5.119 -13.373  10.760  0.00  0.00    -0.025 C 
ATOM     16  C   UNL     1      -5.636 -14.482   9.824  0.00  0.00    +0.012 C 
ATOM     17  C   UNL     1      -6.311 -12.493  11.178  0.00  0.00    +0.012 C 
ATOM     18  C   UNL     1      -4.511 -14.030  12.012  0.00  0.00    +0.012 C 
ENDBRANCH  12  14
ENDBRANCH   3  12
ENDBRANCH  15   9
ENDBRANCH  27  25
BRANCH  19  26
ATOM      2  O   UNL     1     -10.894  -9.613  19.026  0.00  0.00    -0.276 OA
ATOM      8  N   UNL     1     -10.906  -7.916  17.471  0.00  0.00    -0.329 N 
ATOM     26  C   UNL     1     -10.735  -9.220  17.872  0.00  0.00    +0.214 C 
ATOM     31  H   UNL     1     -11.165  -7.199  18.140  0.00  0.00    +0.145 HD
ATOM     32  H   UNL     1     -10.832  -7.622  16.503  0.00  0.00    +0.145 HD
ENDBRANCH  19  26
TORSDOF 5
ENDMDL
MODEL 8
REMARK VINA RESULT:      -6.2     29.803     34.305
REMARK  Name = 45783323
REMARK  8 active torsions:
REMARK  status: ('A' for Active; 'I' for Inactive)
REMARK    1  A    between atoms: N_3  and  C_12
REMARK    2  A    between atoms: C_9  and  C_15
REMARK    3  A    between atoms: C_12  and  C_14
REMARK    4  A    between atoms: C_14  and  C_16
REMARK    5  A    between atoms: C_14  and  C_17
REMARK    6  A    between atoms: C_14  and  C_18
REMARK    7  A    between atoms: C_19  and  C_26
REMARK    8  A    between atoms: C_25  and  C_27
REMARK                            x       y       z     vdW  Elec       q    Type
REMARK                         _______ _______ _______ _____ _____    ______ ____
ROOT
ATOM      4  N   UNL     1      -7.678 -10.098  17.761  0.00  0.00    -0.315 N 
ATOM      7  N   UNL     1      -9.898 -10.583  18.423  0.00  0.00    -0.240 NA
ATOM     19  C   UNL     1      -4.835 -10.687  17.817  0.00  0.00    +0.078 C 
ATOM     20  C   UNL     1      -5.516 -10.104  16.581  0.00  0.00    +0.031 C 
ATOM     21  C   UNL     1      -5.616 -10.360  19.088  0.00  0.00    +0.031 C 
ATOM     22  C   UNL     1      -7.004 -10.447  16.504  0.00  0.00    +0.107 C 
ATOM     23  C   UNL     1      -7.110 -10.675  18.982  0.00  0.00    +0.107 C 
ATOM     24  C   UNL     1      -9.048  -9.818  17.703  0.00  0.00    +0.122 A 
ATOM     27  C   UNL     1     -10.805  -8.474  16.828  0.00  0.00    +0.027 A 
ATOM     28  C   UNL     1      -9.446  -8.763  16.898  0.00  0.00    +0.055 A 
ATOM     29  C   UNL     1     -11.710  -9.239  17.555  0.00  0.00    +0.031 A 
ATOM     30  C   UNL     1     -11.210 -10.272  18.330  0.00  0.00    +0.113 A 
ENDROOT
BRANCH  27  25
ATOM      1  O   UNL     1     -11.752  -5.431  15.308  0.00  0.00    -0.336 OA
ATOM      5  N   UNL     1     -11.823  -7.606  14.781  0.00  0.00    -0.190 NA
ATOM      6  N   UNL     1     -11.192  -6.113  16.395  0.00  0.00    -0.056 NA
ATOM     15  C   UNL     1     -12.097  -6.383  14.403  0.00  0.00    +0.245 A 
ATOM     25  C   UNL     1     -11.269  -7.390  16.010  0.00  0.00    +0.202 A 
BRANCH  15   9
ATOM      3  N   UNL     1     -14.199  -5.773  13.220  0.00  0.00    -0.291 NA
ATOM      9  C   UNL     1     -12.732  -5.894  13.118  0.00  0.00    +0.146 C 
ATOM     10  C   UNL     1     -12.251  -4.489  12.714  0.00  0.00    +0.030 C 
ATOM     11  C   UNL     1     -14.591  -4.706  12.299  0.00  0.00    +0.085 C 
ATOM     13  C   UNL     1     -13.519  -3.665  12.554  0.00  0.00    +0.017 C 
BRANCH   3  12
ATOM     12  C   UNL     1     -14.900  -7.021  12.941  0.00  0.00    +0.091 C 
BRANCH  12  14
ATOM     14  C   UNL     1     -15.747  -7.549  14.127  0.00  0.00    -0.025 C 
ATOM     16  C   UNL     1     -15.201  -8.931  14.534  0.00  0.00    +0.012 C 
ATOM     17  C   UNL     1     -17.226  -7.707  13.730  0.00  0.00    +0.012 C 
ATOM     18  C   UNL     1     -15.646  -6.604  15.337  0.00  0.00    +0.012 C 
ENDBRANCH  12  14
ENDBRANCH   3  12
ENDBRANCH  15   9
ENDBRANCH  27  25
BRANCH  19  26
ATOM      2  O   UNL     1      -4.927 -12.962  18.550  0.00  0.00    -0.276 OA
ATOM      8  N   UNL     1      -4.087 -12.527  16.452  0.00  0.00    -0.329 N 
ATOM     26  C   UNL     1      -4.635 -12.166  17.660  0.00  0.00    +0.214 C 
ATOM     31  H   UNL     1      -3.910 -13.502  16.236  0.00  0.00    +0.145 HD
ATOM     32  H   UNL     1      -3.794 -11.852  15.755  0.00  0.00    +0.145 HD
ENDBRANCH  19  26
TORSDOF 5
ENDMDL
MODEL 9
REMARK VINA RESULT:      -6.2     18.985     22.449
REMARK  Name = 45783323
REMARK  8 active torsions:
REMARK  status: ('A' for Active; 'I' for Inactive)
REMARK    1  A    between atoms: N_3  and  C_12
REMARK    2  A    between atoms: C_9  and  C_15
REMARK    3  A    between atoms: C_12  and  C_14
REMARK    4  A    between atoms: C_14  and  C_16
REMARK    5  A    between atoms: C_14  and  C_17
REMARK    6  A    between atoms: C_14  and  C_18
REMARK    7  A    between atoms: C_19  and  C_26
REMARK    8  A    between atoms: C_25  and  C_27
REMARK                            x       y       z     vdW  Elec       q    Type
REMARK                         _______ _______ _______ _____ _____    ______ ____
ROOT
ATOM      4  N   UNL     1      11.490   4.230  -2.357  0.00  0.00    -0.315 N 
ATOM      7  N   UNL     1      12.888   3.231  -0.729  0.00  0.00    -0.240 NA
ATOM     19  C   UNL     1      10.667   4.566  -5.122  0.00  0.00    +0.078 C 
ATOM     20  C   UNL     1       9.673   4.649  -3.965  0.00  0.00    +0.031 C 
ATOM     21  C   UNL     1      12.086   4.889  -4.658  0.00  0.00    +0.031 C 
ATOM     22  C   UNL     1      10.122   3.857  -2.738  0.00  0.00    +0.107 C 
ATOM     23  C   UNL     1      12.507   4.116  -3.406  0.00  0.00    +0.107 C 
ATOM     24  C   UNL     1      11.858   4.058  -1.018  0.00  0.00    +0.122 A 
ATOM     27  C   UNL     1      11.482   4.591   1.270  0.00  0.00    +0.027 A 
ATOM     28  C   UNL     1      11.130   4.753  -0.066  0.00  0.00    +0.055 A 
ATOM     29  C   UNL     1      12.536   3.749   1.607  0.00  0.00    +0.031 A 
ATOM     30  C   UNL     1      13.201   3.099   0.580  0.00  0.00    +0.113 A 
ENDROOT
BRANCH  27  25
ATOM      1  O   UNL     1       9.478   6.670   3.301  0.00  0.00    -0.336 OA
ATOM      5  N   UNL     1      10.870   4.944   3.611  0.00  0.00    -0.190 NA
ATOM      6  N   UNL     1       9.945   6.314   2.030  0.00  0.00    -0.056 NA
ATOM     15  C   UNL     1      10.071   5.814   4.174  0.00  0.00    +0.245 A 
ATOM     25  C   UNL     1      10.760   5.290   2.295  0.00  0.00    +0.202 A 
BRANCH  15   9
ATOM      3  N   UNL     1      10.464   7.106   6.264  0.00  0.00    -0.291 NA
ATOM      9  C   UNL     1       9.723   5.994   5.637  0.00  0.00    +0.146 C 
ATOM     10  C   UNL     1       8.239   6.338   5.857  0.00  0.00    +0.030 C 
ATOM     11  C   UNL     1       9.608   7.622   7.333  0.00  0.00    +0.085 C 
ATOM     13  C   UNL     1       8.246   7.626   6.668  0.00  0.00    +0.017 C 
BRANCH   3  12
ATOM     12  C   UNL     1      11.779   6.716   6.757  0.00  0.00    +0.091 C 
BRANCH  12  14
ATOM     14  C   UNL     1      12.923   7.672   6.332  0.00  0.00    -0.025 C 
ATOM     16  C   UNL     1      12.822   7.900   4.811  0.00  0.00    +0.012 C 
ATOM     17  C   UNL     1      14.303   7.066   6.644  0.00  0.00    +0.012 C 
ATOM     18  C   UNL     1      12.793   9.031   7.042  0.00  0.00    +0.012 C 
ENDBRANCH  12  14
ENDBRANCH   3  12
ENDBRANCH  15   9
ENDBRANCH  27  25
BRANCH  19  26
ATOM      2  O   UNL     1      11.595   2.666  -6.239  0.00  0.00    -0.276 OA
ATOM      8  N   UNL     1       9.328   2.694  -5.837  0.00  0.00    -0.329 N 
ATOM     26  C   UNL     1      10.598   3.220  -5.782  0.00  0.00    +0.214 C 
ATOM     31  H   UNL     1       9.163   1.787  -6.260  0.00  0.00    +0.145 HD
ATOM     32  H   UNL     1       8.509   3.194  -5.510  0.00  0.00    +0.145 HD
ENDBRANCH  19  26
TORSDOF 5
ENDMDL
MODEL 10
REMARK VINA RESULT:      -6.1     28.634     31.211
REMARK  Name = 45783323
REMARK  8 active torsions:
REMARK  status: ('A' for Active; 'I' for Inactive)
REMARK    1  A    between atoms: N_3  and  C_12
REMARK    2  A    between atoms: C_9  and  C_15
REMARK    3  A    between atoms: C_12  and  C_14
REMARK    4  A    between atoms: C_14  and  C_16
REMARK    5  A    between atoms: C_14  and  C_17
REMARK    6  A    between atoms: C_14  and  C_18
REMARK    7  A    between atoms: C_19  and  C_26
REMARK    8  A    between atoms: C_25  and  C_27
REMARK                            x       y       z     vdW  Elec       q    Type
REMARK                         _______ _______ _______ _____ _____    ______ ____
ROOT
ATOM      4  N   UNL     1      -4.955  -9.934  10.464  0.00  0.00    -0.315 N 
ATOM      7  N   UNL     1      -2.694 -10.091  11.147  0.00  0.00    -0.240 NA
ATOM     19  C   UNL     1      -6.950  -9.525   8.393  0.00  0.00    +0.078 C 
ATOM     20  C   UNL     1      -7.190 -10.463   9.574  0.00  0.00    +0.031 C 
ATOM     21  C   UNL     1      -5.910  -8.460   8.732  0.00  0.00    +0.031 C 
ATOM     22  C   UNL     1      -5.895 -11.021  10.163  0.00  0.00    +0.107 C 
ATOM     23  C   UNL     1      -4.634  -9.031   9.355  0.00  0.00    +0.107 C 
ATOM     24  C   UNL     1      -4.006 -10.160  11.467  0.00  0.00    +0.122 A 
ATOM     27  C   UNL     1      -3.550 -10.674  13.744  0.00  0.00    +0.027 A 
ATOM     28  C   UNL     1      -4.481 -10.445  12.737  0.00  0.00    +0.055 A 
ATOM     29  C   UNL     1      -2.192 -10.611  13.454  0.00  0.00    +0.031 A 
ATOM     30  C   UNL     1      -1.819 -10.319  12.152  0.00  0.00    +0.113 A 
ENDROOT
BRANCH  27  25
ATOM      1  O   UNL     1      -4.247 -11.928  16.971  0.00  0.00    -0.336 OA
ATOM      5  N   UNL     1      -4.870 -10.165  15.739  0.00  0.00    -0.190 NA
ATOM      6  N   UNL     1      -3.570 -12.047  15.750  0.00  0.00    -0.056 NA
ATOM     15  C   UNL     1      -4.990 -10.794  16.880  0.00  0.00    +0.245 A 
ATOM     25  C   UNL     1      -3.989 -10.971  15.078  0.00  0.00    +0.202 A 
BRANCH  15   9
ATOM      3  N   UNL     1      -7.255 -10.754  17.908  0.00  0.00    -0.291 NA
ATOM      9  C   UNL     1      -5.825 -10.437  18.092  0.00  0.00    +0.146 C 
ATOM     10  C   UNL     1      -5.410 -11.217  19.351  0.00  0.00    +0.030 C 
ATOM     11  C   UNL     1      -7.788 -11.045  19.239  0.00  0.00    +0.085 C 
ATOM     13  C   UNL     1      -6.683 -11.891  19.840  0.00  0.00    +0.017 C 
BRANCH   3  12
ATOM     12  C   UNL     1      -7.999  -9.692  17.241  0.00  0.00    +0.091 C 
BRANCH  12  14
ATOM     14  C   UNL     1      -8.957 -10.193  16.131  0.00  0.00    -0.025 C 
ATOM     16  C   UNL     1      -8.928  -9.178  14.972  0.00  0.00    +0.012 C 
ATOM     17  C   UNL     1     -10.403 -10.301  16.648  0.00  0.00    +0.012 C 
ATOM     18  C   UNL     1      -8.507 -11.563  15.595  0.00  0.00    +0.012 C 
ENDBRANCH  12  14
ENDBRANCH   3  12
ENDBRANCH  15   9
ENDBRANCH  27  25
BRANCH  19  26
ATOM      2  O   UNL     1      -6.759 -11.514   7.078  0.00  0.00    -0.276 OA
ATOM      8  N   UNL     1      -5.951  -9.545   6.200  0.00  0.00    -0.329 N 
ATOM     26  C   UNL     1      -6.559 -10.305   7.172  0.00  0.00    +0.214 C 
ATOM     31  H   UNL     1      -5.646  -9.968   5.329  0.00  0.00    +0.145 HD
ATOM     32  H   UNL     1      -5.738  -8.562   6.321  0.00  0.00    +0.145 HD
ENDBRANCH  19  26
TORSDOF 5
ENDMDL
