MODEL 1
REMARK VINA RESULT:      -5.9      0.000      0.000
REMARK  Name = 26742981
REMARK  9 active torsions:
REMARK  status: ('A' for Active; 'I' for Inactive)
REMARK    1  A    between atoms: N_5  and  C_22
REMARK    2  A    between atoms: C_7  and  C_11
REMARK    3  A    between atoms: C_8  and  C_13
REMARK    4  A    between atoms: C_11  and  C_14
REMARK    5  A    between atoms: C_13  and  C_15
REMARK    6  A    between atoms: C_21  and  C_23
REMARK    7  A    between atoms: C_23  and  C_24
REMARK    8  A    between atoms: C_24  and  C_25
REMARK    9  A    between atoms: C_25  and  C_26
REMARK                            x       y       z     vdW  Elec       q    Type
REMARK                         _______ _______ _______ _____ _____    ______ ____
ROOT
ATOM      3  N   UNL     1      11.645   6.149  20.795  0.00  0.00    -0.316 NA
ATOM      7  C   UNL     1      12.179   8.903  19.878  0.00  0.00    +0.004 C 
ATOM      8  C   UNL     1      12.863   7.665  19.250  0.00  0.00    +0.012 C 
ATOM      9  C   UNL     1      10.848   8.470  20.518  0.00  0.00    +0.019 C 
ATOM     10  C   UNL     1      12.956   6.499  20.250  0.00  0.00    +0.085 C 
ATOM     12  C   UNL     1      11.014   7.284  21.465  0.00  0.00    +0.081 C 
ATOM     27  H   UNL     1      11.749   5.381  21.457  0.00  0.00    +0.122 HD
ENDROOT
BRANCH   7  11
ATOM     11  C   UNL     1      13.052   9.651  20.892  0.00  0.00    +0.100 C 
BRANCH  11  14
ATOM      1  O   UNL     1      12.784  11.658  19.661  0.00  0.00    -0.276 OA
ATOM      4  N   UNL     1      12.641  11.833  21.974  0.00  0.00    -0.299 N 
ATOM      5  N   UNL     1      11.521  13.164  24.250  0.00  0.00    -0.302 NA
ATOM     14  C   UNL     1      12.816  11.136  20.778  0.00  0.00    +0.216 C 
ATOM     16  C   UNL     1      12.402  13.274  21.948  0.00  0.00    +0.123 C 
ATOM     17  C   UNL     1      12.804  11.267  23.316  0.00  0.00    +0.123 C 
ATOM     18  C   UNL     1      11.266  13.666  22.892  0.00  0.00    +0.103 C 
ATOM     19  C   UNL     1      11.664  11.701  24.239  0.00  0.00    +0.103 C 
ATOM     22  C   UNL     1      10.450  13.569  25.157  0.00  0.00    +0.105 C 
ENDBRANCH  11  14
ENDBRANCH   7  11
BRANCH   8  13
ATOM     13  C   UNL     1      14.237   7.976  18.657  0.00  0.00    +0.064 C 
BRANCH  13  15
ATOM      2  O   UNL     1      13.702   8.897  15.219  0.00  0.00    -0.359 OA
ATOM      6  N   UNL     1      13.696   7.978  16.261  0.00  0.00    -0.083 NA
ATOM     15  C   UNL     1      14.118   8.662  17.328  0.00  0.00    +0.084 A 
ATOM     20  C   UNL     1      14.404  10.005  17.023  0.00  0.00    +0.071 A 
ATOM     21  C   UNL     1      14.126  10.100  15.684  0.00  0.00    +0.138 A 
BRANCH  21  23
ATOM     23  C   UNL     1      14.193  11.194  14.708  0.00  0.00    +0.077 C 
BRANCH  23  24
ATOM     24  C   UNL     1      15.581  11.328  14.043  0.00  0.00    +0.007 C 
BRANCH  24  25
ATOM     25  C   UNL     1      15.747  12.647  13.289  0.00  0.00    -0.003 C 
ATOM     26  C   UNL     1      14.576  12.905  12.354  0.00  0.00    +0.004 C 
ENDBRANCH  24  25
ENDBRANCH  23  24
ENDBRANCH  21  23
ENDBRANCH  13  15
ENDBRANCH   8  13
TORSDOF 7
ENDMDL
MODEL 2
REMARK VINA RESULT:      -5.9     15.770     21.396
REMARK  Name = 26742981
REMARK  9 active torsions:
REMARK  status: ('A' for Active; 'I' for Inactive)
REMARK    1  A    between atoms: N_5  and  C_22
REMARK    2  A    between atoms: C_7  and  C_11
REMARK    3  A    between atoms: C_8  and  C_13
REMARK    4  A    between atoms: C_11  and  C_14
REMARK    5  A    between atoms: C_13  and  C_15
REMARK    6  A    between atoms: C_21  and  C_23
REMARK    7  A    between atoms: C_23  and  C_24
REMARK    8  A    between atoms: C_24  and  C_25
REMARK    9  A    between atoms: C_25  and  C_26
REMARK                            x       y       z     vdW  Elec       q    Type
REMARK                         _______ _______ _______ _____ _____    ______ ____
ROOT
ATOM      3  N   UNL     1      15.507   4.177   1.147  0.00  0.00    -0.316 NA
ATOM      7  C   UNL     1      12.866   4.543  -0.119  0.00  0.00    +0.004 C 
ATOM      8  C   UNL     1      13.047   4.398   1.411  0.00  0.00    +0.012 C 
ATOM      9  C   UNL     1      14.175   5.072  -0.731  0.00  0.00    +0.019 C 
ATOM     10  C   UNL     1      14.313   3.595   1.760  0.00  0.00    +0.085 C 
ATOM     12  C   UNL     1      15.391   4.250  -0.308  0.00  0.00    +0.081 C 
ATOM     27  H   UNL     1      16.321   3.615   1.393  0.00  0.00    +0.122 HD
ENDROOT
BRANCH   7  11
ATOM     11  C   UNL     1      12.419   3.255  -0.819  0.00  0.00    +0.100 C 
BRANCH  11  14
ATOM      1  O   UNL     1      10.180   3.982  -1.091  0.00  0.00    -0.276 OA
ATOM      4  N   UNL     1      11.260   3.216  -2.999  0.00  0.00    -0.299 N 
ATOM      5  N   UNL     1      11.577   3.365  -5.843  0.00  0.00    -0.302 NA
ATOM     14  C   UNL     1      11.182   3.519  -1.640  0.00  0.00    +0.216 C 
ATOM     16  C   UNL     1      10.105   3.447  -3.865  0.00  0.00    +0.123 C 
ATOM     17  C   UNL     1      12.385   2.544  -3.655  0.00  0.00    +0.123 C 
ATOM     18  C   UNL     1      10.516   4.127  -5.170  0.00  0.00    +0.103 C 
ATOM     19  C   UNL     1      12.752   3.236  -4.969  0.00  0.00    +0.103 C 
ATOM     22  C   UNL     1      11.944   4.000  -7.107  0.00  0.00    +0.105 C 
ENDBRANCH  11  14
ENDBRANCH   7  11
BRANCH   8  13
ATOM     13  C   UNL     1      11.824   3.799   2.106  0.00  0.00    +0.064 C 
BRANCH  13  15
ATOM      2  O   UNL     1      11.198   6.421   4.491  0.00  0.00    -0.359 OA
ATOM      6  N   UNL     1      11.815   5.915   3.354  0.00  0.00    -0.083 NA
ATOM     15  C   UNL     1      11.362   4.663   3.242  0.00  0.00    +0.084 A 
ATOM     20  C   UNL     1      10.465   4.327   4.271  0.00  0.00    +0.071 A 
ATOM     21  C   UNL     1      10.397   5.467   5.029  0.00  0.00    +0.138 A 
BRANCH  21  23
ATOM     23  C   UNL     1       9.662   5.836   6.246  0.00  0.00    +0.077 C 
BRANCH  23  24
ATOM     24  C   UNL     1      10.429   5.491   7.542  0.00  0.00    +0.007 C 
BRANCH  24  25
ATOM     25  C   UNL     1       9.794   4.331   8.309  0.00  0.00    -0.003 C 
ATOM     26  C   UNL     1       9.257   4.783   9.658  0.00  0.00    +0.004 C 
ENDBRANCH  24  25
ENDBRANCH  23  24
ENDBRANCH  21  23
ENDBRANCH  13  15
ENDBRANCH   8  13
TORSDOF 7
ENDMDL
MODEL 3
REMARK VINA RESULT:      -5.9     26.402     29.029
REMARK  Name = 26742981
REMARK  9 active torsions:
REMARK  status: ('A' for Active; 'I' for Inactive)
REMARK    1  A    between atoms: N_5  and  C_22
REMARK    2  A    between atoms: C_7  and  C_11
REMARK    3  A    between atoms: C_8  and  C_13
REMARK    4  A    between atoms: C_11  and  C_14
REMARK    5  A    between atoms: C_13  and  C_15
REMARK    6  A    between atoms: C_21  and  C_23
REMARK    7  A    between atoms: C_23  and  C_24
REMARK    8  A    between atoms: C_24  and  C_25
REMARK    9  A    between atoms: C_25  and  C_26
REMARK                            x       y       z     vdW  Elec       q    Type
REMARK                         _______ _______ _______ _____ _____    ______ ____
ROOT
ATOM      3  N   UNL     1      -5.876 -14.121  17.454  0.00  0.00    -0.316 NA
ATOM      7  C   UNL     1      -6.440 -11.344  16.631  0.00  0.00    +0.004 C 
ATOM      8  C   UNL     1      -5.006 -11.921  16.698  0.00  0.00    +0.012 C 
ATOM      9  C   UNL     1      -7.437 -12.499  16.438  0.00  0.00    +0.019 C 
ATOM     10  C   UNL     1      -4.901 -13.064  17.723  0.00  0.00    +0.085 C 
ATOM     12  C   UNL     1      -7.246 -13.612  17.466  0.00  0.00    +0.081 C 
ATOM     27  H   UNL     1      -5.782 -14.853  18.157  0.00  0.00    +0.122 HD
ENDROOT
BRANCH   7  11
ATOM     11  C   UNL     1      -6.825 -10.488  17.842  0.00  0.00    +0.100 C 
BRANCH  11  14
ATOM      1  O   UNL     1      -8.314  -9.044  16.696  0.00  0.00    -0.276 OA
ATOM      4  N   UNL     1      -9.198 -10.238  18.483  0.00  0.00    -0.299 N 
ATOM      5  N   UNL     1     -11.469 -11.518  19.669  0.00  0.00    -0.302 NA
ATOM     14  C   UNL     1      -8.174  -9.853  17.616  0.00  0.00    +0.216 C 
ATOM     16  C   UNL     1     -10.536  -9.672  18.326  0.00  0.00    +0.123 C 
ATOM     17  C   UNL     1      -9.033 -11.092  19.662  0.00  0.00    +0.123 C 
ATOM     18  C   UNL     1     -11.611 -10.753  18.423  0.00  0.00    +0.103 C 
ATOM     19  C   UNL     1     -10.140 -12.144  19.740  0.00  0.00    +0.103 C 
ATOM     22  C   UNL     1     -12.519 -12.530  19.775  0.00  0.00    +0.105 C 
ENDBRANCH  11  14
ENDBRANCH   7  11
BRANCH   8  13
ATOM     13  C   UNL     1      -3.943 -10.856  16.971  0.00  0.00    +0.064 C 
BRANCH  13  15
ATOM      2  O   UNL     1      -1.242 -10.256  14.668  0.00  0.00    -0.359 OA
ATOM      6  N   UNL     1      -1.757 -10.387  15.952  0.00  0.00    -0.083 NA
ATOM     15  C   UNL     1      -3.056 -10.649  15.778  0.00  0.00    +0.084 A 
ATOM     20  C   UNL     1      -3.414 -10.695  14.419  0.00  0.00    +0.071 A 
ATOM     21  C   UNL     1      -2.238 -10.440  13.764  0.00  0.00    +0.138 A 
BRANCH  21  23
ATOM     23  C   UNL     1      -1.866 -10.336  12.347  0.00  0.00    +0.077 C 
BRANCH  23  24
ATOM     24  C   UNL     1      -3.088 -10.271  11.404  0.00  0.00    +0.007 C 
BRANCH  24  25
ATOM     25  C   UNL     1      -2.933  -9.210  10.315  0.00  0.00    -0.003 C 
ATOM     26  C   UNL     1      -4.129  -9.197   9.376  0.00  0.00    +0.004 C 
ENDBRANCH  24  25
ENDBRANCH  23  24
ENDBRANCH  21  23
ENDBRANCH  13  15
ENDBRANCH   8  13
TORSDOF 7
ENDMDL
MODEL 4
REMARK VINA RESULT:      -5.7      8.121     10.916
REMARK  Name = 26742981
REMARK  9 active torsions:
REMARK  status: ('A' for Active; 'I' for Inactive)
REMARK    1  A    between atoms: N_5  and  C_22
REMARK    2  A    between atoms: C_7  and  C_11
REMARK    3  A    between atoms: C_8  and  C_13
REMARK    4  A    between atoms: C_11  and  C_14
REMARK    5  A    between atoms: C_13  and  C_15
REMARK    6  A    between atoms: C_21  and  C_23
REMARK    7  A    between atoms: C_23  and  C_24
REMARK    8  A    between atoms: C_24  and  C_25
REMARK    9  A    between atoms: C_25  and  C_26
REMARK                            x       y       z     vdW  Elec       q    Type
REMARK                         _______ _______ _______ _____ _____    ______ ____
ROOT
ATOM      3  N   UNL     1      20.960   9.225  21.703  0.00  0.00    -0.316 NA
ATOM      7  C   UNL     1      20.824   6.439  20.738  0.00  0.00    +0.004 C 
ATOM      8  C   UNL     1      19.563   7.294  21.004  0.00  0.00    +0.012 C 
ATOM      9  C   UNL     1      22.012   7.374  20.451  0.00  0.00    +0.019 C 
ATOM     10  C   UNL     1      19.824   8.378  22.066  0.00  0.00    +0.085 C 
ATOM     12  C   UNL     1      22.184   8.446  21.526  0.00  0.00    +0.081 C 
ATOM     27  H   UNL     1      21.107   9.922  22.432  0.00  0.00    +0.122 HD
ENDROOT
BRANCH   7  11
ATOM     11  C   UNL     1      21.162   5.459  21.866  0.00  0.00    +0.100 C 
BRANCH  11  14
ATOM      1  O   UNL     1      20.807   3.407  20.734  0.00  0.00    -0.276 OA
ATOM      4  N   UNL     1      22.984   3.853  21.412  0.00  0.00    -0.299 N 
ATOM      5  N   UNL     1      25.792   3.543  20.939  0.00  0.00    -0.302 NA
ATOM     14  C   UNL     1      21.626   4.146  21.286  0.00  0.00    +0.216 C 
ATOM     16  C   UNL     1      23.512   2.603  20.871  0.00  0.00    +0.123 C 
ATOM     17  C   UNL     1      23.955   4.645  22.173  0.00  0.00    +0.123 C 
ATOM     18  C   UNL     1      24.813   2.836  20.102  0.00  0.00    +0.103 C 
ATOM     19  C   UNL     1      25.250   4.836  21.385  0.00  0.00    +0.103 C 
ATOM     22  C   UNL     1      27.046   3.735  20.213  0.00  0.00    +0.105 C 
ENDBRANCH  11  14
ENDBRANCH   7  11
BRANCH   8  13
ATOM     13  C   UNL     1      18.339   6.458  21.380  0.00  0.00    +0.064 C 
BRANCH  13  15
ATOM      2  O   UNL     1      16.324   6.020  18.430  0.00  0.00    -0.359 OA
ATOM      6  N   UNL     1      17.448   5.753  19.203  0.00  0.00    -0.083 NA
ATOM     15  C   UNL     1      17.296   6.496  20.302  0.00  0.00    +0.084 A 
ATOM     20  C   UNL     1      16.107   7.246  20.280  0.00  0.00    +0.071 A 
ATOM     21  C   UNL     1      15.534   6.911  19.081  0.00  0.00    +0.138 A 
BRANCH  21  23
ATOM     23  C   UNL     1      14.294   7.307  18.401  0.00  0.00    +0.077 C 
BRANCH  23  24
ATOM     24  C   UNL     1      13.048   7.205  19.309  0.00  0.00    +0.007 C 
BRANCH  24  25
ATOM     25  C   UNL     1      12.194   8.472  19.279  0.00  0.00    -0.003 C 
ATOM     26  C   UNL     1      11.091   8.425  20.324  0.00  0.00    +0.004 C 
ENDBRANCH  24  25
ENDBRANCH  23  24
ENDBRANCH  21  23
ENDBRANCH  13  15
ENDBRANCH   8  13
TORSDOF 7
ENDMDL
MODEL 5
REMARK VINA RESULT:      -5.7     26.682     29.417
REMARK  Name = 26742981
REMARK  9 active torsions:
REMARK  status: ('A' for Active; 'I' for Inactive)
REMARK    1  A    between atoms: N_5  and  C_22
REMARK    2  A    between atoms: C_7  and  C_11
REMARK    3  A    between atoms: C_8  and  C_13
REMARK    4  A    between atoms: C_11  and  C_14
REMARK    5  A    between atoms: C_13  and  C_15
REMARK    6  A    between atoms: C_21  and  C_23
REMARK    7  A    between atoms: C_23  and  C_24
REMARK    8  A    between atoms: C_24  and  C_25
REMARK    9  A    between atoms: C_25  and  C_26
REMARK                            x       y       z     vdW  Elec       q    Type
REMARK                         _______ _______ _______ _____ _____    ______ ____
ROOT
ATOM      3  N   UNL     1      -8.982 -11.874  19.337  0.00  0.00    -0.316 NA
ATOM      7  C   UNL     1      -6.350 -10.806  18.536  0.00  0.00    +0.004 C 
ATOM      8  C   UNL     1      -7.683 -10.220  18.015  0.00  0.00    +0.012 C 
ATOM      9  C   UNL     1      -6.601 -11.506  19.883  0.00  0.00    +0.019 C 
ATOM     10  C   UNL     1      -8.805 -11.273  18.015  0.00  0.00    +0.085 C 
ATOM     12  C   UNL     1      -7.753 -12.506  19.814  0.00  0.00    +0.081 C 
ATOM     27  H   UNL     1      -9.725 -12.571  19.294  0.00  0.00    +0.122 HD
ENDROOT
BRANCH   7  11
ATOM     11  C   UNL     1      -5.658 -11.754  17.550  0.00  0.00    +0.100 C 
BRANCH  11  14
ATOM      1  O   UNL     1      -3.495 -11.680  18.517  0.00  0.00    -0.276 OA
ATOM      4  N   UNL     1      -3.670 -10.971  16.311  0.00  0.00    -0.299 N 
ATOM      5  N   UNL     1      -2.448 -10.712  13.733  0.00  0.00    -0.302 NA
ATOM     14  C   UNL     1      -4.178 -11.467  17.511  0.00  0.00    +0.216 C 
ATOM     16  C   UNL     1      -2.244 -10.672  16.191  0.00  0.00    +0.123 C 
ATOM     17  C   UNL     1      -4.472 -10.584  15.147  0.00  0.00    +0.123 C 
ATOM     18  C   UNL     1      -1.673 -11.208  14.879  0.00  0.00    +0.103 C 
ATOM     19  C   UNL     1      -3.857 -11.115  13.852  0.00  0.00    +0.103 C 
ATOM     22  C   UNL     1      -1.878 -11.199  12.478  0.00  0.00    +0.105 C 
ENDBRANCH  11  14
ENDBRANCH   7  11
BRANCH   8  13
ATOM     13  C   UNL     1      -7.556  -9.571  16.637  0.00  0.00    +0.064 C 
BRANCH  13  15
ATOM      2  O   UNL     1     -10.520  -8.255  15.075  0.00  0.00    -0.359 OA
ATOM      6  N   UNL     1      -9.418  -9.101  15.105  0.00  0.00    -0.083 NA
ATOM     15  C   UNL     1      -8.806  -8.830  16.262  0.00  0.00    +0.084 A 
ATOM     20  C   UNL     1      -9.470  -7.832  16.996  0.00  0.00    +0.071 A 
ATOM     21  C   UNL     1     -10.540  -7.503  16.206  0.00  0.00    +0.138 A 
BRANCH  21  23
ATOM     23  C   UNL     1     -11.647  -6.548  16.339  0.00  0.00    +0.077 C 
BRANCH  23  24
ATOM     24  C   UNL     1     -13.005  -7.129  15.885  0.00  0.00    +0.007 C 
BRANCH  24  25
ATOM     25  C   UNL     1     -13.555  -6.432  14.641  0.00  0.00    -0.003 C 
ATOM     26  C   UNL     1     -12.635  -5.313  14.177  0.00  0.00    +0.004 C 
ENDBRANCH  24  25
ENDBRANCH  23  24
ENDBRANCH  21  23
ENDBRANCH  13  15
ENDBRANCH   8  13
TORSDOF 7
ENDMDL
MODEL 6
REMARK VINA RESULT:      -5.6     27.236     30.215
REMARK  Name = 26742981
REMARK  9 active torsions:
REMARK  status: ('A' for Active; 'I' for Inactive)
REMARK    1  A    between atoms: N_5  and  C_22
REMARK    2  A    between atoms: C_7  and  C_11
REMARK    3  A    between atoms: C_8  and  C_13
REMARK    4  A    between atoms: C_11  and  C_14
REMARK    5  A    between atoms: C_13  and  C_15
REMARK    6  A    between atoms: C_21  and  C_23
REMARK    7  A    between atoms: C_23  and  C_24
REMARK    8  A    between atoms: C_24  and  C_25
REMARK    9  A    between atoms: C_25  and  C_26
REMARK                            x       y       z     vdW  Elec       q    Type
REMARK                         _______ _______ _______ _____ _____    ______ ____
ROOT
ATOM      3  N   UNL     1     -14.025   9.210  31.094  0.00  0.00    -0.316 NA
ATOM      7  C   UNL     1     -12.793   7.832  33.395  0.00  0.00    +0.004 C 
ATOM      8  C   UNL     1     -14.027   7.273  32.649  0.00  0.00    +0.012 C 
ATOM      9  C   UNL     1     -12.008   8.754  32.446  0.00  0.00    +0.019 C 
ATOM     10  C   UNL     1     -14.847   8.395  31.987  0.00  0.00    +0.085 C 
ATOM     12  C   UNL     1     -12.895   9.815  31.798  0.00  0.00    +0.081 C 
ATOM     27  H   UNL     1     -14.598   9.945  30.683  0.00  0.00    +0.122 HD
ENDROOT
BRANCH   7  11
ATOM     11  C   UNL     1     -13.130   8.556  34.703  0.00  0.00    +0.100 C 
BRANCH  11  14
ATOM      1  O   UNL     1     -12.764   6.901  36.359  0.00  0.00    -0.276 OA
ATOM      4  N   UNL     1     -11.201   8.616  36.245  0.00  0.00    -0.299 N 
ATOM      5  N   UNL     1      -8.488   9.464  36.598  0.00  0.00    -0.302 NA
ATOM     14  C   UNL     1     -12.356   7.944  35.844  0.00  0.00    +0.216 C 
ATOM     16  C   UNL     1     -10.393   8.084  37.341  0.00  0.00    +0.123 C 
ATOM     17  C   UNL     1     -10.763   9.922  35.744  0.00  0.00    +0.123 C 
ATOM     18  C   UNL     1      -8.904   8.112  36.997  0.00  0.00    +0.103 C 
ATOM     19  C   UNL     1      -9.265   9.919  35.436  0.00  0.00    +0.103 C 
ATOM     22  C   UNL     1      -7.056   9.494  36.302  0.00  0.00    +0.105 C 
ENDBRANCH  11  14
ENDBRANCH   7  11
BRANCH   8  13
ATOM     13  C   UNL     1     -14.922   6.405  33.534  0.00  0.00    +0.064 C 
BRANCH  13  15
ATOM      2  O   UNL     1     -15.539   2.911  32.925  0.00  0.00    -0.359 OA
ATOM      6  N   UNL     1     -15.861   4.135  33.498  0.00  0.00    -0.083 NA
ATOM     15  C   UNL     1     -14.896   4.969  33.099  0.00  0.00    +0.084 A 
ATOM     20  C   UNL     1     -13.947   4.333  32.280  0.00  0.00    +0.071 A 
ATOM     21  C   UNL     1     -14.396   3.041  32.203  0.00  0.00    +0.138 A 
BRANCH  21  23
ATOM     23  C   UNL     1     -13.909   1.834  31.524  0.00  0.00    +0.077 C 
BRANCH  23  24
ATOM     24  C   UNL     1     -14.302   1.781  30.031  0.00  0.00    +0.007 C 
BRANCH  24  25
ATOM     25  C   UNL     1     -14.722   0.380  29.584  0.00  0.00    -0.003 C 
ATOM     26  C   UNL     1     -13.565  -0.603  29.672  0.00  0.00    +0.004 C 
ENDBRANCH  24  25
ENDBRANCH  23  24
ENDBRANCH  21  23
ENDBRANCH  13  15
ENDBRANCH   8  13
TORSDOF 7
ENDMDL
MODEL 7
REMARK VINA RESULT:      -5.5     27.339     29.216
REMARK  Name = 26742981
REMARK  9 active torsions:
REMARK  status: ('A' for Active; 'I' for Inactive)
REMARK    1  A    between atoms: N_5  and  C_22
REMARK    2  A    between atoms: C_7  and  C_11
REMARK    3  A    between atoms: C_8  and  C_13
REMARK    4  A    between atoms: C_11  and  C_14
REMARK    5  A    between atoms: C_13  and  C_15
REMARK    6  A    between atoms: C_21  and  C_23
REMARK    7  A    between atoms: C_23  and  C_24
REMARK    8  A    between atoms: C_24  and  C_25
REMARK    9  A    between atoms: C_25  and  C_26
REMARK                            x       y       z     vdW  Elec       q    Type
REMARK                         _______ _______ _______ _____ _____    ______ ____
ROOT
ATOM      3  N   UNL     1      -7.151 -11.614  20.057  0.00  0.00    -0.316 NA
ATOM      7  C   UNL     1      -7.197 -11.051  17.160  0.00  0.00    +0.004 C 
ATOM      8  C   UNL     1      -5.890 -11.338  17.935  0.00  0.00    +0.012 C 
ATOM      9  C   UNL     1      -8.378 -11.688  17.913  0.00  0.00    +0.019 C 
ATOM     10  C   UNL     1      -6.013 -10.952  19.419  0.00  0.00    +0.085 C 
ATOM     12  C   UNL     1      -8.411 -11.291  19.388  0.00  0.00    +0.081 C 
ATOM     27  H   UNL     1      -7.205 -11.327  21.033  0.00  0.00    +0.122 HD
ENDROOT
BRANCH   7  11
ATOM     11  C   UNL     1      -7.455  -9.563  16.901  0.00  0.00    +0.100 C 
BRANCH  11  14
ATOM      1  O   UNL     1      -8.011  -9.743  14.604  0.00  0.00    -0.276 OA
ATOM      4  N   UNL     1      -9.644  -8.856  15.999  0.00  0.00    -0.299 N 
ATOM      5  N   UNL     1     -12.429  -8.505  16.571  0.00  0.00    -0.302 NA
ATOM     14  C   UNL     1      -8.388  -9.398  15.727  0.00  0.00    +0.216 C 
ATOM     16  C   UNL     1     -10.607  -8.669  14.916  0.00  0.00    +0.123 C 
ATOM     17  C   UNL     1     -10.072  -8.316  17.293  0.00  0.00    +0.123 C 
ATOM     18  C   UNL     1     -12.000  -9.149  15.322  0.00  0.00    +0.103 C 
ATOM     19  C   UNL     1     -11.478  -8.796  17.654  0.00  0.00    +0.103 C 
ATOM     22  C   UNL     1     -13.775  -8.941  16.938  0.00  0.00    +0.105 C 
ENDBRANCH  11  14
ENDBRANCH   7  11
BRANCH   8  13
ATOM     13  C   UNL     1      -4.663 -10.676  17.308  0.00  0.00    +0.064 C 
BRANCH  13  15
ATOM      2  O   UNL     1      -3.886 -12.711  14.442  0.00  0.00    -0.359 OA
ATOM      6  N   UNL     1      -4.097 -12.534  15.804  0.00  0.00    -0.083 NA
ATOM     15  C   UNL     1      -4.374 -11.235  15.945  0.00  0.00    +0.084 A 
ATOM     20  C   UNL     1      -4.352 -10.548  14.719  0.00  0.00    +0.071 A 
ATOM     21  C   UNL     1      -4.040 -11.521  13.806  0.00  0.00    +0.138 A 
BRANCH  21  23
ATOM     23  C   UNL     1      -3.851 -11.527  12.350  0.00  0.00    +0.077 C 
BRANCH  23  24
ATOM     24  C   UNL     1      -2.383 -11.293  11.930  0.00  0.00    +0.007 C 
BRANCH  24  25
ATOM     25  C   UNL     1      -2.169  -9.925  11.282  0.00  0.00    -0.003 C 
ATOM     26  C   UNL     1      -3.390  -9.488  10.488  0.00  0.00    +0.004 C 
ENDBRANCH  24  25
ENDBRANCH  23  24
ENDBRANCH  21  23
ENDBRANCH  13  15
ENDBRANCH   8  13
TORSDOF 7
ENDMDL
MODEL 8
REMARK VINA RESULT:      -5.5      8.594     11.384
REMARK  Name = 26742981
REMARK  9 active torsions:
REMARK  status: ('A' for Active; 'I' for Inactive)
REMARK    1  A    between atoms: N_5  and  C_22
REMARK    2  A    between atoms: C_7  and  C_11
REMARK    3  A    between atoms: C_8  and  C_13
REMARK    4  A    between atoms: C_11  and  C_14
REMARK    5  A    between atoms: C_13  and  C_15
REMARK    6  A    between atoms: C_21  and  C_23
REMARK    7  A    between atoms: C_23  and  C_24
REMARK    8  A    between atoms: C_24  and  C_25
REMARK    9  A    between atoms: C_25  and  C_26
REMARK                            x       y       z     vdW  Elec       q    Type
REMARK                         _______ _______ _______ _____ _____    ______ ____
ROOT
ATOM      3  N   UNL     1      21.337   9.276  21.430  0.00  0.00    -0.316 NA
ATOM      7  C   UNL     1      22.054   6.603  20.405  0.00  0.00    +0.004 C 
ATOM      8  C   UNL     1      20.590   7.045  20.634  0.00  0.00    +0.012 C 
ATOM      9  C   UNL     1      22.927   7.851  20.187  0.00  0.00    +0.019 C 
ATOM     10  C   UNL     1      20.487   8.124  21.727  0.00  0.00    +0.085 C 
ATOM     12  C   UNL     1      22.741   8.892  21.289  0.00  0.00    +0.081 C 
ATOM     27  H   UNL     1      21.249   9.962  22.178  0.00  0.00    +0.122 HD
ENDROOT
BRANCH   7  11
ATOM     11  C   UNL     1      22.625   5.729  21.526  0.00  0.00    +0.100 C 
BRANCH  11  14
ATOM      1  O   UNL     1      23.872   4.590  19.863  0.00  0.00    -0.276 OA
ATOM      4  N   UNL     1      23.166   3.323  21.679  0.00  0.00    -0.299 N 
ATOM      5  N   UNL     1      23.651   1.121  23.446  0.00  0.00    -0.302 NA
ATOM     14  C   UNL     1      23.278   4.502  20.941  0.00  0.00    +0.216 C 
ATOM     16  C   UNL     1      23.777   2.092  21.181  0.00  0.00    +0.123 C 
ATOM     17  C   UNL     1      22.359   3.155  22.891  0.00  0.00    +0.123 C 
ATOM     18  C   UNL     1      24.528   1.357  22.291  0.00  0.00    +0.103 C 
ATOM     19  C   UNL     1      23.134   2.395  23.968  0.00  0.00    +0.103 C 
ATOM     22  C   UNL     1      24.363   0.389  24.491  0.00  0.00    +0.105 C 
ENDBRANCH  11  14
ENDBRANCH   7  11
BRANCH   8  13
ATOM     13  C   UNL     1      19.652   5.878  20.942  0.00  0.00    +0.064 C 
BRANCH  13  15
ATOM      2  O   UNL     1      16.855   5.624  18.691  0.00  0.00    -0.359 OA
ATOM      6  N   UNL     1      18.125   5.259  19.119  0.00  0.00    -0.083 NA
ATOM     15  C   UNL     1      18.353   6.008  20.202  0.00  0.00    +0.084 A 
ATOM     20  C   UNL     1      17.272   6.856  20.501  0.00  0.00    +0.071 A 
ATOM     21  C   UNL     1      16.357   6.576  19.521  0.00  0.00    +0.138 A 
BRANCH  21  23
ATOM     23  C   UNL     1      15.012   7.078  19.211  0.00  0.00    +0.077 C 
BRANCH  23  24
ATOM     24  C   UNL     1      14.030   6.943  20.396  0.00  0.00    +0.007 C 
BRANCH  24  25
ATOM     25  C   UNL     1      12.572   6.857  19.943  0.00  0.00    -0.003 C 
ATOM     26  C   UNL     1      11.654   6.468  21.091  0.00  0.00    +0.004 C 
ENDBRANCH  24  25
ENDBRANCH  23  24
ENDBRANCH  21  23
ENDBRANCH  13  15
ENDBRANCH   8  13
TORSDOF 7
ENDMDL
MODEL 9
REMARK VINA RESULT:      -5.3     16.307     21.896
REMARK  Name = 26742981
REMARK  9 active torsions:
REMARK  status: ('A' for Active; 'I' for Inactive)
REMARK    1  A    between atoms: N_5  and  C_22
REMARK    2  A    between atoms: C_7  and  C_11
REMARK    3  A    between atoms: C_8  and  C_13
REMARK    4  A    between atoms: C_11  and  C_14
REMARK    5  A    between atoms: C_13  and  C_15
REMARK    6  A    between atoms: C_21  and  C_23
REMARK    7  A    between atoms: C_23  and  C_24
REMARK    8  A    between atoms: C_24  and  C_25
REMARK    9  A    between atoms: C_25  and  C_26
REMARK                            x       y       z     vdW  Elec       q    Type
REMARK                         _______ _______ _______ _____ _____    ______ ____
ROOT
ATOM      3  N   UNL     1      16.351   4.395   0.159  0.00  0.00    -0.316 NA
ATOM      7  C   UNL     1      13.488   4.473  -0.553  0.00  0.00    +0.004 C 
ATOM      8  C   UNL     1      13.984   4.210   0.889  0.00  0.00    +0.012 C 
ATOM      9  C   UNL     1      14.569   5.253  -1.321  0.00  0.00    +0.019 C 
ATOM     10  C   UNL     1      15.389   3.580   0.900  0.00  0.00    +0.085 C 
ATOM     12  C   UNL     1      15.942   4.589  -1.231  0.00  0.00    +0.081 C 
ATOM     27  H   UNL     1      17.264   3.942   0.181  0.00  0.00    +0.122 HD
ENDROOT
BRANCH   7  11
ATOM     11  C   UNL     1      13.085   3.206  -1.315  0.00  0.00    +0.100 C 
BRANCH  11  14
ATOM      1  O   UNL     1      10.773   3.572  -0.941  0.00  0.00    -0.276 OA
ATOM      4  N   UNL     1      11.410   3.110  -3.127  0.00  0.00    -0.299 N 
ATOM      5  N   UNL     1      10.941   3.482  -5.929  0.00  0.00    -0.302 NA
ATOM     14  C   UNL     1      11.651   3.313  -1.769  0.00  0.00    +0.216 C 
ATOM     16  C   UNL     1      10.047   3.201  -3.647  0.00  0.00    +0.123 C 
ATOM     17  C   UNL     1      12.406   2.673  -4.109  0.00  0.00    +0.123 C 
ATOM     18  C   UNL     1       9.998   4.018  -4.938  0.00  0.00    +0.103 C 
ATOM     19  C   UNL     1      12.311   3.494  -5.395  0.00  0.00    +0.103 C 
ATOM     22  C   UNL     1      10.867   4.244  -7.174  0.00  0.00    +0.105 C 
ENDBRANCH  11  14
ENDBRANCH   7  11
BRANCH   8  13
ATOM     13  C   UNL     1      13.011   3.367   1.714  0.00  0.00    +0.064 C 
BRANCH  13  15
ATOM      2  O   UNL     1      10.299   4.737   3.644  0.00  0.00    -0.359 OA
ATOM      6  N   UNL     1      10.971   3.677   3.047  0.00  0.00    -0.083 NA
ATOM     15  C   UNL     1      12.040   4.230   2.465  0.00  0.00    +0.084 A 
ATOM     20  C   UNL     1      12.093   5.621   2.658  0.00  0.00    +0.071 A 
ATOM     21  C   UNL     1      10.976   5.889   3.405  0.00  0.00    +0.138 A 
BRANCH  21  23
ATOM     23  C   UNL     1      10.400   7.117   3.968  0.00  0.00    +0.077 C 
BRANCH  23  24
ATOM     24  C   UNL     1       9.014   7.460   3.379  0.00  0.00    +0.007 C 
BRANCH  24  25
ATOM     25  C   UNL     1       7.963   7.714   4.460  0.00  0.00    -0.003 C 
ATOM     26  C   UNL     1       7.917   6.577   5.470  0.00  0.00    +0.004 C 
ENDBRANCH  24  25
ENDBRANCH  23  24
ENDBRANCH  21  23
ENDBRANCH  13  15
ENDBRANCH   8  13
TORSDOF 7
ENDMDL
MODEL 10
REMARK VINA RESULT:      -5.2     27.071     30.069
REMARK  Name = 26742981
REMARK  9 active torsions:
REMARK  status: ('A' for Active; 'I' for Inactive)
REMARK    1  A    between atoms: N_5  and  C_22
REMARK    2  A    between atoms: C_7  and  C_11
REMARK    3  A    between atoms: C_8  and  C_13
REMARK    4  A    between atoms: C_11  and  C_14
REMARK    5  A    between atoms: C_13  and  C_15
REMARK    6  A    between atoms: C_21  and  C_23
REMARK    7  A    between atoms: C_23  and  C_24
REMARK    8  A    between atoms: C_24  and  C_25
REMARK    9  A    between atoms: C_25  and  C_26
REMARK                            x       y       z     vdW  Elec       q    Type
REMARK                         _______ _______ _______ _____ _____    ______ ____
ROOT
ATOM      3  N   UNL     1     -10.817 -13.282  17.545  0.00  0.00    -0.316 NA
ATOM      7  C   UNL     1     -10.247 -10.503  16.731  0.00  0.00    +0.004 C 
ATOM      8  C   UNL     1      -9.233 -11.369  17.514  0.00  0.00    +0.012 C 
ATOM      9  C   UNL     1     -11.207 -11.426  15.961  0.00  0.00    +0.019 C 
ATOM     10  C   UNL     1      -9.938 -12.444  18.360  0.00  0.00    +0.085 C 
ATOM     12  C   UNL     1     -11.836 -12.491  16.857  0.00  0.00    +0.081 C 
ATOM     27  H   UNL     1     -11.272 -13.973  18.139  0.00  0.00    +0.122 HD
ENDROOT
BRANCH   7  11
ATOM     11  C   UNL     1     -11.026  -9.513  17.603  0.00  0.00    +0.100 C 
BRANCH  11  14
ATOM      1  O   UNL     1      -9.610  -7.617  17.469  0.00  0.00    -0.276 OA
ATOM      4  N   UNL     1     -11.706  -7.417  16.487  0.00  0.00    -0.299 N 
ATOM      5  N   UNL     1     -13.330  -6.257  14.432  0.00  0.00    -0.302 NA
ATOM     14  C   UNL     1     -10.710  -8.099  17.186  0.00  0.00    +0.216 C 
ATOM     16  C   UNL     1     -11.474  -6.044  16.043  0.00  0.00    +0.123 C 
ATOM     17  C   UNL     1     -13.066  -7.911  16.251  0.00  0.00    +0.123 C 
ATOM     18  C   UNL     1     -11.930  -5.843  14.599  0.00  0.00    +0.103 C 
ATOM     19  C   UNL     1     -13.496  -7.670  14.804  0.00  0.00    +0.103 C 
ATOM     22  C   UNL     1     -13.773  -6.033  13.057  0.00  0.00    +0.105 C 
ENDBRANCH  11  14
ENDBRANCH   7  11
BRANCH   8  13
ATOM     13  C   UNL     1      -8.281 -10.544  18.380  0.00  0.00    +0.064 C 
BRANCH  13  15
ATOM      2  O   UNL     1      -5.479  -9.537  16.357  0.00  0.00    -0.359 OA
ATOM      6  N   UNL     1      -6.809  -9.444  16.750  0.00  0.00    -0.083 NA
ATOM     15  C   UNL     1      -6.950 -10.361  17.711  0.00  0.00    +0.084 A 
ATOM     20  C   UNL     1      -5.755 -11.057  17.965  0.00  0.00    +0.071 A 
ATOM     21  C   UNL     1      -4.862 -10.501  17.087  0.00  0.00    +0.138 A 
BRANCH  21  23
ATOM     23  C   UNL     1      -3.441 -10.732  16.799  0.00  0.00    +0.077 C 
BRANCH  23  24
ATOM     24  C   UNL     1      -3.192 -11.251  15.365  0.00  0.00    +0.007 C 
BRANCH  24  25
ATOM     25  C   UNL     1      -2.057 -10.506  14.661  0.00  0.00    -0.003 C 
ATOM     26  C   UNL     1      -0.948 -10.134  15.633  0.00  0.00    +0.004 C 
ENDBRANCH  24  25
ENDBRANCH  23  24
ENDBRANCH  21  23
ENDBRANCH  13  15
ENDBRANCH   8  13
TORSDOF 7
ENDMDL
