REMARK  Name = 11912433
REMARK  4 active torsions:
REMARK  status: ('A' for Active; 'I' for Inactive)
REMARK    1  A    between atoms: O_6  and  C_33
REMARK    2  A    between atoms: O_6  and  C_34
REMARK    3  A    between atoms: N_9  and  C_18
REMARK    4  A    between atoms: C_25  and  C_28
REMARK                            x       y       z     vdW  Elec       q    Type
REMARK                         _______ _______ _______ _____ _____    ______ ____
ROOT
ATOM      4  O   UNL     1      -3.442   0.210   2.232  0.00  0.00    -0.253 OA
ATOM      5  O   UNL     1       0.919  -0.726  -1.823  0.00  0.00    -0.267 OA
ATOM      7  N   UNL     1      -3.641  -1.096   0.322  0.00  0.00    -0.285 N 
ATOM      8  N   UNL     1      -0.743  -1.978  -0.769  0.00  0.00    -0.311 N 
ATOM      9  N   UNL     1      -3.780   1.264   0.223  0.00  0.00    -0.296 N 
ATOM     10  C   UNL     1      -3.063  -2.324  -1.791  0.00  0.00    +0.027 C 
ATOM     11  C   UNL     1      -2.529  -3.329   0.383  0.00  0.00    +0.054 C 
ATOM     12  C   UNL     1      -3.065  -3.632  -1.013  0.00  0.00    +0.018 C 
ATOM     13  C   UNL     1      -3.952  -1.268  -1.105  0.00  0.00    +0.114 C 
ATOM     14  C   UNL     1      -3.473  -2.339   1.085  0.00  0.00    +0.119 C 
ATOM     15  C   UNL     1      -1.615  -1.842  -1.943  0.00  0.00    +0.130 C 
ATOM     16  C   UNL     1      -1.127  -2.753   0.327  0.00  0.00    +0.027 A 
ATOM     17  C   UNL     1      -3.608   0.131   1.010  0.00  0.00    +0.302 C 
ATOM     19  C   UNL     1      -0.266  -2.965   1.335  0.00  0.00    +0.022 A 
ATOM     20  C   UNL     1       0.532  -1.385  -0.856  0.00  0.00    +0.259 A 
ATOM     25  C   UNL     1       1.461  -1.609   0.307  0.00  0.00    +0.047 A 
ATOM     27  C   UNL     1       1.043  -2.377   1.325  0.00  0.00    +0.015 A 
ATOM     35  H   UNL     1      -4.062   1.185  -0.743  0.00  0.00    +0.151 HD
ENDROOT
BRANCH   9  18
ATOM     18  C   UNL     1      -3.776   2.597   0.782  0.00  0.00    +0.074 C 
ATOM     21  C   UNL     1      -3.200   3.610  -0.213  0.00  0.00    +0.022 C 
ATOM     22  C   UNL     1      -5.179   3.006   1.241  0.00  0.00    +0.022 C 
ATOM     23  C   UNL     1      -4.145   3.883  -1.383  0.00  0.00    +0.002 C 
ATOM     24  C   UNL     1      -6.122   3.280   0.069  0.00  0.00    +0.002 C 
ATOM     26  C   UNL     1      -5.531   4.299  -0.901  0.00  0.00    +0.000 C 
ENDBRANCH   9  18
BRANCH  25  28
ATOM     28  C   UNL     1       2.800  -0.996   0.344  0.00  0.00    -0.012 A 
ATOM     29  C   UNL     1       3.896  -1.679  -0.186  0.00  0.00    +0.012 A 
ATOM     30  C   UNL     1       2.975   0.268   0.908  0.00  0.00    +0.012 A 
ATOM     31  C   UNL     1       5.164  -1.099  -0.151  0.00  0.00    +0.046 A 
ATOM     32  C   UNL     1       4.243   0.848   0.943  0.00  0.00    +0.046 A 
ATOM     33  C   UNL     1       5.337   0.165   0.413  0.00  0.00    +0.130 A 
BRANCH  33   6
ATOM      6  O   UNL     1       6.574   0.731   0.446  0.00  0.00    -0.406 OA
BRANCH   6  34
ATOM      1  F   UNL     1       8.036   2.033  -0.678  0.00  0.00    -0.133 F 
ATOM      2  F   UNL     1       5.936   2.088  -1.281  0.00  0.00    -0.133 F 
ATOM      3  F   UNL     1       6.577   3.011   0.622  0.00  0.00    -0.133 F 
ATOM     34  C   UNL     1       6.764   1.974  -0.221  0.00  0.00    +0.575 C 
ENDBRANCH   6  34
ENDBRANCH  33   6
ENDBRANCH  25  28
TORSDOF 4
