MODEL 1
REMARK VINA RESULT:      -7.7      0.000      0.000
REMARK  Name = 51137475
REMARK  7 active torsions:
REMARK  status: ('A' for Active; 'I' for Inactive)
REMARK    1  A    between atoms: O_5  and  C_23
REMARK    2  A    between atoms: O_5  and  C_29
REMARK    3  A    between atoms: N_6  and  C_13
REMARK    4  A    between atoms: C_9  and  C_14
REMARK    5  A    between atoms: C_13  and  C_15
REMARK    6  A    between atoms: C_18  and  C_22
REMARK    7  A    between atoms: C_21  and  C_24
REMARK                            x       y       z     vdW  Elec       q    Type
REMARK                         _______ _______ _______ _____ _____    ______ ____
ROOT
ATOM      6  N   UNL     1      14.964   7.281  20.452  0.00  0.00    -0.297 NA
ATOM      9  C   UNL     1      12.920   7.316  21.598  0.00  0.00    +0.092 C 
ATOM     10  C   UNL     1      12.706   6.753  20.182  0.00  0.00    +0.029 C 
ATOM     11  C   UNL     1      14.296   7.991  21.544  0.00  0.00    +0.097 C 
ATOM     12  C   UNL     1      13.950   7.160  19.404  0.00  0.00    +0.085 C 
ENDROOT
BRANCH   9  14
ATOM      4  O   UNL     1      12.220   9.436  22.605  0.00  0.00    -0.420 OA
ATOM      7  N   UNL     1      10.527   8.073  22.081  0.00  0.00    -0.112 NA
ATOM      8  N   UNL     1       9.994   9.222  22.637  0.00  0.00    -0.107 NA
ATOM     14  C   UNL     1      11.828   8.242  22.083  0.00  0.00    +0.222 A 
ATOM     18  C   UNL     1      11.019   9.989  22.927  0.00  0.00    +0.252 A 
BRANCH  18  22
ATOM     22  C   UNL     1      11.066  11.294  23.519  0.00  0.00    +0.080 A 
ATOM     23  C   UNL     1      11.137  12.438  22.726  0.00  0.00    +0.132 A 
ATOM     25  C   UNL     1      11.044  11.410  24.909  0.00  0.00    +0.017 A 
ATOM     26  C   UNL     1      11.184  13.699  23.321  0.00  0.00    +0.046 A 
ATOM     27  C   UNL     1      11.091  12.670  25.505  0.00  0.00    +0.001 A 
ATOM     28  C   UNL     1      11.160  13.815  24.711  0.00  0.00    +0.004 A 
BRANCH  23   5
ATOM      5  O   UNL     1      11.161  12.355  21.364  0.00  0.00    -0.494 OA
ATOM     29  C   UNL     1      12.392  12.675  20.720  0.00  0.00    +0.277 C 
ENDBRANCH  23   5
ENDBRANCH  18  22
ENDBRANCH   9  14
BRANCH   6  13
ATOM     13  C   UNL     1      16.159   7.971  19.989  0.00  0.00    +0.119 C 
BRANCH  13  15
ATOM     15  C   UNL     1      17.403   7.152  20.215  0.00  0.00    -0.033 A 
ATOM     16  C   UNL     1      18.298   7.508  21.223  0.00  0.00    +0.005 A 
ATOM     17  C   UNL     1      17.659   6.039  19.414  0.00  0.00    +0.005 A 
ATOM     19  C   UNL     1      19.450   6.748  21.432  0.00  0.00    +0.012 A 
ATOM     20  C   UNL     1      18.810   5.280  19.623  0.00  0.00    +0.012 A 
ATOM     21  C   UNL     1      19.707   5.635  20.632  0.00  0.00    +0.055 A 
BRANCH  21  24
ATOM      1  F   UNL     1      20.771   3.493  20.595  0.00  0.00    -0.166 F 
ATOM      2  F   UNL     1      21.384   4.891  22.143  0.00  0.00    -0.166 F 
ATOM      3  F   UNL     1      21.994   5.208  20.081  0.00  0.00    -0.166 F 
ATOM     24  C   UNL     1      20.937   4.823  20.855  0.00  0.00    +0.417 C 
ENDBRANCH  21  24
ENDBRANCH  13  15
ENDBRANCH   6  13
TORSDOF 6
ENDMDL
MODEL 2
REMARK VINA RESULT:      -7.6     28.333     31.091
REMARK  Name = 51137475
REMARK  7 active torsions:
REMARK  status: ('A' for Active; 'I' for Inactive)
REMARK    1  A    between atoms: O_5  and  C_23
REMARK    2  A    between atoms: O_5  and  C_29
REMARK    3  A    between atoms: N_6  and  C_13
REMARK    4  A    between atoms: C_9  and  C_14
REMARK    5  A    between atoms: C_13  and  C_15
REMARK    6  A    between atoms: C_18  and  C_22
REMARK    7  A    between atoms: C_21  and  C_24
REMARK                            x       y       z     vdW  Elec       q    Type
REMARK                         _______ _______ _______ _____ _____    ______ ____
ROOT
ATOM      6  N   UNL     1     -16.198   4.194  23.852  0.00  0.00    -0.297 NA
ATOM      9  C   UNL     1     -16.392   2.181  25.039  0.00  0.00    +0.092 C 
ATOM     10  C   UNL     1     -17.585   2.330  24.078  0.00  0.00    +0.029 C 
ATOM     11  C   UNL     1     -15.780   3.586  25.117  0.00  0.00    +0.097 C 
ATOM     12  C   UNL     1     -17.599   3.802  23.691  0.00  0.00    +0.085 C 
ENDROOT
BRANCH   9  14
ATOM      4  O   UNL     1     -16.032   2.085  27.459  0.00  0.00    -0.420 OA
ATOM      7  N   UNL     1     -17.635   0.712  26.721  0.00  0.00    -0.112 NA
ATOM      8  N   UNL     1     -17.537   0.556  28.091  0.00  0.00    -0.107 NA
ATOM     14  C   UNL     1     -16.738   1.614  26.396  0.00  0.00    +0.222 A 
ATOM     18  C   UNL     1     -16.589   1.378  28.479  0.00  0.00    +0.252 A 
BRANCH  18  22
ATOM     22  C   UNL     1     -16.063   1.639  29.787  0.00  0.00    +0.080 A 
ATOM     23  C   UNL     1     -15.272   0.695  30.442  0.00  0.00    +0.132 A 
ATOM     25  C   UNL     1     -16.353   2.855  30.405  0.00  0.00    +0.017 A 
ATOM     26  C   UNL     1     -14.770   0.968  31.715  0.00  0.00    +0.046 A 
ATOM     27  C   UNL     1     -15.852   3.128  31.678  0.00  0.00    +0.001 A 
ATOM     28  C   UNL     1     -15.060   2.185  32.333  0.00  0.00    +0.004 A 
BRANCH  23   5
ATOM      5  O   UNL     1     -14.973  -0.502  29.862  0.00  0.00    -0.494 OA
ATOM     29  C   UNL     1     -13.610  -0.721  29.501  0.00  0.00    +0.277 C 
ENDBRANCH  23   5
ENDBRANCH  18  22
ENDBRANCH   9  14
BRANCH   6  13
ATOM     13  C   UNL     1     -16.023   5.639  23.846  0.00  0.00    +0.119 C 
BRANCH  13  15
ATOM     15  C   UNL     1     -14.924   6.067  22.910  0.00  0.00    -0.033 A 
ATOM     16  C   UNL     1     -13.974   5.141  22.481  0.00  0.00    +0.005 A 
ATOM     17  C   UNL     1     -14.857   7.390  22.473  0.00  0.00    +0.005 A 
ATOM     19  C   UNL     1     -12.955   5.539  21.613  0.00  0.00    +0.012 A 
ATOM     20  C   UNL     1     -13.840   7.788  21.606  0.00  0.00    +0.012 A 
ATOM     21  C   UNL     1     -12.888   6.862  21.176  0.00  0.00    +0.055 A 
BRANCH  21  24
ATOM      1  F   UNL     1     -10.631   7.598  20.882  0.00  0.00    -0.166 F 
ATOM      2  F   UNL     1     -12.131   8.396  19.525  0.00  0.00    -0.166 F 
ATOM      3  F   UNL     1     -11.465   6.336  19.328  0.00  0.00    -0.166 F 
ATOM     24  C   UNL     1     -11.801   7.287  20.249  0.00  0.00    +0.417 C 
ENDBRANCH  21  24
ENDBRANCH  13  15
ENDBRANCH   6  13
TORSDOF 6
ENDMDL
MODEL 3
REMARK VINA RESULT:      -7.4      3.805      5.547
REMARK  Name = 51137475
REMARK  7 active torsions:
REMARK  status: ('A' for Active; 'I' for Inactive)
REMARK    1  A    between atoms: O_5  and  C_23
REMARK    2  A    between atoms: O_5  and  C_29
REMARK    3  A    between atoms: N_6  and  C_13
REMARK    4  A    between atoms: C_9  and  C_14
REMARK    5  A    between atoms: C_13  and  C_15
REMARK    6  A    between atoms: C_18  and  C_22
REMARK    7  A    between atoms: C_21  and  C_24
REMARK                            x       y       z     vdW  Elec       q    Type
REMARK                         _______ _______ _______ _____ _____    ______ ____
ROOT
ATOM      6  N   UNL     1      18.598   6.466  20.705  0.00  0.00    -0.297 NA
ATOM      9  C   UNL     1      16.380   7.196  20.493  0.00  0.00    +0.092 C 
ATOM     10  C   UNL     1      16.616   5.989  19.567  0.00  0.00    +0.029 C 
ATOM     11  C   UNL     1      17.787   7.674  20.874  0.00  0.00    +0.097 C 
ATOM     12  C   UNL     1      18.129   5.869  19.454  0.00  0.00    +0.085 C 
ENDROOT
BRANCH   9  14
ATOM      4  O   UNL     1      14.621   7.925  18.952  0.00  0.00    -0.420 OA
ATOM      7  N   UNL     1      15.519   9.580  20.159  0.00  0.00    -0.112 NA
ATOM      8  N   UNL     1      14.550  10.127  19.339  0.00  0.00    -0.107 NA
ATOM     14  C   UNL     1      15.526   8.293  19.900  0.00  0.00    +0.222 A 
ATOM     18  C   UNL     1      14.052   9.124  18.652  0.00  0.00    +0.252 A 
BRANCH  18  22
ATOM     22  C   UNL     1      13.021   9.099  17.656  0.00  0.00    +0.080 A 
ATOM     23  C   UNL     1      11.800   8.475  17.906  0.00  0.00    +0.132 A 
ATOM     25  C   UNL     1      13.254   9.707  16.423  0.00  0.00    +0.017 A 
ATOM     26  C   UNL     1      10.810   8.460  16.923  0.00  0.00    +0.046 A 
ATOM     27  C   UNL     1      12.265   9.693  15.440  0.00  0.00    +0.001 A 
ATOM     28  C   UNL     1      11.043   9.069  15.689  0.00  0.00    +0.004 A 
BRANCH  23   5
ATOM      5  O   UNL     1      11.544   7.872  19.102  0.00  0.00    -0.494 OA
ATOM     29  C   UNL     1      10.852   8.645  20.080  0.00  0.00    +0.277 C 
ENDBRANCH  23   5
ENDBRANCH  18  22
ENDBRANCH   9  14
BRANCH   6  13
ATOM     13  C   UNL     1      20.024   6.753  20.682  0.00  0.00    +0.119 C 
BRANCH  13  15
ATOM     15  C   UNL     1      20.829   5.654  21.324  0.00  0.00    -0.033 A 
ATOM     16  C   UNL     1      21.033   4.452  20.647  0.00  0.00    +0.005 A 
ATOM     17  C   UNL     1      21.369   5.838  22.597  0.00  0.00    +0.005 A 
ATOM     19  C   UNL     1      21.779   3.434  21.242  0.00  0.00    +0.012 A 
ATOM     20  C   UNL     1      22.115   4.821  23.192  0.00  0.00    +0.012 A 
ATOM     21  C   UNL     1      22.319   3.619  22.515  0.00  0.00    +0.055 A 
BRANCH  21  24
ATOM      1  F   UNL     1      23.520   1.564  22.276  0.00  0.00    -0.166 F 
ATOM      2  F   UNL     1      22.425   1.875  24.128  0.00  0.00    -0.166 F 
ATOM      3  F   UNL     1      24.263   2.971  23.748  0.00  0.00    -0.166 F 
ATOM     24  C   UNL     1      23.117   2.531  23.151  0.00  0.00    +0.417 C 
ENDBRANCH  21  24
ENDBRANCH  13  15
ENDBRANCH   6  13
TORSDOF 6
ENDMDL
MODEL 4
REMARK VINA RESULT:      -6.9      5.778     11.037
REMARK  Name = 51137475
REMARK  7 active torsions:
REMARK  status: ('A' for Active; 'I' for Inactive)
REMARK    1  A    between atoms: O_5  and  C_23
REMARK    2  A    between atoms: O_5  and  C_29
REMARK    3  A    between atoms: N_6  and  C_13
REMARK    4  A    between atoms: C_9  and  C_14
REMARK    5  A    between atoms: C_13  and  C_15
REMARK    6  A    between atoms: C_18  and  C_22
REMARK    7  A    between atoms: C_21  and  C_24
REMARK                            x       y       z     vdW  Elec       q    Type
REMARK                         _______ _______ _______ _____ _____    ______ ____
ROOT
ATOM      6  N   UNL     1      17.851   8.152  20.798  0.00  0.00    -0.297 NA
ATOM      9  C   UNL     1      19.674   6.678  20.848  0.00  0.00    +0.092 C 
ATOM     10  C   UNL     1      18.410   5.919  20.407  0.00  0.00    +0.029 C 
ATOM     11  C   UNL     1      19.149   7.986  21.456  0.00  0.00    +0.097 C 
ATOM     12  C   UNL     1      17.249   6.818  20.810  0.00  0.00    +0.085 C 
ENDROOT
BRANCH   9  14
ATOM      4  O   UNL     1      21.276   4.872  21.258  0.00  0.00    -0.420 OA
ATOM      7  N   UNL     1      20.800   6.098  23.068  0.00  0.00    -0.112 NA
ATOM      8  N   UNL     1      21.708   5.122  23.439  0.00  0.00    -0.107 NA
ATOM     14  C   UNL     1      20.577   5.913  21.787  0.00  0.00    +0.222 A 
ATOM     18  C   UNL     1      21.957   4.431  22.351  0.00  0.00    +0.252 A 
BRANCH  18  22
ATOM     22  C   UNL     1      22.820   3.305  22.141  0.00  0.00    +0.080 A 
ATOM     23  C   UNL     1      22.993   2.341  23.134  0.00  0.00    +0.132 A 
ATOM     25  C   UNL     1      23.494   3.183  20.926  0.00  0.00    +0.017 A 
ATOM     26  C   UNL     1      23.839   1.254  22.911  0.00  0.00    +0.046 A 
ATOM     27  C   UNL     1      24.339   2.097  20.703  0.00  0.00    +0.001 A 
ATOM     28  C   UNL     1      24.511   1.132  21.695  0.00  0.00    +0.004 A 
BRANCH  23   5
ATOM      5  O   UNL     1      22.348   2.435  24.332  0.00  0.00    -0.494 OA
ATOM     29  C   UNL     1      22.281   1.250  25.123  0.00  0.00    +0.277 C 
ENDBRANCH  23   5
ENDBRANCH  18  22
ENDBRANCH   9  14
BRANCH   6  13
ATOM     13  C   UNL     1      17.016   9.142  21.462  0.00  0.00    +0.119 C 
BRANCH  13  15
ATOM     15  C   UNL     1      15.555   8.933  21.166  0.00  0.00    -0.033 A 
ATOM     16  C   UNL     1      14.684   8.553  22.187  0.00  0.00    +0.005 A 
ATOM     17  C   UNL     1      15.072   9.119  19.870  0.00  0.00    +0.005 A 
ATOM     19  C   UNL     1      13.330   8.359  21.912  0.00  0.00    +0.012 A 
ATOM     20  C   UNL     1      13.719   8.926  19.595  0.00  0.00    +0.012 A 
ATOM     21  C   UNL     1      12.847   8.545  20.616  0.00  0.00    +0.055 A 
BRANCH  21  24
ATOM      1  F   UNL     1      11.076   8.522  19.009  0.00  0.00    -0.166 F 
ATOM      2  F   UNL     1      10.596   9.193  21.020  0.00  0.00    -0.166 F 
ATOM      3  F   UNL     1      10.953   7.085  20.627  0.00  0.00    -0.166 F 
ATOM     24  C   UNL     1      11.400   8.339  20.323  0.00  0.00    +0.417 C 
ENDBRANCH  21  24
ENDBRANCH  13  15
ENDBRANCH   6  13
TORSDOF 6
ENDMDL
MODEL 5
REMARK VINA RESULT:      -6.8     26.925     29.145
REMARK  Name = 51137475
REMARK  7 active torsions:
REMARK  status: ('A' for Active; 'I' for Inactive)
REMARK    1  A    between atoms: O_5  and  C_23
REMARK    2  A    between atoms: O_5  and  C_29
REMARK    3  A    between atoms: N_6  and  C_13
REMARK    4  A    between atoms: C_9  and  C_14
REMARK    5  A    between atoms: C_13  and  C_15
REMARK    6  A    between atoms: C_18  and  C_22
REMARK    7  A    between atoms: C_21  and  C_24
REMARK                            x       y       z     vdW  Elec       q    Type
REMARK                         _______ _______ _______ _____ _____    ______ ____
ROOT
ATOM      6  N   UNL     1      -1.984 -11.037  14.082  0.00  0.00    -0.297 NA
ATOM      9  C   UNL     1      -3.169 -10.261  15.951  0.00  0.00    +0.092 C 
ATOM     10  C   UNL     1      -1.708 -10.542  16.348  0.00  0.00    +0.029 C 
ATOM     11  C   UNL     1      -3.350 -10.976  14.606  0.00  0.00    +0.097 C 
ATOM     12  C   UNL     1      -1.158 -11.416  15.229  0.00  0.00    +0.085 C 
ENDROOT
BRANCH   9  14
ATOM      4  O   UNL     1      -5.445 -10.148  16.848  0.00  0.00    -0.420 OA
ATOM      7  N   UNL     1      -4.071 -11.477  18.010  0.00  0.00    -0.112 NA
ATOM      8  N   UNL     1      -5.311 -11.505  18.622  0.00  0.00    -0.107 NA
ATOM     14  C   UNL     1      -4.196 -10.673  16.980  0.00  0.00    +0.222 A 
ATOM     18  C   UNL     1      -6.081 -10.715  17.909  0.00  0.00    +0.252 A 
BRANCH  18  22
ATOM     22  C   UNL     1      -7.462 -10.367  18.073  0.00  0.00    +0.080 A 
ATOM     23  C   UNL     1      -8.234 -10.953  19.075  0.00  0.00    +0.132 A 
ATOM     25  C   UNL     1      -8.032  -9.429  17.212  0.00  0.00    +0.017 A 
ATOM     26  C   UNL     1      -9.577 -10.602  19.218  0.00  0.00    +0.046 A 
ATOM     27  C   UNL     1      -9.374  -9.077  17.354  0.00  0.00    +0.001 A 
ATOM     28  C   UNL     1     -10.147  -9.663  18.357  0.00  0.00    +0.004 A 
BRANCH  23   5
ATOM      5  O   UNL     1      -7.703 -11.873  19.931  0.00  0.00    -0.494 OA
ATOM     29  C   UNL     1      -8.379 -13.125  20.033  0.00  0.00    +0.277 C 
ENDBRANCH  23   5
ENDBRANCH  18  22
ENDBRANCH   9  14
BRANCH   6  13
ATOM     13  C   UNL     1      -1.855 -11.971  12.974  0.00  0.00    +0.119 C 
BRANCH  13  15
ATOM     15  C   UNL     1      -2.641 -11.524  11.769  0.00  0.00    -0.033 A 
ATOM     16  C   UNL     1      -2.585 -10.193  11.355  0.00  0.00    +0.005 A 
ATOM     17  C   UNL     1      -3.425 -12.441  11.069  0.00  0.00    +0.005 A 
ATOM     19  C   UNL     1      -3.314  -9.780  10.238  0.00  0.00    +0.012 A 
ATOM     20  C   UNL     1      -4.153 -12.028   9.954  0.00  0.00    +0.012 A 
ATOM     21  C   UNL     1      -4.098 -10.697   9.538  0.00  0.00    +0.055 A 
BRANCH  21  24
ATOM      1  F   UNL     1      -6.228 -10.366   8.502  0.00  0.00    -0.166 F 
ATOM      2  F   UNL     1      -4.577 -10.979   7.227  0.00  0.00    -0.166 F 
ATOM      3  F   UNL     1      -4.662  -8.951   8.005  0.00  0.00    -0.166 F 
ATOM     24  C   UNL     1      -4.876 -10.256   8.346  0.00  0.00    +0.417 C 
ENDBRANCH  21  24
ENDBRANCH  13  15
ENDBRANCH   6  13
TORSDOF 6
ENDMDL
MODEL 6
REMARK VINA RESULT:      -6.8     28.541     31.356
REMARK  Name = 51137475
REMARK  7 active torsions:
REMARK  status: ('A' for Active; 'I' for Inactive)
REMARK    1  A    between atoms: O_5  and  C_23
REMARK    2  A    between atoms: O_5  and  C_29
REMARK    3  A    between atoms: N_6  and  C_13
REMARK    4  A    between atoms: C_9  and  C_14
REMARK    5  A    between atoms: C_13  and  C_15
REMARK    6  A    between atoms: C_18  and  C_22
REMARK    7  A    between atoms: C_21  and  C_24
REMARK                            x       y       z     vdW  Elec       q    Type
REMARK                         _______ _______ _______ _____ _____    ______ ____
ROOT
ATOM      6  N   UNL     1     -16.983   3.647  26.013  0.00  0.00    -0.297 NA
ATOM      9  C   UNL     1     -17.246   3.830  23.691  0.00  0.00    +0.092 C 
ATOM     10  C   UNL     1     -16.617   2.467  24.032  0.00  0.00    +0.029 C 
ATOM     11  C   UNL     1     -17.076   4.666  24.966  0.00  0.00    +0.097 C 
ATOM     12  C   UNL     1     -16.105   2.615  25.458  0.00  0.00    +0.085 C 
ENDROOT
BRANCH   9  14
ATOM      4  O   UNL     1     -15.579   5.289  22.647  0.00  0.00    -0.420 OA
ATOM      7  N   UNL     1     -17.080   4.450  21.217  0.00  0.00    -0.112 NA
ATOM      8  N   UNL     1     -16.207   5.249  20.501  0.00  0.00    -0.107 NA
ATOM     14  C   UNL     1     -16.675   4.503  22.464  0.00  0.00    +0.222 A 
ATOM     18  C   UNL     1     -15.348   5.717  21.377  0.00  0.00    +0.252 A 
BRANCH  18  22
ATOM     22  C   UNL     1     -14.226   6.593  21.203  0.00  0.00    +0.080 A 
ATOM     23  C   UNL     1     -14.409   7.960  21.004  0.00  0.00    +0.132 A 
ATOM     25  C   UNL     1     -12.938   6.059  21.230  0.00  0.00    +0.017 A 
ATOM     26  C   UNL     1     -13.305   8.796  20.835  0.00  0.00    +0.046 A 
ATOM     27  C   UNL     1     -11.833   6.893  21.061  0.00  0.00    +0.001 A 
ATOM     28  C   UNL     1     -12.016   8.261  20.864  0.00  0.00    +0.004 A 
BRANCH  23   5
ATOM      5  O   UNL     1     -15.657   8.510  20.972  0.00  0.00    -0.494 OA
ATOM     29  C   UNL     1     -15.970   9.336  19.853  0.00  0.00    +0.277 C 
ENDBRANCH  23   5
ENDBRANCH  18  22
ENDBRANCH   9  14
BRANCH   6  13
ATOM     13  C   UNL     1     -16.479   4.185  27.268  0.00  0.00    +0.119 C 
BRANCH  13  15
ATOM     15  C   UNL     1     -16.106   3.095  28.237  0.00  0.00    -0.033 A 
ATOM     16  C   UNL     1     -14.999   3.251  29.070  0.00  0.00    +0.005 A 
ATOM     17  C   UNL     1     -16.868   1.928  28.301  0.00  0.00    +0.005 A 
ATOM     19  C   UNL     1     -14.653   2.240  29.968  0.00  0.00    +0.012 A 
ATOM     20  C   UNL     1     -16.523   0.918  29.198  0.00  0.00    +0.012 A 
ATOM     21  C   UNL     1     -15.415   1.074  30.032  0.00  0.00    +0.055 A 
BRANCH  21  24
ATOM      1  F   UNL     1     -15.920  -1.056  30.997  0.00  0.00    -0.166 F 
ATOM      2  F   UNL     1     -14.996   0.434  32.283  0.00  0.00    -0.166 F 
ATOM      3  F   UNL     1     -13.824  -0.562  30.747  0.00  0.00    -0.166 F 
ATOM     24  C   UNL     1     -15.047  -0.006  30.992  0.00  0.00    +0.417 C 
ENDBRANCH  21  24
ENDBRANCH  13  15
ENDBRANCH   6  13
TORSDOF 6
ENDMDL
MODEL 7
REMARK VINA RESULT:      -6.7      6.129     11.039
REMARK  Name = 51137475
REMARK  7 active torsions:
REMARK  status: ('A' for Active; 'I' for Inactive)
REMARK    1  A    between atoms: O_5  and  C_23
REMARK    2  A    between atoms: O_5  and  C_29
REMARK    3  A    between atoms: N_6  and  C_13
REMARK    4  A    between atoms: C_9  and  C_14
REMARK    5  A    between atoms: C_13  and  C_15
REMARK    6  A    between atoms: C_18  and  C_22
REMARK    7  A    between atoms: C_21  and  C_24
REMARK                            x       y       z     vdW  Elec       q    Type
REMARK                         _______ _______ _______ _____ _____    ______ ____
ROOT
ATOM      6  N   UNL     1      17.454   7.570  20.769  0.00  0.00    -0.297 NA
ATOM      9  C   UNL     1      19.639   6.721  20.804  0.00  0.00    +0.092 C 
ATOM     10  C   UNL     1      18.771   5.871  19.858  0.00  0.00    +0.029 C 
ATOM     11  C   UNL     1      18.632   7.525  21.637  0.00  0.00    +0.097 C 
ATOM     12  C   UNL     1      17.334   6.217  20.224  0.00  0.00    +0.085 C 
ENDROOT
BRANCH   9  14
ATOM      4  O   UNL     1      21.548   5.199  20.995  0.00  0.00    -0.420 OA
ATOM      7  N   UNL     1      20.693   5.841  22.959  0.00  0.00    -0.112 NA
ATOM      8  N   UNL     1      21.755   4.991  23.212  0.00  0.00    -0.107 NA
ATOM     14  C   UNL     1      20.610   5.933  21.653  0.00  0.00    +0.222 A 
ATOM     18  C   UNL     1      22.223   4.641  22.037  0.00  0.00    +0.252 A 
BRANCH  18  22
ATOM     22  C   UNL     1      23.315   3.780  21.689  0.00  0.00    +0.080 A 
ATOM     23  C   UNL     1      24.614   4.275  21.590  0.00  0.00    +0.132 A 
ATOM     25  C   UNL     1      23.063   2.429  21.445  0.00  0.00    +0.017 A 
ATOM     26  C   UNL     1      25.663   3.421  21.249  0.00  0.00    +0.046 A 
ATOM     27  C   UNL     1      24.111   1.575  21.104  0.00  0.00    +0.001 A 
ATOM     28  C   UNL     1      25.411   2.070  21.006  0.00  0.00    +0.004 A 
BRANCH  23   5
ATOM      5  O   UNL     1      24.890   5.591  21.823  0.00  0.00    -0.494 OA
ATOM     29  C   UNL     1      25.043   6.430  20.680  0.00  0.00    +0.277 C 
ENDBRANCH  23   5
ENDBRANCH  18  22
ENDBRANCH   9  14
BRANCH   6  13
ATOM     13  C   UNL     1      16.255   7.989  21.481  0.00  0.00    +0.119 C 
BRANCH  13  15
ATOM     15  C   UNL     1      15.075   8.131  20.557  0.00  0.00    -0.033 A 
ATOM     16  C   UNL     1      15.045   9.161  19.617  0.00  0.00    +0.005 A 
ATOM     17  C   UNL     1      14.011   7.233  20.641  0.00  0.00    +0.005 A 
ATOM     19  C   UNL     1      13.951   9.292  18.761  0.00  0.00    +0.012 A 
ATOM     20  C   UNL     1      12.918   7.363  19.786  0.00  0.00    +0.012 A 
ATOM     21  C   UNL     1      12.887   8.394  18.846  0.00  0.00    +0.055 A 
BRANCH  21  24
ATOM      1  F   UNL     1      10.529   8.697  18.582  0.00  0.00    -0.166 F 
ATOM      2  F   UNL     1      11.548   7.444  17.126  0.00  0.00    -0.166 F 
ATOM      3  F   UNL     1      11.810   9.601  17.084  0.00  0.00    -0.166 F 
ATOM     24  C   UNL     1      11.719   8.533  17.931  0.00  0.00    +0.417 C 
ENDBRANCH  21  24
ENDBRANCH  13  15
ENDBRANCH   6  13
TORSDOF 6
ENDMDL
MODEL 8
REMARK VINA RESULT:      -6.7     27.733     30.616
REMARK  Name = 51137475
REMARK  7 active torsions:
REMARK  status: ('A' for Active; 'I' for Inactive)
REMARK    1  A    between atoms: O_5  and  C_23
REMARK    2  A    between atoms: O_5  and  C_29
REMARK    3  A    between atoms: N_6  and  C_13
REMARK    4  A    between atoms: C_9  and  C_14
REMARK    5  A    between atoms: C_13  and  C_15
REMARK    6  A    between atoms: C_18  and  C_22
REMARK    7  A    between atoms: C_21  and  C_24
REMARK                            x       y       z     vdW  Elec       q    Type
REMARK                         _______ _______ _______ _____ _____    ______ ____
ROOT
ATOM      6  N   UNL     1      -7.104  -8.355   8.846  0.00  0.00    -0.297 NA
ATOM      9  C   UNL     1      -5.470  -8.908  10.433  0.00  0.00    +0.092 C 
ATOM     10  C   UNL     1      -4.938  -9.208   9.021  0.00  0.00    +0.029 C 
ATOM     11  C   UNL     1      -6.985  -8.748  10.252  0.00  0.00    +0.097 C 
ATOM     12  C   UNL     1      -6.173  -9.228   8.130  0.00  0.00    +0.085 C 
ENDROOT
BRANCH   9  14
ATOM      4  O   UNL     1      -5.236  -9.564  12.781  0.00  0.00    -0.420 OA
ATOM      7  N   UNL     1      -4.678 -11.168  11.326  0.00  0.00    -0.112 NA
ATOM      8  N   UNL     1      -4.499 -11.669  12.603  0.00  0.00    -0.107 NA
ATOM     14  C   UNL     1      -5.109  -9.938  11.479  0.00  0.00    +0.222 A 
ATOM     18  C   UNL     1      -4.837 -10.698  13.420  0.00  0.00    +0.252 A 
BRANCH  18  22
ATOM     22  C   UNL     1      -4.851 -10.650  14.853  0.00  0.00    +0.080 A 
ATOM     23  C   UNL     1      -3.677 -10.813  15.586  0.00  0.00    +0.132 A 
ATOM     25  C   UNL     1      -6.062 -10.440  15.513  0.00  0.00    +0.017 A 
ATOM     26  C   UNL     1      -3.711 -10.765  16.980  0.00  0.00    +0.046 A 
ATOM     27  C   UNL     1      -6.097 -10.392  16.906  0.00  0.00    +0.001 A 
ATOM     28  C   UNL     1      -4.922 -10.554  17.640  0.00  0.00    +0.004 A 
BRANCH  23   5
ATOM      5  O   UNL     1      -2.479 -11.020  14.967  0.00  0.00    -0.494 OA
ATOM     29  C   UNL     1      -1.306 -10.666  15.696  0.00  0.00    +0.277 C 
ENDBRANCH  23   5
ENDBRANCH  18  22
ENDBRANCH   9  14
BRANCH   6  13
ATOM     13  C   UNL     1      -8.468  -8.474   8.350  0.00  0.00    +0.119 C 
BRANCH  13  15
ATOM     15  C   UNL     1      -9.277  -7.236   8.631  0.00  0.00    -0.033 A 
ATOM     16  C   UNL     1      -8.741  -5.977   8.366  0.00  0.00    +0.005 A 
ATOM     17  C   UNL     1     -10.564  -7.350   9.157  0.00  0.00    +0.005 A 
ATOM     19  C   UNL     1      -9.492  -4.830   8.627  0.00  0.00    +0.012 A 
ATOM     20  C   UNL     1     -11.315  -6.204   9.417  0.00  0.00    +0.012 A 
ATOM     21  C   UNL     1     -10.779  -4.944   9.152  0.00  0.00    +0.055 A 
BRANCH  21  24
ATOM      1  F   UNL     1     -12.931  -3.921   9.363  0.00  0.00    -0.166 F 
ATOM      2  F   UNL     1     -11.320  -2.708   8.551  0.00  0.00    -0.166 F 
ATOM      3  F   UNL     1     -11.362  -3.190  10.670  0.00  0.00    -0.166 F 
ATOM     24  C   UNL     1     -11.582  -3.719   9.430  0.00  0.00    +0.417 C 
ENDBRANCH  21  24
ENDBRANCH  13  15
ENDBRANCH   6  13
TORSDOF 6
ENDMDL
MODEL 9
REMARK VINA RESULT:      -6.6     27.641     29.457
REMARK  Name = 51137475
REMARK  7 active torsions:
REMARK  status: ('A' for Active; 'I' for Inactive)
REMARK    1  A    between atoms: O_5  and  C_23
REMARK    2  A    between atoms: O_5  and  C_29
REMARK    3  A    between atoms: N_6  and  C_13
REMARK    4  A    between atoms: C_9  and  C_14
REMARK    5  A    between atoms: C_13  and  C_15
REMARK    6  A    between atoms: C_18  and  C_22
REMARK    7  A    between atoms: C_21  and  C_24
REMARK                            x       y       z     vdW  Elec       q    Type
REMARK                         _______ _______ _______ _____ _____    ______ ____
ROOT
ATOM      6  N   UNL     1      -4.280 -10.923  11.098  0.00  0.00    -0.297 NA
ATOM      9  C   UNL     1      -2.783 -10.437  12.835  0.00  0.00    +0.092 C 
ATOM     10  C   UNL     1      -2.261 -11.638  12.028  0.00  0.00    +0.029 C 
ATOM     11  C   UNL     1      -4.255 -10.301  12.423  0.00  0.00    +0.097 C 
ATOM     12  C   UNL     1      -3.462 -12.130  11.232  0.00  0.00    +0.085 C 
ENDROOT
BRANCH   9  14
ATOM      4  O   UNL     1      -3.722 -10.725  15.079  0.00  0.00    -0.420 OA
ATOM      7  N   UNL     1      -1.497 -10.502  15.043  0.00  0.00    -0.112 NA
ATOM      8  N   UNL     1      -1.889 -10.656  16.360  0.00  0.00    -0.107 NA
ATOM     14  C   UNL     1      -2.598 -10.549  14.331  0.00  0.00    +0.222 A 
ATOM     18  C   UNL     1      -3.196 -10.782  16.333  0.00  0.00    +0.252 A 
BRANCH  18  22
ATOM     22  C   UNL     1      -4.135 -10.969  17.400  0.00  0.00    +0.080 A 
ATOM     23  C   UNL     1      -5.381 -10.344  17.375  0.00  0.00    +0.132 A 
ATOM     25  C   UNL     1      -3.786 -11.786  18.476  0.00  0.00    +0.017 A 
ATOM     26  C   UNL     1      -6.280 -10.537  18.424  0.00  0.00    +0.046 A 
ATOM     27  C   UNL     1      -4.684 -11.979  19.525  0.00  0.00    +0.001 A 
ATOM     28  C   UNL     1      -5.932 -11.355  19.499  0.00  0.00    +0.004 A 
BRANCH  23   5
ATOM      5  O   UNL     1      -5.749  -9.540  16.336  0.00  0.00    -0.494 OA
ATOM     29  C   UNL     1      -7.060  -9.727  15.808  0.00  0.00    +0.277 C 
ENDBRANCH  23   5
ENDBRANCH  18  22
ENDBRANCH   9  14
BRANCH   6  13
ATOM     13  C   UNL     1      -5.632 -11.218  10.648  0.00  0.00    +0.119 C 
BRANCH  13  15
ATOM     15  C   UNL     1      -6.288 -10.017  10.017  0.00  0.00    -0.033 A 
ATOM     16  C   UNL     1      -7.678  -9.925   9.973  0.00  0.00    +0.005 A 
ATOM     17  C   UNL     1      -5.503  -8.999   9.476  0.00  0.00    +0.005 A 
ATOM     19  C   UNL     1      -8.285  -8.812   9.388  0.00  0.00    +0.012 A 
ATOM     20  C   UNL     1      -6.108  -7.887   8.892  0.00  0.00    +0.012 A 
ATOM     21  C   UNL     1      -7.500  -7.794   8.847  0.00  0.00    +0.055 A 
BRANCH  21  24
ATOM      1  F   UNL     1      -9.313  -6.233   8.831  0.00  0.00    -0.166 F 
ATOM      2  F   UNL     1      -8.468  -6.808   6.912  0.00  0.00    -0.166 F 
ATOM      3  F   UNL     1      -7.366  -5.485   8.239  0.00  0.00    -0.166 F 
ATOM     24  C   UNL     1      -8.147  -6.605   8.223  0.00  0.00    +0.417 C 
ENDBRANCH  21  24
ENDBRANCH  13  15
ENDBRANCH   6  13
TORSDOF 6
ENDMDL
MODEL 10
REMARK VINA RESULT:      -6.6     27.664     29.927
REMARK  Name = 51137475
REMARK  7 active torsions:
REMARK  status: ('A' for Active; 'I' for Inactive)
REMARK    1  A    between atoms: O_5  and  C_23
REMARK    2  A    between atoms: O_5  and  C_29
REMARK    3  A    between atoms: N_6  and  C_13
REMARK    4  A    between atoms: C_9  and  C_14
REMARK    5  A    between atoms: C_13  and  C_15
REMARK    6  A    between atoms: C_18  and  C_22
REMARK    7  A    between atoms: C_21  and  C_24
REMARK                            x       y       z     vdW  Elec       q    Type
REMARK                         _______ _______ _______ _____ _____    ______ ____
ROOT
ATOM      6  N   UNL     1      -5.122  -9.604   9.211  0.00  0.00    -0.297 NA
ATOM      9  C   UNL     1      -7.332  -9.051   8.656  0.00  0.00    +0.092 C 
ATOM     10  C   UNL     1      -6.818 -10.140   7.698  0.00  0.00    +0.029 C 
ATOM     11  C   UNL     1      -6.069  -8.491   9.322  0.00  0.00    +0.097 C 
ATOM     12  C   UNL     1      -5.304 -10.118   7.853  0.00  0.00    +0.085 C 
ENDROOT
BRANCH   9  14
ATOM      4  O   UNL     1      -9.020  -7.283   8.815  0.00  0.00    -0.420 OA
ATOM      7  N   UNL     1      -8.232  -7.609   6.747  0.00  0.00    -0.112 NA
ATOM      8  N   UNL     1      -9.168  -6.593   6.692  0.00  0.00    -0.107 NA
ATOM     14  C   UNL     1      -8.178  -7.981   8.005  0.00  0.00    +0.222 A 
ATOM     18  C   UNL     1      -9.601  -6.437   7.922  0.00  0.00    +0.252 A 
BRANCH  18  22
ATOM     22  C   UNL     1     -10.574  -5.529   8.457  0.00  0.00    +0.080 A 
ATOM     23  C   UNL     1     -11.919  -5.886   8.538  0.00  0.00    +0.132 A 
ATOM     25  C   UNL     1     -10.158  -4.273   8.899  0.00  0.00    +0.017 A 
ATOM     26  C   UNL     1     -12.850  -4.988   9.060  0.00  0.00    +0.046 A 
ATOM     27  C   UNL     1     -11.088  -3.375   9.421  0.00  0.00    +0.001 A 
ATOM     28  C   UNL     1     -12.434  -3.732   9.503  0.00  0.00    +0.004 A 
BRANCH  23   5
ATOM      5  O   UNL     1     -12.353  -7.108   8.114  0.00  0.00    -0.494 OA
ATOM     29  C   UNL     1     -13.038  -7.151   6.863  0.00  0.00    +0.277 C 
ENDBRANCH  23   5
ENDBRANCH  18  22
ENDBRANCH   9  14
BRANCH   6  13
ATOM     13  C   UNL     1      -3.750  -9.193   9.469  0.00  0.00    +0.119 C 
BRANCH  13  15
ATOM     15  C   UNL     1      -3.274  -9.648  10.823  0.00  0.00    -0.033 A 
ATOM     16  C   UNL     1      -4.193 -10.096  11.772  0.00  0.00    +0.005 A 
ATOM     17  C   UNL     1      -1.913  -9.622  11.128  0.00  0.00    +0.005 A 
ATOM     19  C   UNL     1      -3.750 -10.518  13.026  0.00  0.00    +0.012 A 
ATOM     20  C   UNL     1      -1.470 -10.044  12.382  0.00  0.00    +0.012 A 
ATOM     21  C   UNL     1      -2.390 -10.492  13.331  0.00  0.00    +0.055 A 
BRANCH  21  24
ATOM      1  F   UNL     1      -1.059 -10.069  15.273  0.00  0.00    -0.166 F 
ATOM      2  F   UNL     1      -1.249 -12.133  14.619  0.00  0.00    -0.166 F 
ATOM      3  F   UNL     1      -2.925 -11.131  15.573  0.00  0.00    -0.166 F 
ATOM     24  C   UNL     1      -1.917 -10.944  14.671  0.00  0.00    +0.417 C 
ENDBRANCH  21  24
ENDBRANCH  13  15
ENDBRANCH   6  13
TORSDOF 6
ENDMDL
