MODEL 1
REMARK VINA RESULT:      -7.4      0.000      0.000
REMARK  Name = 11867156
REMARK  5 active torsions:
REMARK  status: ('A' for Active; 'I' for Inactive)
REMARK    1  A    between atoms: S_1  and  N_10
REMARK    2  A    between atoms: S_1  and  C_24
REMARK    3  A    between atoms: O_4  and  C_23
REMARK    4  A    between atoms: N_10  and  C_21
REMARK    5  A    between atoms: C_20  and  C_23
REMARK                            x       y       z     vdW  Elec       q    Type
REMARK                         _______ _______ _______ _____ _____    ______ ____
ROOT
ATOM      2  O   UNL     1      13.444  11.777  21.801  0.00  0.00    -0.266 OA
ATOM      3  O   UNL     1      11.191   8.775  17.651  0.00  0.00    -0.263 OA
ATOM      8  N   UNL     1      13.341   9.489  21.306  0.00  0.00    -0.310 N 
ATOM      9  N   UNL     1      13.232   7.979  18.466  0.00  0.00    -0.291 N 
ATOM     11  C   UNL     1      15.175   8.253  20.021  0.00  0.00    +0.027 C 
ATOM     12  C   UNL     1      13.177   7.032  20.769  0.00  0.00    +0.054 C 
ATOM     13  C   UNL     1      14.703   7.029  20.795  0.00  0.00    +0.018 C 
ATOM     14  C   UNL     1      14.699   9.515  20.753  0.00  0.00    +0.130 C 
ATOM     15  C   UNL     1      14.675   8.210  18.565  0.00  0.00    +0.113 C 
ATOM     16  C   UNL     1      12.691   6.913  19.314  0.00  0.00    +0.118 C 
ATOM     17  C   UNL     1      12.616   8.293  21.399  0.00  0.00    +0.027 A 
ATOM     18  C   UNL     1      11.421   8.267  22.017  0.00  0.00    +0.024 A 
ATOM     19  C   UNL     1      12.849  10.702  21.835  0.00  0.00    +0.274 A 
ATOM     20  C   UNL     1      12.400   8.607  17.545  0.00  0.00    +0.324 C 
ATOM     21  C   UNL     1      11.516  10.613  22.483  0.00  0.00    +0.112 A 
ATOM     22  C   UNL     1      10.849   9.462  22.577  0.00  0.00    +0.031 A 
ENDROOT
BRANCH  20  23
ATOM      5  O   UNL     1      13.186   8.463  15.314  0.00  0.00    -0.240 OA
ATOM     23  C   UNL     1      12.890   9.167  16.258  0.00  0.00    +0.392 C 
BRANCH  23   4
ATOM      4  O   UNL     1      12.931  10.503  16.344  0.00  0.00    -0.474 OA
ATOM     31  H   UNL     1      13.850  10.845  16.377  0.00  0.00    +0.296 HD
ENDBRANCH  23   4
ENDBRANCH  20  23
BRANCH  21  10
ATOM     10  N   UNL     1      10.921  11.759  23.038  0.00  0.00    -0.211 N 
ATOM     30  H   UNL     1      11.098  12.609  22.486  0.00  0.00    +0.174 HD
BRANCH  10   1
ATOM      1  S   UNL     1      11.059  11.965  24.713  0.00  0.00    +0.072 S 
ATOM      6  O   UNL     1      10.094  12.948  25.166  0.00  0.00    -0.150 OA
ATOM      7  O   UNL     1      11.142  10.669  25.360  0.00  0.00    -0.150 OA
BRANCH   1  24
ATOM     24  C   UNL     1      12.660  12.711  24.820  0.00  0.00    +0.108 A 
ATOM     25  C   UNL     1      12.818  14.028  24.428  0.00  0.00    +0.029 A 
ATOM     26  C   UNL     1      13.722  11.962  25.295  0.00  0.00    +0.029 A 
ATOM     27  C   UNL     1      14.080  14.616  24.512  0.00  0.00    +0.002 A 
ATOM     28  C   UNL     1      14.984  12.550  25.379  0.00  0.00    +0.002 A 
ATOM     29  C   UNL     1      15.163  13.877  24.987  0.00  0.00    +0.000 A 
ENDBRANCH   1  24
ENDBRANCH  10   1
ENDBRANCH  21  10
TORSDOF 5
ENDMDL
MODEL 2
REMARK VINA RESULT:      -7.1     15.431     20.397
REMARK  Name = 11867156
REMARK  5 active torsions:
REMARK  status: ('A' for Active; 'I' for Inactive)
REMARK    1  A    between atoms: S_1  and  N_10
REMARK    2  A    between atoms: S_1  and  C_24
REMARK    3  A    between atoms: O_4  and  C_23
REMARK    4  A    between atoms: N_10  and  C_21
REMARK    5  A    between atoms: C_20  and  C_23
REMARK                            x       y       z     vdW  Elec       q    Type
REMARK                         _______ _______ _______ _____ _____    ______ ____
ROOT
ATOM      2  O   UNL     1      13.696   7.212   3.765  0.00  0.00    -0.266 OA
ATOM      3  O   UNL     1       9.735   4.123   6.231  0.00  0.00    -0.263 OA
ATOM      8  N   UNL     1      11.359   7.335   3.877  0.00  0.00    -0.310 N 
ATOM      9  N   UNL     1       9.339   6.427   6.212  0.00  0.00    -0.291 N 
ATOM     11  C   UNL     1      10.114   8.732   5.621  0.00  0.00    +0.027 C 
ATOM     12  C   UNL     1       8.842   7.416   3.982  0.00  0.00    +0.054 C 
ATOM     13  C   UNL     1       9.013   8.813   4.572  0.00  0.00    +0.018 C 
ATOM     14  C   UNL     1      11.430   8.355   4.928  0.00  0.00    +0.130 C 
ATOM     15  C   UNL     1       9.743   7.734   6.734  0.00  0.00    +0.113 C 
ATOM     16  C   UNL     1       8.398   6.444   5.090  0.00  0.00    +0.118 C 
ATOM     17  C   UNL     1      10.128   6.923   3.347  0.00  0.00    +0.027 A 
ATOM     18  C   UNL     1      10.086   6.076   2.302  0.00  0.00    +0.024 A 
ATOM     19  C   UNL     1      12.586   6.874   3.356  0.00  0.00    +0.274 A 
ATOM     20  C   UNL     1       9.686   5.211   6.793  0.00  0.00    +0.324 C 
ATOM     21  C   UNL     1      12.473   5.925   2.220  0.00  0.00    +0.112 A 
ATOM     22  C   UNL     1      11.294   5.557   1.719  0.00  0.00    +0.031 A 
ENDROOT
BRANCH  20  23
ATOM      5  O   UNL     1       9.217   4.837   9.086  0.00  0.00    -0.240 OA
ATOM     23  C   UNL     1      10.045   5.070   8.228  0.00  0.00    +0.392 C 
BRANCH  23   4
ATOM      4  O   UNL     1      11.366   5.236   8.373  0.00  0.00    -0.474 OA
ATOM     31  H   UNL     1      11.850   5.120   7.528  0.00  0.00    +0.296 HD
ENDBRANCH  23   4
ENDBRANCH  20  23
BRANCH  21  10
ATOM     10  N   UNL     1      13.630   5.391   1.625  0.00  0.00    -0.211 N 
ATOM     30  H   UNL     1      13.959   5.947   0.823  0.00  0.00    +0.174 HD
BRANCH  10   1
ATOM      1  S   UNL     1      13.672   3.716   1.387  0.00  0.00    +0.072 S 
ATOM      6  O   UNL     1      14.998   3.212   1.691  0.00  0.00    -0.150 OA
ATOM      7  O   UNL     1      12.503   3.107   1.993  0.00  0.00    -0.150 OA
BRANCH   1  24
ATOM     24  C   UNL     1      13.464   3.628  -0.368  0.00  0.00    +0.108 A 
ATOM     25  C   UNL     1      14.336   4.324  -1.186  0.00  0.00    +0.029 A 
ATOM     26  C   UNL     1      12.434   2.865  -0.887  0.00  0.00    +0.029 A 
ATOM     27  C   UNL     1      14.171   4.256  -2.569  0.00  0.00    +0.002 A 
ATOM     28  C   UNL     1      12.269   2.796  -2.270  0.00  0.00    +0.002 A 
ATOM     29  C   UNL     1      13.139   3.492  -3.112  0.00  0.00    +0.000 A 
ENDBRANCH   1  24
ENDBRANCH  10   1
ENDBRANCH  21  10
TORSDOF 5
ENDMDL
MODEL 3
REMARK VINA RESULT:      -6.9      2.871      7.643
REMARK  Name = 11867156
REMARK  5 active torsions:
REMARK  status: ('A' for Active; 'I' for Inactive)
REMARK    1  A    between atoms: S_1  and  N_10
REMARK    2  A    between atoms: S_1  and  C_24
REMARK    3  A    between atoms: O_4  and  C_23
REMARK    4  A    between atoms: N_10  and  C_21
REMARK    5  A    between atoms: C_20  and  C_23
REMARK                            x       y       z     vdW  Elec       q    Type
REMARK                         _______ _______ _______ _____ _____    ______ ____
ROOT
ATOM      2  O   UNL     1      15.453  10.962  21.644  0.00  0.00    -0.266 OA
ATOM      3  O   UNL     1      11.592  11.825  25.602  0.00  0.00    -0.263 OA
ATOM      8  N   UNL     1      13.339  11.972  21.675  0.00  0.00    -0.310 N 
ATOM      9  N   UNL     1      11.820  13.545  24.036  0.00  0.00    -0.291 N 
ATOM     11  C   UNL     1      12.993  14.481  22.032  0.00  0.00    +0.027 C 
ATOM     12  C   UNL     1      11.045  13.014  21.730  0.00  0.00    +0.054 C 
ATOM     13  C   UNL     1      11.720  14.283  21.219  0.00  0.00    +0.018 C 
ATOM     14  C   UNL     1      13.942  13.306  21.759  0.00  0.00    +0.130 C 
ATOM     15  C   UNL     1      12.672  14.625  23.531  0.00  0.00    +0.113 C 
ATOM     16  C   UNL     1      10.661  13.199  23.209  0.00  0.00    +0.118 C 
ATOM     17  C   UNL     1      11.950  11.806  21.579  0.00  0.00    +0.027 A 
ATOM     18  C   UNL     1      11.422  10.584  21.382  0.00  0.00    +0.024 A 
ATOM     19  C   UNL     1      14.227  10.879  21.586  0.00  0.00    +0.274 A 
ATOM     20  C   UNL     1      11.975  12.944  25.281  0.00  0.00    +0.324 C 
ATOM     21  C   UNL     1      13.583   9.556  21.392  0.00  0.00    +0.112 A 
ATOM     22  C   UNL     1      12.261   9.420  21.286  0.00  0.00    +0.031 A 
ENDROOT
BRANCH  20  23
ATOM      5  O   UNL     1      12.344  14.735  26.788  0.00  0.00    -0.240 OA
ATOM     23  C   UNL     1      12.640  13.613  26.429  0.00  0.00    +0.392 C 
BRANCH  23   4
ATOM      4  O   UNL     1      13.558  12.789  26.951  0.00  0.00    -0.474 OA
ATOM     31  H   UNL     1      13.225  11.872  27.041  0.00  0.00    +0.296 HD
ENDBRANCH  23   4
ENDBRANCH  20  23
BRANCH  21  10
ATOM     10  N   UNL     1      14.368   8.392  21.298  0.00  0.00    -0.211 N 
ATOM     30  H   UNL     1      15.201   8.423  21.902  0.00  0.00    +0.174 HD
BRANCH  10   1
ATOM      1  S   UNL     1      14.642   7.772  19.748  0.00  0.00    +0.072 S 
ATOM      6  O   UNL     1      13.731   6.672  19.493  0.00  0.00    -0.150 OA
ATOM      7  O   UNL     1      14.756   8.862  18.798  0.00  0.00    -0.150 OA
BRANCH   1  24
ATOM     24  C   UNL     1      16.257   7.080  19.953  0.00  0.00    +0.108 A 
ATOM     25  C   UNL     1      17.055   7.524  20.991  0.00  0.00    +0.029 A 
ATOM     26  C   UNL     1      16.691   6.107  19.069  0.00  0.00    +0.029 A 
ATOM     27  C   UNL     1      18.328   6.979  21.152  0.00  0.00    +0.002 A 
ATOM     28  C   UNL     1      17.964   5.561  19.230  0.00  0.00    +0.002 A 
ATOM     29  C   UNL     1      18.784   5.997  20.272  0.00  0.00    +0.000 A 
ENDBRANCH   1  24
ENDBRANCH  10   1
ENDBRANCH  21  10
TORSDOF 5
ENDMDL
MODEL 4
REMARK VINA RESULT:      -6.9     14.856     19.436
REMARK  Name = 11867156
REMARK  5 active torsions:
REMARK  status: ('A' for Active; 'I' for Inactive)
REMARK    1  A    between atoms: S_1  and  N_10
REMARK    2  A    between atoms: S_1  and  C_24
REMARK    3  A    between atoms: O_4  and  C_23
REMARK    4  A    between atoms: N_10  and  C_21
REMARK    5  A    between atoms: C_20  and  C_23
REMARK                            x       y       z     vdW  Elec       q    Type
REMARK                         _______ _______ _______ _____ _____    ______ ____
ROOT
ATOM      2  O   UNL     1      10.921   4.335   3.864  0.00  0.00    -0.266 OA
ATOM      3  O   UNL     1      15.446   6.001   1.023  0.00  0.00    -0.263 OA
ATOM      8  N   UNL     1      11.264   5.329   1.770  0.00  0.00    -0.310 N 
ATOM      9  N   UNL     1      13.737   5.072  -0.274  0.00  0.00    -0.291 N 
ATOM     11  C   UNL     1      11.485   3.986  -0.396  0.00  0.00    +0.027 C 
ATOM     12  C   UNL     1      11.662   6.436  -0.459  0.00  0.00    +0.054 C 
ATOM     13  C   UNL     1      10.939   5.239  -1.069  0.00  0.00    +0.018 C 
ATOM     14  C   UNL     1      11.132   4.032   1.097  0.00  0.00    +0.130 C 
ATOM     15  C   UNL     1      13.002   3.855  -0.625  0.00  0.00    +0.113 C 
ATOM     16  C   UNL     1      13.167   6.331  -0.761  0.00  0.00    +0.118 C 
ATOM     17  C   UNL     1      11.440   6.513   1.039  0.00  0.00    +0.027 A 
ATOM     18  C   UNL     1      11.438   7.705   1.664  0.00  0.00    +0.024 A 
ATOM     19  C   UNL     1      11.097   5.336   3.171  0.00  0.00    +0.274 A 
ATOM     20  C   UNL     1      14.974   5.083   0.362  0.00  0.00    +0.324 C 
ATOM     21  C   UNL     1      11.128   6.679   3.804  0.00  0.00    +0.112 A 
ATOM     22  C   UNL     1      11.279   7.795   3.090  0.00  0.00    +0.031 A 
ENDROOT
BRANCH  20  23
ATOM      5  O   UNL     1      16.672   3.762  -0.633  0.00  0.00    -0.240 OA
ATOM     23  C   UNL     1      15.925   3.942   0.308  0.00  0.00    +0.392 C 
BRANCH  23   4
ATOM      4  O   UNL     1      15.803   3.211   1.423  0.00  0.00    -0.474 OA
ATOM     31  H   UNL     1      16.655   2.812   1.701  0.00  0.00    +0.296 HD
ENDBRANCH  23   4
ENDBRANCH  20  23
BRANCH  21  10
ATOM     10  N   UNL     1      10.981   6.809   5.196  0.00  0.00    -0.211 N 
ATOM     30  H   UNL     1      11.504   6.096   5.722  0.00  0.00    +0.174 HD
BRANCH  10   1
ATOM      1  S   UNL     1       9.421   7.114   5.780  0.00  0.00    +0.072 S 
ATOM      6  O   UNL     1       9.335   8.483   6.252  0.00  0.00    -0.150 OA
ATOM      7  O   UNL     1       8.439   6.601   4.844  0.00  0.00    -0.150 OA
BRANCH   1  24
ATOM     24  C   UNL     1       9.393   6.064   7.203  0.00  0.00    +0.108 A 
ATOM     25  C   UNL     1       9.805   4.749   7.080  0.00  0.00    +0.029 A 
ATOM     26  C   UNL     1       8.960   6.578   8.413  0.00  0.00    +0.029 A 
ATOM     27  C   UNL     1       9.781   3.921   8.202  0.00  0.00    +0.002 A 
ATOM     28  C   UNL     1       8.937   5.751   9.535  0.00  0.00    +0.002 A 
ATOM     29  C   UNL     1       9.348   4.421   9.430  0.00  0.00    +0.000 A 
ENDBRANCH   1  24
ENDBRANCH  10   1
ENDBRANCH  21  10
TORSDOF 5
ENDMDL
MODEL 5
REMARK VINA RESULT:      -6.8     14.855     19.474
REMARK  Name = 11867156
REMARK  5 active torsions:
REMARK  status: ('A' for Active; 'I' for Inactive)
REMARK    1  A    between atoms: S_1  and  N_10
REMARK    2  A    between atoms: S_1  and  C_24
REMARK    3  A    between atoms: O_4  and  C_23
REMARK    4  A    between atoms: N_10  and  C_21
REMARK    5  A    between atoms: C_20  and  C_23
REMARK                            x       y       z     vdW  Elec       q    Type
REMARK                         _______ _______ _______ _____ _____    ______ ____
ROOT
ATOM      2  O   UNL     1      12.738   7.592   3.083  0.00  0.00    -0.266 OA
ATOM      3  O   UNL     1       9.249   5.166   6.724  0.00  0.00    -0.263 OA
ATOM      8  N   UNL     1      10.792   8.280   4.191  0.00  0.00    -0.310 N 
ATOM      9  N   UNL     1       9.635   7.445   7.076  0.00  0.00    -0.291 N 
ATOM     11  C   UNL     1      10.822   9.547   6.413  0.00  0.00    +0.027 C 
ATOM     12  C   UNL     1       8.673   8.977   5.365  0.00  0.00    +0.054 C 
ATOM     13  C   UNL     1       9.493  10.126   5.945  0.00  0.00    +0.018 C 
ATOM     14  C   UNL     1      11.580   9.002   5.195  0.00  0.00    +0.130 C 
ATOM     15  C   UNL     1      10.603   8.464   7.486  0.00  0.00    +0.113 C 
ATOM     16  C   UNL     1       8.398   7.940   6.468  0.00  0.00    +0.118 C 
ATOM     17  C   UNL     1       9.391   8.318   4.203  0.00  0.00    +0.027 A 
ATOM     18  C   UNL     1       8.685   7.751   3.206  0.00  0.00    +0.024 A 
ATOM     19  C   UNL     1      11.511   7.643   3.158  0.00  0.00    +0.274 A 
ATOM     20  C   UNL     1       9.769   6.087   7.345  0.00  0.00    +0.324 C 
ATOM     21  C   UNL     1      10.677   7.016   2.102  0.00  0.00    +0.112 A 
ATOM     22  C   UNL     1       9.346   7.077   2.121  0.00  0.00    +0.031 A 
ENDROOT
BRANCH  20  23
ATOM      5  O   UNL     1      10.088   5.249   9.539  0.00  0.00    -0.240 OA
ATOM     23  C   UNL     1      10.580   5.558   8.472  0.00  0.00    +0.392 C 
BRANCH  23   4
ATOM      4  O   UNL     1      11.866   5.492   8.100  0.00  0.00    -0.474 OA
ATOM     31  H   UNL     1      12.476   5.536   8.866  0.00  0.00    +0.296 HD
ENDBRANCH  23   4
ENDBRANCH  20  23
BRANCH  21  10
ATOM     10  N   UNL     1      11.285   6.344   1.026  0.00  0.00    -0.211 N 
ATOM     30  H   UNL     1      11.006   6.722   0.110  0.00  0.00    +0.174 HD
BRANCH  10   1
ATOM      1  S   UNL     1      11.337   4.654   1.105  0.00  0.00    +0.072 S 
ATOM      6  O   UNL     1      11.145   4.223   2.477  0.00  0.00    -0.150 OA
ATOM      7  O   UNL     1      10.529   4.089   0.041  0.00  0.00    -0.150 OA
BRANCH   1  24
ATOM     24  C   UNL     1      13.032   4.359   0.694  0.00  0.00    +0.108 A 
ATOM     25  C   UNL     1      13.482   4.667  -0.577  0.00  0.00    +0.029 A 
ATOM     26  C   UNL     1      13.876   3.825   1.652  0.00  0.00    +0.029 A 
ATOM     27  C   UNL     1      14.817   4.433  -0.902  0.00  0.00    +0.002 A 
ATOM     28  C   UNL     1      15.212   3.592   1.328  0.00  0.00    +0.002 A 
ATOM     29  C   UNL     1      15.684   3.896   0.050  0.00  0.00    +0.000 A 
ENDBRANCH   1  24
ENDBRANCH  10   1
ENDBRANCH  21  10
TORSDOF 5
ENDMDL
MODEL 6
REMARK VINA RESULT:      -6.8      2.500      7.669
REMARK  Name = 11867156
REMARK  5 active torsions:
REMARK  status: ('A' for Active; 'I' for Inactive)
REMARK    1  A    between atoms: S_1  and  N_10
REMARK    2  A    between atoms: S_1  and  C_24
REMARK    3  A    between atoms: O_4  and  C_23
REMARK    4  A    between atoms: N_10  and  C_21
REMARK    5  A    between atoms: C_20  and  C_23
REMARK                            x       y       z     vdW  Elec       q    Type
REMARK                         _______ _______ _______ _____ _____    ______ ____
ROOT
ATOM      2  O   UNL     1      13.379  11.549  20.452  0.00  0.00    -0.266 OA
ATOM      3  O   UNL     1      13.966  11.525  26.017  0.00  0.00    -0.263 OA
ATOM      8  N   UNL     1      11.945  11.995  22.250  0.00  0.00    -0.310 N 
ATOM      9  N   UNL     1      12.579  13.203  25.165  0.00  0.00    -0.291 N 
ATOM     11  C   UNL     1      11.563  14.346  23.183  0.00  0.00    +0.027 C 
ATOM     12  C   UNL     1      10.415  12.428  24.205  0.00  0.00    +0.054 C 
ATOM     13  C   UNL     1      10.198  13.812  23.599  0.00  0.00    +0.018 C 
ATOM     14  C   UNL     1      12.134  13.440  22.084  0.00  0.00    +0.130 C 
ATOM     15  C   UNL     1      12.507  14.447  24.395  0.00  0.00    +0.113 C 
ATOM     16  C   UNL     1      11.299  12.554  25.459  0.00  0.00    +0.118 C 
ATOM     17  C   UNL     1      11.062  11.483  23.210  0.00  0.00    +0.027 A 
ATOM     18  C   UNL     1      10.809  10.163  23.268  0.00  0.00    +0.024 A 
ATOM     19  C   UNL     1      12.608  11.159  21.327  0.00  0.00    +0.274 A 
ATOM     20  C   UNL     1      13.747  12.695  25.724  0.00  0.00    +0.324 C 
ATOM     21  C   UNL     1      12.307   9.711  21.457  0.00  0.00    +0.112 A 
ATOM     22  C   UNL     1      11.450   9.245  22.366  0.00  0.00    +0.031 A 
ENDROOT
BRANCH  20  23
ATOM      5  O   UNL     1      15.897  13.617  25.346  0.00  0.00    -0.240 OA
ATOM     23  C   UNL     1      14.920  13.542  26.063  0.00  0.00    +0.392 C 
BRANCH  23   4
ATOM      4  O   UNL     1      14.696  14.163  27.229  0.00  0.00    -0.474 OA
ATOM     31  H   UNL     1      13.875  14.699  27.213  0.00  0.00    +0.296 HD
ENDBRANCH  23   4
ENDBRANCH  20  23
BRANCH  21  10
ATOM     10  N   UNL     1      12.917   8.780  20.597  0.00  0.00    -0.211 N 
ATOM     30  H   UNL     1      13.835   9.095  20.256  0.00  0.00    +0.174 HD
BRANCH  10   1
ATOM      1  S   UNL     1      11.935   8.060  19.422  0.00  0.00    +0.072 S 
ATOM      6  O   UNL     1      12.222   6.640  19.349  0.00  0.00    -0.150 OA
ATOM      7  O   UNL     1      10.569   8.522  19.575  0.00  0.00    -0.150 OA
BRANCH   1  24
ATOM     24  C   UNL     1      12.583   8.803  17.953  0.00  0.00    +0.108 A 
ATOM     25  C   UNL     1      11.774   8.908  16.836  0.00  0.00    +0.029 A 
ATOM     26  C   UNL     1      13.888   9.264  17.950  0.00  0.00    +0.029 A 
ATOM     27  C   UNL     1      12.285   9.493  15.678  0.00  0.00    +0.002 A 
ATOM     28  C   UNL     1      14.399   9.850  16.792  0.00  0.00    +0.002 A 
ATOM     29  C   UNL     1      13.597   9.965  15.655  0.00  0.00    +0.000 A 
ENDBRANCH   1  24
ENDBRANCH  10   1
ENDBRANCH  21  10
TORSDOF 5
ENDMDL
MODEL 7
REMARK VINA RESULT:      -6.6     27.171     30.045
REMARK  Name = 11867156
REMARK  5 active torsions:
REMARK  status: ('A' for Active; 'I' for Inactive)
REMARK    1  A    between atoms: S_1  and  N_10
REMARK    2  A    between atoms: S_1  and  C_24
REMARK    3  A    between atoms: O_4  and  C_23
REMARK    4  A    between atoms: N_10  and  C_21
REMARK    5  A    between atoms: C_20  and  C_23
REMARK                            x       y       z     vdW  Elec       q    Type
REMARK                         _______ _______ _______ _____ _____    ______ ____
ROOT
ATOM      2  O   UNL     1      -3.806 -11.604  18.021  0.00  0.00    -0.266 OA
ATOM      3  O   UNL     1      -8.152 -14.134  15.566  0.00  0.00    -0.263 OA
ATOM      8  N   UNL     1      -6.112 -11.197  17.956  0.00  0.00    -0.310 N 
ATOM      9  N   UNL     1      -8.579 -13.247  17.687  0.00  0.00    -0.291 N 
ATOM     11  C   UNL     1      -7.736 -12.069  19.729  0.00  0.00    +0.027 C 
ATOM     12  C   UNL     1      -8.592 -10.761  17.833  0.00  0.00    +0.054 C 
ATOM     13  C   UNL     1      -8.582 -10.859  19.356  0.00  0.00    +0.018 C 
ATOM     14  C   UNL     1      -6.293 -11.826  19.269  0.00  0.00    +0.130 C 
ATOM     15  C   UNL     1      -8.324 -13.359  19.125  0.00  0.00    +0.113 C 
ATOM     16  C   UNL     1      -9.250 -12.022  17.245  0.00  0.00    +0.118 C 
ATOM     17  C   UNL     1      -7.188 -10.606  17.279  0.00  0.00    +0.027 A 
ATOM     18  C   UNL     1      -6.983  -9.928  16.134  0.00  0.00    +0.024 A 
ATOM     19  C   UNL     1      -4.792 -11.122  17.465  0.00  0.00    +0.274 A 
ATOM     20  C   UNL     1      -8.344 -14.266  16.770  0.00  0.00    +0.324 C 
ATOM     21  C   UNL     1      -4.634 -10.383  16.187  0.00  0.00    +0.112 A 
ATOM     22  C   UNL     1      -5.667  -9.812  15.567  0.00  0.00    +0.031 A 
ENDROOT
BRANCH  20  23
ATOM      5  O   UNL     1      -9.311 -16.384  17.214  0.00  0.00    -0.240 OA
ATOM     23  C   UNL     1      -8.307 -15.704  17.145  0.00  0.00    +0.392 C 
BRANCH  23   4
ATOM      4  O   UNL     1      -7.038 -16.071  17.371  0.00  0.00    -0.474 OA
ATOM     31  H   UNL     1      -6.655 -15.620  18.153  0.00  0.00    +0.296 HD
ENDBRANCH  23   4
ENDBRANCH  20  23
BRANCH  21  10
ATOM     10  N   UNL     1      -3.364 -10.251  15.597  0.00  0.00    -0.211 N 
ATOM     30  H   UNL     1      -3.188  -9.303  15.237  0.00  0.00    +0.174 HD
BRANCH  10   1
ATOM      1  S   UNL     1      -2.857 -11.500  14.574  0.00  0.00    +0.072 S 
ATOM      6  O   UNL     1      -1.461 -11.802  14.827  0.00  0.00    -0.150 OA
ATOM      7  O   UNL     1      -3.845 -12.562  14.571  0.00  0.00    -0.150 OA
BRANCH   1  24
ATOM     24  C   UNL     1      -2.944 -10.693  13.002  0.00  0.00    +0.108 A 
ATOM     25  C   UNL     1      -4.179 -10.504  12.408  0.00  0.00    +0.029 A 
ATOM     26  C   UNL     1      -1.775 -10.265  12.398  0.00  0.00    +0.029 A 
ATOM     27  C   UNL     1      -4.248  -9.869  11.169  0.00  0.00    +0.002 A 
ATOM     28  C   UNL     1      -1.844  -9.629  11.159  0.00  0.00    +0.002 A 
ATOM     29  C   UNL     1      -3.081  -9.431  10.544  0.00  0.00    +0.000 A 
ENDBRANCH   1  24
ENDBRANCH  10   1
ENDBRANCH  21  10
TORSDOF 5
ENDMDL
MODEL 8
REMARK VINA RESULT:      -6.6      9.669     12.148
REMARK  Name = 11867156
REMARK  5 active torsions:
REMARK  status: ('A' for Active; 'I' for Inactive)
REMARK    1  A    between atoms: S_1  and  N_10
REMARK    2  A    between atoms: S_1  and  C_24
REMARK    3  A    between atoms: O_4  and  C_23
REMARK    4  A    between atoms: N_10  and  C_21
REMARK    5  A    between atoms: C_20  and  C_23
REMARK                            x       y       z     vdW  Elec       q    Type
REMARK                         _______ _______ _______ _____ _____    ______ ____
ROOT
ATOM      2  O   UNL     1      20.899   3.897  20.442  0.00  0.00    -0.266 OA
ATOM      3  O   UNL     1      23.655   4.276  25.297  0.00  0.00    -0.263 OA
ATOM      8  N   UNL     1      23.159   3.792  21.053  0.00  0.00    -0.310 N 
ATOM      9  N   UNL     1      24.532   2.741  23.767  0.00  0.00    -0.291 N 
ATOM     11  C   UNL     1      24.372   1.595  21.547  0.00  0.00    +0.027 C 
ATOM     12  C   UNL     1      25.584   3.725  21.736  0.00  0.00    +0.054 C 
ATOM     13  C   UNL     1      25.621   2.341  21.095  0.00  0.00    +0.018 C 
ATOM     14  C   UNL     1      23.137   2.326  21.006  0.00  0.00    +0.130 C 
ATOM     15  C   UNL     1      24.336   1.462  23.081  0.00  0.00    +0.113 C 
ATOM     16  C   UNL     1      25.624   3.579  23.268  0.00  0.00    +0.118 C 
ATOM     17  C   UNL     1      24.342   4.493  21.323  0.00  0.00    +0.027 A 
ATOM     18  C   UNL     1      24.372   5.836  21.244  0.00  0.00    +0.024 A 
ATOM     19  C   UNL     1      21.963   4.456  20.707  0.00  0.00    +0.274 A 
ATOM     20  C   UNL     1      23.843   3.127  24.913  0.00  0.00    +0.324 C 
ATOM     21  C   UNL     1      22.054   5.937  20.659  0.00  0.00    +0.112 A 
ATOM     22  C   UNL     1      23.193   6.585  20.903  0.00  0.00    +0.031 A 
ENDROOT
BRANCH  20  23
ATOM      5  O   UNL     1      23.886   1.575  26.703  0.00  0.00    -0.240 OA
ATOM     23  C   UNL     1      23.234   2.158  25.860  0.00  0.00    +0.392 C 
BRANCH  23   4
ATOM      4  O   UNL     1      21.919   2.068  25.618  0.00  0.00    -0.474 OA
ATOM     31  H   UNL     1      21.562   2.880  25.201  0.00  0.00    +0.296 HD
ENDBRANCH  23   4
ENDBRANCH  20  23
BRANCH  21  10
ATOM     10  N   UNL     1      20.922   6.706  20.334  0.00  0.00    -0.211 N 
ATOM     30  H   UNL     1      21.129   7.458  19.663  0.00  0.00    +0.174 HD
BRANCH  10   1
ATOM      1  S   UNL     1      19.907   7.160  21.611  0.00  0.00    +0.072 S 
ATOM      6  O   UNL     1      19.987   6.174  22.672  0.00  0.00    -0.150 OA
ATOM      7  O   UNL     1      20.093   8.568  21.906  0.00  0.00    -0.150 OA
BRANCH   1  24
ATOM     24  C   UNL     1      18.321   6.985  20.847  0.00  0.00    +0.108 A 
ATOM     25  C   UNL     1      17.265   7.755  21.300  0.00  0.00    +0.029 A 
ATOM     26  C   UNL     1      18.168   6.080  19.811  0.00  0.00    +0.029 A 
ATOM     27  C   UNL     1      16.015   7.615  20.699  0.00  0.00    +0.002 A 
ATOM     28  C   UNL     1      16.917   5.941  19.210  0.00  0.00    +0.002 A 
ATOM     29  C   UNL     1      15.840   6.709  19.654  0.00  0.00    +0.000 A 
ENDBRANCH   1  24
ENDBRANCH  10   1
ENDBRANCH  21  10
TORSDOF 5
ENDMDL
MODEL 9
REMARK VINA RESULT:      -6.5     15.589     19.076
REMARK  Name = 11867156
REMARK  5 active torsions:
REMARK  status: ('A' for Active; 'I' for Inactive)
REMARK    1  A    between atoms: S_1  and  N_10
REMARK    2  A    between atoms: S_1  and  C_24
REMARK    3  A    between atoms: O_4  and  C_23
REMARK    4  A    between atoms: N_10  and  C_21
REMARK    5  A    between atoms: C_20  and  C_23
REMARK                            x       y       z     vdW  Elec       q    Type
REMARK                         _______ _______ _______ _____ _____    ______ ____
ROOT
ATOM      2  O   UNL     1      10.375   4.320   4.539  0.00  0.00    -0.266 OA
ATOM      3  O   UNL     1      15.002   5.945   1.844  0.00  0.00    -0.263 OA
ATOM      8  N   UNL     1      10.789   5.357   2.479  0.00  0.00    -0.310 N 
ATOM      9  N   UNL     1      13.302   5.090   0.486  0.00  0.00    -0.291 N 
ATOM     11  C   UNL     1      11.028   4.062   0.286  0.00  0.00    +0.027 C 
ATOM     12  C   UNL     1      11.265   6.508   0.288  0.00  0.00    +0.054 C 
ATOM     13  C   UNL     1      10.528   5.344  -0.367  0.00  0.00    +0.018 C 
ATOM     14  C   UNL     1      10.643   4.081   1.771  0.00  0.00    +0.130 C 
ATOM     15  C   UNL     1      12.547   3.900   0.088  0.00  0.00    +0.113 C 
ATOM     16  C   UNL     1      12.774   6.374   0.018  0.00  0.00    +0.118 C 
ATOM     17  C   UNL     1      11.010   6.553   1.783  0.00  0.00    +0.027 A 
ATOM     18  C   UNL     1      11.022   7.729   2.437  0.00  0.00    +0.024 A 
ATOM     19  C   UNL     1      10.590   5.334   3.876  0.00  0.00    +0.274 A 
ATOM     20  C   UNL     1      14.524   5.055   1.149  0.00  0.00    +0.324 C 
ATOM     21  C   UNL     1      10.639   6.659   4.543  0.00  0.00    +0.112 A 
ATOM     22  C   UNL     1      10.833   7.788   3.861  0.00  0.00    +0.031 A 
ENDROOT
BRANCH  20  23
ATOM      5  O   UNL     1      16.156   3.675   0.125  0.00  0.00    -0.240 OA
ATOM     23  C   UNL     1      15.449   3.893   1.088  0.00  0.00    +0.392 C 
BRANCH  23   4
ATOM      4  O   UNL     1      15.354   3.190   2.224  0.00  0.00    -0.474 OA
ATOM     31  H   UNL     1      16.157   3.272   2.780  0.00  0.00    +0.296 HD
ENDBRANCH  23   4
ENDBRANCH  20  23
BRANCH  21  10
ATOM     10  N   UNL     1      10.463   6.759   5.935  0.00  0.00    -0.211 N 
ATOM     30  H   UNL     1      10.985   6.042   6.456  0.00  0.00    +0.174 HD
BRANCH  10   1
ATOM      1  S   UNL     1       8.888   7.031   6.494  0.00  0.00    +0.072 S 
ATOM      6  O   UNL     1       7.942   6.327   5.649  0.00  0.00    -0.150 OA
ATOM      7  O   UNL     1       8.846   6.865   7.934  0.00  0.00    -0.150 OA
BRANCH   1  24
ATOM     24  C   UNL     1       8.713   8.758   6.155  0.00  0.00    +0.108 A 
ATOM     25  C   UNL     1       9.449   9.668   6.891  0.00  0.00    +0.029 A 
ATOM     26  C   UNL     1       7.844   9.164   5.158  0.00  0.00    +0.029 A 
ATOM     27  C   UNL     1       9.310  11.030   6.625  0.00  0.00    +0.002 A 
ATOM     28  C   UNL     1       7.705  10.526   4.891  0.00  0.00    +0.002 A 
ATOM     29  C   UNL     1       8.439  11.460   5.624  0.00  0.00    +0.000 A 
ENDBRANCH   1  24
ENDBRANCH  10   1
ENDBRANCH  21  10
TORSDOF 5
ENDMDL
MODEL 10
REMARK VINA RESULT:      -6.4     14.732     19.509
REMARK  Name = 11867156
REMARK  5 active torsions:
REMARK  status: ('A' for Active; 'I' for Inactive)
REMARK    1  A    between atoms: S_1  and  N_10
REMARK    2  A    between atoms: S_1  and  C_24
REMARK    3  A    between atoms: O_4  and  C_23
REMARK    4  A    between atoms: N_10  and  C_21
REMARK    5  A    between atoms: C_20  and  C_23
REMARK                            x       y       z     vdW  Elec       q    Type
REMARK                         _______ _______ _______ _____ _____    ______ ____
ROOT
ATOM      2  O   UNL     1      13.357   7.660   4.929  0.00  0.00    -0.266 OA
ATOM      3  O   UNL     1       9.657   4.085   7.129  0.00  0.00    -0.263 OA
ATOM      8  N   UNL     1      11.024   7.468   4.852  0.00  0.00    -0.310 N 
ATOM      9  N   UNL     1       8.959   6.314   7.035  0.00  0.00    -0.291 N 
ATOM     11  C   UNL     1       9.466   8.698   6.464  0.00  0.00    +0.027 C 
ATOM     12  C   UNL     1       8.518   7.210   4.754  0.00  0.00    +0.054 C 
ATOM     13  C   UNL     1       8.452   8.622   5.330  0.00  0.00    +0.018 C 
ATOM     14  C   UNL     1      10.872   8.497   5.886  0.00  0.00    +0.130 C 
ATOM     15  C   UNL     1       9.141   7.668   7.562  0.00  0.00    +0.113 C 
ATOM     16  C   UNL     1       8.119   6.196   5.841  0.00  0.00    +0.118 C 
ATOM     17  C   UNL     1       9.907   6.889   4.233  0.00  0.00    +0.027 A 
ATOM     18  C   UNL     1      10.063   6.036   3.204  0.00  0.00    +0.024 A 
ATOM     19  C   UNL     1      12.340   7.172   4.439  0.00  0.00    +0.274 A 
ATOM     20  C   UNL     1       9.417   5.161   7.664  0.00  0.00    +0.324 C 
ATOM     21  C   UNL     1      12.448   6.207   3.316  0.00  0.00    +0.112 A 
ATOM     22  C   UNL     1      11.373   5.681   2.729  0.00  0.00    +0.031 A 
ENDROOT
BRANCH  20  23
ATOM      5  O   UNL     1       8.824   4.721   9.916  0.00  0.00    -0.240 OA
ATOM     23  C   UNL     1       9.674   5.081   9.126  0.00  0.00    +0.392 C 
BRANCH  23   4
ATOM      4  O   UNL     1      10.936   5.453   9.376  0.00  0.00    -0.474 OA
ATOM     31  H   UNL     1      10.986   6.337   9.799  0.00  0.00    +0.296 HD
ENDBRANCH  23   4
ENDBRANCH  20  23
BRANCH  21  10
ATOM     10  N   UNL     1      13.711   5.830   2.825  0.00  0.00    -0.211 N 
ATOM     30  H   UNL     1      14.424   5.768   3.564  0.00  0.00    +0.174 HD
BRANCH  10   1
ATOM      1  S   UNL     1      14.236   6.575   1.398  0.00  0.00    +0.072 S 
ATOM      6  O   UNL     1      13.541   7.836   1.221  0.00  0.00    -0.150 OA
ATOM      7  O   UNL     1      15.683   6.520   1.322  0.00  0.00    -0.150 OA
BRANCH   1  24
ATOM     24  C   UNL     1      13.601   5.451   0.189  0.00  0.00    +0.108 A 
ATOM     25  C   UNL     1      13.049   5.953  -0.976  0.00  0.00    +0.029 A 
ATOM     26  C   UNL     1      13.669   4.090   0.432  0.00  0.00    +0.029 A 
ATOM     27  C   UNL     1      12.548   5.067  -1.928  0.00  0.00    +0.002 A 
ATOM     28  C   UNL     1      13.168   3.203  -0.521  0.00  0.00    +0.002 A 
ATOM     29  C   UNL     1      12.607   3.692  -1.702  0.00  0.00    +0.000 A 
ENDBRANCH   1  24
ENDBRANCH  10   1
ENDBRANCH  21  10
TORSDOF 5
ENDMDL
