REMARK  Name = 75368641
REMARK  6 active torsions:
REMARK  status: ('A' for Active; 'I' for Inactive)
REMARK    1  A    between atoms: O_3  and  C_26
REMARK    2  A    between atoms: O_3  and  C_27
REMARK    3  A    between atoms: N_5  and  C_14
REMARK    4  A    between atoms: N_6  and  C_15
REMARK    5  A    between atoms: C_14  and  C_16
REMARK    6  A    between atoms: C_15  and  C_17
REMARK                            x       y       z     vdW  Elec       q    Type
REMARK                         _______ _______ _______ _____ _____    ______ ____
ROOT
ATOM      2  O   UNL     1       1.817   3.306   0.240  0.00  0.00    -0.252 OA
ATOM      4  N   UNL     1      -0.172   2.079   0.004  0.00  0.00    -0.278 N 
ATOM      5  N   UNL     1      -2.523   0.724   0.743  0.00  0.00    -0.295 NA
ATOM      6  N   UNL     1       1.621   1.438  -1.187  0.00  0.00    -0.279 N 
ATOM      8  C   UNL     1      -0.660   1.008  -0.840  0.00  0.00    +0.109 C 
ATOM      9  C   UNL     1      -1.476   0.012  -0.017  0.00  0.00    +0.109 C 
ATOM     10  C   UNL     1       0.609   0.435  -1.468  0.00  0.00    +0.133 C 
ATOM     11  C   UNL     1      -1.090   2.748   0.902  0.00  0.00    +0.125 C 
ATOM     12  C   UNL     1      -1.927   1.715   1.661  0.00  0.00    +0.104 C 
ATOM     13  C   UNL     1       1.169   2.393  -0.254  0.00  0.00    +0.305 C 
ENDROOT
BRANCH   5  14
ATOM     14  C   UNL     1      -3.348  -0.228   1.487  0.00  0.00    +0.122 C 
BRANCH  14  16
ATOM      1  F   UNL     1      -5.718   1.002   0.493  0.00  0.00    -0.204 F 
ATOM      7  N   UNL     1      -6.165  -2.245  -1.054  0.00  0.00    -0.260 NA
ATOM     16  C   UNL     1      -4.334  -0.931   0.599  0.00  0.00    +0.005 A 
ATOM     20  C   UNL     1      -5.471  -0.268   0.151  0.00  0.00    +0.146 A 
ATOM     21  C   UNL     1      -4.111  -2.251   0.222  0.00  0.00    +0.027 A 
ATOM     24  C   UNL     1      -6.347  -0.963  -0.667  0.00  0.00    +0.149 A 
ATOM     25  C   UNL     1      -5.049  -2.857  -0.599  0.00  0.00    +0.111 A 
ENDBRANCH  14  16
ENDBRANCH   5  14
BRANCH   6  15
ATOM     15  C   UNL     1       2.966   1.337  -1.708  0.00  0.00    +0.144 C 
BRANCH  15  17
ATOM     17  C   UNL     1       3.815   0.402  -0.896  0.00  0.00    -0.030 A 
ATOM     18  C   UNL     1       4.306   0.806   0.346  0.00  0.00    +0.009 A 
ATOM     19  C   UNL     1       4.113  -0.870  -1.383  0.00  0.00    +0.009 A 
ATOM     22  C   UNL     1       5.094  -0.063   1.100  0.00  0.00    +0.046 A 
ATOM     23  C   UNL     1       4.901  -1.739  -0.629  0.00  0.00    +0.046 A 
ATOM     26  C   UNL     1       5.392  -1.335   0.613  0.00  0.00    +0.120 A 
BRANCH  26   3
ATOM      3  O   UNL     1       6.160  -2.183   1.349  0.00  0.00    -0.495 OA
ATOM     27  C   UNL     1       6.426  -3.469   0.791  0.00  0.00    +0.277 C 
ENDBRANCH  26   3
ENDBRANCH  15  17
ENDBRANCH   6  15
TORSDOF 5
