MODEL 1
REMARK VINA RESULT:      -7.6      0.000      0.000
REMARK  Name = 44716462
REMARK  9 active torsions:
REMARK  status: ('A' for Active; 'I' for Inactive)
REMARK    1  A    between atoms: O_3  and  C_22
REMARK    2  A    between atoms: O_3  and  C_35
REMARK    3  A    between atoms: N_6  and  C_13
REMARK    4  A    between atoms: N_6  and  C_23
REMARK    5  A    between atoms: N_8  and  C_33
REMARK    6  A    between atoms: C_11  and  C_19
REMARK    7  A    between atoms: C_15  and  C_22
REMARK    8  A    between atoms: C_23  and  C_28
REMARK    9  A    between atoms: C_28  and  C_33
REMARK                            x       y       z     vdW  Elec       q    Type
REMARK                         _______ _______ _______ _____ _____    ______ ____
ROOT
ATOM      5  N   UNL     1      13.850  10.736  20.869  0.00  0.00    -0.274 NA
ATOM      7  N   UNL     1      11.292  13.404  21.534  0.00  0.00    -0.356 N 
ATOM     10  C   UNL     1      12.707  11.586  20.417  0.00  0.00    +0.106 C 
ATOM     11  C   UNL     1      14.426   9.941  19.755  0.00  0.00    +0.090 C 
ATOM     12  C   UNL     1      13.146  12.538  19.293  0.00  0.00    +0.044 C 
ATOM     13  C   UNL     1      13.700  11.747  18.109  0.00  0.00    +0.057 C 
ATOM     14  C   UNL     1      14.848  10.855  18.579  0.00  0.00    +0.042 C 
ATOM     15  C   UNL     1      13.542   9.956  22.098  0.00  0.00    +0.172 C 
ATOM     16  C   UNL     1      12.142  12.335  21.587  0.00  0.00    +0.038 A 
ATOM     17  C   UNL     1      13.202  10.863  23.308  0.00  0.00    +0.068 C 
ATOM     18  C   UNL     1      12.341  12.011  22.911  0.00  0.00    -0.016 A 
ATOM     20  C   UNL     1      11.611  12.940  23.701  0.00  0.00    +0.003 A 
ATOM     21  C   UNL     1      10.964  13.804  22.813  0.00  0.00    +0.047 A 
ATOM     26  C   UNL     1      11.432  13.133  25.086  0.00  0.00    +0.010 A 
ATOM     27  C   UNL     1      10.145  14.853  23.245  0.00  0.00    +0.026 A 
ATOM     29  C   UNL     1      10.618  14.180  25.531  0.00  0.00    +0.001 A 
ATOM     32  C   UNL     1       9.985  15.026  24.622  0.00  0.00    +0.002 A 
ATOM     40  H   UNL     1      10.952  13.844  20.690  0.00  0.00    +0.166 HD
ENDROOT
BRANCH  11  19
ATOM      1 CL   UNL     1      19.230   6.633  21.317  0.00  0.00    -0.081 Cl
ATOM      2  F   UNL     1      16.980   5.771  19.590  0.00  0.00    -0.204 F 
ATOM     19  C   UNL     1      15.640   9.104  20.148  0.00  0.00    -0.027 A 
ATOM     24  C   UNL     1      15.764   7.794  19.684  0.00  0.00    +0.045 A 
ATOM     25  C   UNL     1      16.626   9.648  20.972  0.00  0.00    +0.007 A 
ATOM     30  C   UNL     1      16.875   7.028  20.044  0.00  0.00    +0.142 A 
ATOM     31  C   UNL     1      17.735   8.884  21.331  0.00  0.00    +0.023 A 
ATOM     34  C   UNL     1      17.860   7.574  20.867  0.00  0.00    +0.076 A 
ENDBRANCH  11  19
BRANCH  15  22
ATOM      4  O   UNL     1      11.269   9.294  21.643  0.00  0.00    -0.249 OA
ATOM     22  C   UNL     1      12.435   8.975  21.836  0.00  0.00    +0.325 C 
BRANCH  22   3
ATOM      3  O   UNL     1      12.935   7.708  21.847  0.00  0.00    -0.467 OA
ATOM     35  C   UNL     1      12.336   6.801  20.916  0.00  0.00    +0.280 C 
ENDBRANCH  22   3
ENDBRANCH  15  22
BRANCH  13   6
ATOM      6  N   UNL     1      14.147  12.661  17.059  0.00  0.00    -0.313 NA
ATOM     39  H   UNL     1      13.344  13.156  16.670  0.00  0.00    +0.122 HD
BRANCH   6  23
ATOM     23  C   UNL     1      14.811  11.932  15.989  0.00  0.00    +0.083 C 
BRANCH  23  28
ATOM     28  C   UNL     1      13.784  11.176  15.147  0.00  0.00    +0.037 C 
BRANCH  28  33
ATOM     33  C   UNL     1      13.892   9.666  15.372  0.00  0.00    +0.124 C 
BRANCH  33   8
ATOM      8  N   UNL     1      12.636   9.102  15.986  0.00  0.00    -0.337 N 
ATOM      9  N   UNL     1      11.326   7.974  17.380  0.00  0.00    -0.244 NA
ATOM     36  C   UNL     1      11.359   9.297  15.540  0.00  0.00    +0.106 A 
ATOM     37  C   UNL     1      12.566   8.302  17.093  0.00  0.00    +0.199 A 
ATOM     38  C   UNL     1      10.569   8.590  16.416  0.00  0.00    +0.130 A 
ENDBRANCH  33   8
ENDBRANCH  28  33
ENDBRANCH  23  28
ENDBRANCH   6  23
ENDBRANCH  13   6
TORSDOF 8
ENDMDL
MODEL 2
REMARK VINA RESULT:      -7.3      3.106      7.560
REMARK  Name = 44716462
REMARK  9 active torsions:
REMARK  status: ('A' for Active; 'I' for Inactive)
REMARK    1  A    between atoms: O_3  and  C_22
REMARK    2  A    between atoms: O_3  and  C_35
REMARK    3  A    between atoms: N_6  and  C_13
REMARK    4  A    between atoms: N_6  and  C_23
REMARK    5  A    between atoms: N_8  and  C_33
REMARK    6  A    between atoms: C_11  and  C_19
REMARK    7  A    between atoms: C_15  and  C_22
REMARK    8  A    between atoms: C_23  and  C_28
REMARK    9  A    between atoms: C_28  and  C_33
REMARK                            x       y       z     vdW  Elec       q    Type
REMARK                         _______ _______ _______ _____ _____    ______ ____
ROOT
ATOM      5  N   UNL     1      15.759   8.834  20.094  0.00  0.00    -0.274 NA
ATOM      7  N   UNL     1      18.849   8.093  22.096  0.00  0.00    -0.356 N 
ATOM     10  C   UNL     1      16.584   9.005  21.330  0.00  0.00    +0.106 C 
ATOM     11  C   UNL     1      14.577   9.733  20.086  0.00  0.00    +0.090 C 
ATOM     12  C   UNL     1      17.056  10.461  21.472  0.00  0.00    +0.044 C 
ATOM     13  C   UNL     1      15.859  11.410  21.515  0.00  0.00    +0.057 C 
ATOM     14  C   UNL     1      15.001  11.211  20.267  0.00  0.00    +0.042 C 
ATOM     15  C   UNL     1      15.461   7.408  19.790  0.00  0.00    +0.172 C 
ATOM     16  C   UNL     1      17.738   8.049  21.302  0.00  0.00    +0.038 A 
ATOM     17  C   UNL     1      16.743   6.572  19.547  0.00  0.00    +0.068 C 
ATOM     18  C   UNL     1      17.822   6.925  20.510  0.00  0.00    -0.016 A 
ATOM     20  C   UNL     1      19.050   6.274  20.807  0.00  0.00    +0.003 A 
ATOM     21  C   UNL     1      19.676   7.029  21.804  0.00  0.00    +0.047 A 
ATOM     26  C   UNL     1      19.693   5.114  20.330  0.00  0.00    +0.010 A 
ATOM     27  C   UNL     1      20.918   6.678  22.346  0.00  0.00    +0.026 A 
ATOM     29  C   UNL     1      20.936   4.754  20.862  0.00  0.00    +0.001 A 
ATOM     32  C   UNL     1      21.537   5.526  21.856  0.00  0.00    +0.002 A 
ATOM     40  H   UNL     1      19.046   8.798  22.793  0.00  0.00    +0.166 HD
ENDROOT
BRANCH  11  19
ATOM      1 CL   UNL     1      11.256   9.388  15.055  0.00  0.00    -0.081 Cl
ATOM      2  F   UNL     1      10.407   8.612  17.787  0.00  0.00    -0.204 F 
ATOM     19  C   UNL     1      13.736   9.646  18.816  0.00  0.00    -0.027 A 
ATOM     24  C   UNL     1      12.429   9.160  18.876  0.00  0.00    +0.045 A 
ATOM     25  C   UNL     1      14.273  10.051  17.594  0.00  0.00    +0.007 A 
ATOM     30  C   UNL     1      11.660   9.081  17.714  0.00  0.00    +0.142 A 
ATOM     31  C   UNL     1      13.506   9.972  16.433  0.00  0.00    +0.023 A 
ATOM     34  C   UNL     1      12.199   9.487  16.493  0.00  0.00    +0.076 A 
ENDBRANCH  11  19
BRANCH  15  22
ATOM      4  O   UNL     1      15.012   6.631  22.027  0.00  0.00    -0.249 OA
ATOM     22  C   UNL     1      14.623   6.801  20.879  0.00  0.00    +0.325 C 
BRANCH  22   3
ATOM      3  O   UNL     1      13.393   6.483  20.386  0.00  0.00    -0.467 OA
ATOM     35  C   UNL     1      12.307   6.616  21.308  0.00  0.00    +0.280 C 
ENDBRANCH  22   3
ENDBRANCH  15  22
BRANCH  13   6
ATOM      6  N   UNL     1      16.319  12.794  21.616  0.00  0.00    -0.313 NA
ATOM     39  H   UNL     1      16.897  12.904  22.449  0.00  0.00    +0.122 HD
BRANCH   6  23
ATOM     23  C   UNL     1      15.189  13.707  21.707  0.00  0.00    +0.083 C 
BRANCH  23  28
ATOM     28  C   UNL     1      14.352  13.391  22.945  0.00  0.00    +0.037 C 
BRANCH  28  33
ATOM     33  C   UNL     1      12.859  13.576  22.661  0.00  0.00    +0.124 C 
BRANCH  33   8
ATOM      8  N   UNL     1      12.094  12.290  22.842  0.00  0.00    -0.337 N 
ATOM      9  N   UNL     1      11.027  10.627  23.858  0.00  0.00    -0.244 NA
ATOM     36  C   UNL     1      11.697  11.437  21.849  0.00  0.00    +0.106 A 
ATOM     37  C   UNL     1      11.668  11.762  24.029  0.00  0.00    +0.199 A 
ATOM     38  C   UNL     1      11.042  10.419  22.501  0.00  0.00    +0.130 A 
ENDBRANCH  33   8
ENDBRANCH  28  33
ENDBRANCH  23  28
ENDBRANCH   6  23
ENDBRANCH  13   6
TORSDOF 8
ENDMDL
MODEL 3
REMARK VINA RESULT:      -6.9      4.184      7.422
REMARK  Name = 44716462
REMARK  9 active torsions:
REMARK  status: ('A' for Active; 'I' for Inactive)
REMARK    1  A    between atoms: O_3  and  C_22
REMARK    2  A    between atoms: O_3  and  C_35
REMARK    3  A    between atoms: N_6  and  C_13
REMARK    4  A    between atoms: N_6  and  C_23
REMARK    5  A    between atoms: N_8  and  C_33
REMARK    6  A    between atoms: C_11  and  C_19
REMARK    7  A    between atoms: C_15  and  C_22
REMARK    8  A    between atoms: C_23  and  C_28
REMARK    9  A    between atoms: C_28  and  C_33
REMARK                            x       y       z     vdW  Elec       q    Type
REMARK                         _______ _______ _______ _____ _____    ______ ____
ROOT
ATOM      5  N   UNL     1      15.937   8.843  19.851  0.00  0.00    -0.274 NA
ATOM      7  N   UNL     1      19.169   8.121  21.622  0.00  0.00    -0.356 N 
ATOM     10  C   UNL     1      16.896   9.100  20.969  0.00  0.00    +0.106 C 
ATOM     11  C   UNL     1      14.818   9.820  19.842  0.00  0.00    +0.090 C 
ATOM     12  C   UNL     1      17.470  10.523  20.878  0.00  0.00    +0.044 C 
ATOM     13  C   UNL     1      16.345  11.557  20.915  0.00  0.00    +0.057 C 
ATOM     14  C   UNL     1      15.350  11.274  19.791  0.00  0.00    +0.042 C 
ATOM     15  C   UNL     1      15.520   7.418  19.760  0.00  0.00    +0.172 C 
ATOM     16  C   UNL     1      17.979   8.064  20.952  0.00  0.00    +0.038 A 
ATOM     17  C   UNL     1      16.715   6.465  19.503  0.00  0.00    +0.068 C 
ATOM     18  C   UNL     1      17.909   6.849  20.305  0.00  0.00    -0.016 A 
ATOM     20  C   UNL     1      19.119   6.149  20.562  0.00  0.00    +0.003 A 
ATOM     21  C   UNL     1      19.892   6.970  21.389  0.00  0.00    +0.047 A 
ATOM     26  C   UNL     1      19.636   4.896  20.177  0.00  0.00    +0.010 A 
ATOM     27  C   UNL     1      21.160   6.595  21.850  0.00  0.00    +0.026 A 
ATOM     29  C   UNL     1      20.903   4.511  20.628  0.00  0.00    +0.001 A 
ATOM     32  C   UNL     1      21.651   5.349  21.452  0.00  0.00    +0.002 A 
ATOM     40  H   UNL     1      19.481   8.888  22.202  0.00  0.00    +0.166 HD
ENDROOT
BRANCH  11  19
ATOM      1 CL   UNL     1      10.972   9.121  15.241  0.00  0.00    -0.081 Cl
ATOM      2  F   UNL     1      10.386   8.680  18.113  0.00  0.00    -0.204 F 
ATOM     19  C   UNL     1      13.845   9.644  18.680  0.00  0.00    -0.027 A 
ATOM     24  C   UNL     1      12.533   9.235  18.925  0.00  0.00    +0.045 A 
ATOM     25  C   UNL     1      14.265   9.891  17.374  0.00  0.00    +0.007 A 
ATOM     30  C   UNL     1      11.643   9.074  17.862  0.00  0.00    +0.142 A 
ATOM     31  C   UNL     1      13.376   9.730  16.312  0.00  0.00    +0.023 A 
ATOM     34  C   UNL     1      12.065   9.322  16.556  0.00  0.00    +0.076 A 
ENDBRANCH  11  19
BRANCH  15  22
ATOM      4  O   UNL     1      15.214   7.093  22.129  0.00  0.00    -0.249 OA
ATOM     22  C   UNL     1      14.766   7.010  20.994  0.00  0.00    +0.325 C 
BRANCH  22   3
ATOM      3  O   UNL     1      13.533   6.548  20.643  0.00  0.00    -0.467 OA
ATOM     35  C   UNL     1      12.467   6.904  21.529  0.00  0.00    +0.280 C 
ENDBRANCH  22   3
ENDBRANCH  15  22
BRANCH  13   6
ATOM      6  N   UNL     1      16.898  12.905  20.794  0.00  0.00    -0.313 NA
ATOM     39  H   UNL     1      16.245  13.499  20.282  0.00  0.00    +0.122 HD
BRANCH   6  23
ATOM     23  C   UNL     1      18.167  12.880  20.083  0.00  0.00    +0.083 C 
BRANCH  23  28
ATOM     28  C   UNL     1      18.111  13.805  18.868  0.00  0.00    +0.037 C 
BRANCH  28  33
ATOM     33  C   UNL     1      18.218  13.008  17.565  0.00  0.00    +0.124 C 
BRANCH  33   8
ATOM      8  N   UNL     1      16.924  13.028  16.792  0.00  0.00    -0.337 N 
ATOM      9  N   UNL     1      15.436  12.559  15.212  0.00  0.00    -0.244 NA
ATOM     36  C   UNL     1      15.804  13.747  17.107  0.00  0.00    +0.106 A 
ATOM     37  C   UNL     1      16.654  12.331  15.648  0.00  0.00    +0.199 A 
ATOM     38  C   UNL     1      14.900  13.441  16.116  0.00  0.00    +0.130 A 
ENDBRANCH  33   8
ENDBRANCH  28  33
ENDBRANCH  23  28
ENDBRANCH   6  23
ENDBRANCH  13   6
TORSDOF 8
ENDMDL
MODEL 4
REMARK VINA RESULT:      -6.8     13.606     17.358
REMARK  Name = 44716462
REMARK  9 active torsions:
REMARK  status: ('A' for Active; 'I' for Inactive)
REMARK    1  A    between atoms: O_3  and  C_22
REMARK    2  A    between atoms: O_3  and  C_35
REMARK    3  A    between atoms: N_6  and  C_13
REMARK    4  A    between atoms: N_6  and  C_23
REMARK    5  A    between atoms: N_8  and  C_33
REMARK    6  A    between atoms: C_11  and  C_19
REMARK    7  A    between atoms: C_15  and  C_22
REMARK    8  A    between atoms: C_23  and  C_28
REMARK    9  A    between atoms: C_28  and  C_33
REMARK                            x       y       z     vdW  Elec       q    Type
REMARK                         _______ _______ _______ _____ _____    ______ ____
ROOT
ATOM      5  N   UNL     1      12.061   7.388   5.098  0.00  0.00    -0.274 NA
ATOM      7  N   UNL     1      14.762   8.188   2.614  0.00  0.00    -0.356 N 
ATOM     10  C   UNL     1      12.498   7.960   3.788  0.00  0.00    +0.106 C 
ATOM     11  C   UNL     1      10.582   7.358   5.226  0.00  0.00    +0.090 C 
ATOM     12  C   UNL     1      11.908   7.155   2.619  0.00  0.00    +0.044 C 
ATOM     13  C   UNL     1      10.381   7.145   2.693  0.00  0.00    +0.057 C 
ATOM     14  C   UNL     1       9.938   6.590   4.046  0.00  0.00    +0.042 C 
ATOM     15  C   UNL     1      12.775   7.987   6.258  0.00  0.00    +0.172 C 
ATOM     16  C   UNL     1      13.996   8.001   3.730  0.00  0.00    +0.038 A 
ATOM     17  C   UNL     1      14.306   7.753   6.199  0.00  0.00    +0.068 C 
ATOM     18  C   UNL     1      14.837   7.927   4.819  0.00  0.00    -0.016 A 
ATOM     20  C   UNL     1      16.172   8.038   4.346  0.00  0.00    +0.003 A 
ATOM     21  C   UNL     1      16.097   8.199   2.959  0.00  0.00    +0.047 A 
ATOM     26  C   UNL     1      17.441   8.021   4.958  0.00  0.00    +0.010 A 
ATOM     27  C   UNL     1      17.233   8.344   2.154  0.00  0.00    +0.026 A 
ATOM     29  C   UNL     1      18.585   8.163   4.165  0.00  0.00    +0.001 A 
ATOM     32  C   UNL     1      18.480   8.322   2.784  0.00  0.00    +0.002 A 
ATOM     40  H   UNL     1      14.411   8.300   1.672  0.00  0.00    +0.166 HD
ENDROOT
BRANCH  11  19
ATOM      1 CL   UNL     1       8.592   4.849  10.344  0.00  0.00    -0.081 Cl
ATOM      2  F   UNL     1       9.913   3.449   8.090  0.00  0.00    -0.204 F 
ATOM     19  C   UNL     1      10.080   6.723   6.519  0.00  0.00    -0.027 A 
ATOM     24  C   UNL     1      10.225   5.350   6.724  0.00  0.00    +0.045 A 
ATOM     25  C   UNL     1       9.477   7.513   7.497  0.00  0.00    +0.007 A 
ATOM     30  C   UNL     1       9.766   4.769   7.908  0.00  0.00    +0.142 A 
ATOM     31  C   UNL     1       9.018   6.933   8.679  0.00  0.00    +0.023 A 
ATOM     34  C   UNL     1       9.163   5.561   8.884  0.00  0.00    +0.076 A 
ENDBRANCH  11  19
BRANCH  15  22
ATOM      4  O   UNL     1      12.505  10.236   5.433  0.00  0.00    -0.249 OA
ATOM     22  C   UNL     1      12.461   9.452   6.371  0.00  0.00    +0.325 C 
BRANCH  22   3
ATOM      3  O   UNL     1      12.126   9.749   7.659  0.00  0.00    -0.467 OA
ATOM     35  C   UNL     1      11.213  10.839   7.821  0.00  0.00    +0.280 C 
ENDBRANCH  22   3
ENDBRANCH  15  22
BRANCH  13   6
ATOM      6  N   UNL     1       9.830   6.349   1.597  0.00  0.00    -0.313 NA
ATOM     39  H   UNL     1       9.903   5.357   1.823  0.00  0.00    +0.122 HD
BRANCH   6  23
ATOM     23  C   UNL     1      10.554   6.603   0.361  0.00  0.00    +0.083 C 
BRANCH  23  28
ATOM     28  C   UNL     1      10.724   5.306  -0.429  0.00  0.00    +0.037 C 
BRANCH  28  33
ATOM     33  C   UNL     1      11.006   4.126   0.504  0.00  0.00    +0.124 C 
BRANCH  33   8
ATOM      8  N   UNL     1      12.485   3.911   0.701  0.00  0.00    -0.337 N 
ATOM      9  N   UNL     1      14.383   3.201   1.610  0.00  0.00    -0.244 NA
ATOM     36  C   UNL     1      13.485   4.385  -0.102  0.00  0.00    +0.106 A 
ATOM     37  C   UNL     1      13.072   3.206   1.714  0.00  0.00    +0.199 A 
ATOM     38  C   UNL     1      14.647   3.934   0.481  0.00  0.00    +0.130 A 
ENDBRANCH  33   8
ENDBRANCH  28  33
ENDBRANCH  23  28
ENDBRANCH   6  23
ENDBRANCH  13   6
TORSDOF 8
ENDMDL
MODEL 5
REMARK VINA RESULT:      -6.8      1.823      3.363
REMARK  Name = 44716462
REMARK  9 active torsions:
REMARK  status: ('A' for Active; 'I' for Inactive)
REMARK    1  A    between atoms: O_3  and  C_22
REMARK    2  A    between atoms: O_3  and  C_35
REMARK    3  A    between atoms: N_6  and  C_13
REMARK    4  A    between atoms: N_6  and  C_23
REMARK    5  A    between atoms: N_8  and  C_33
REMARK    6  A    between atoms: C_11  and  C_19
REMARK    7  A    between atoms: C_15  and  C_22
REMARK    8  A    between atoms: C_23  and  C_28
REMARK    9  A    between atoms: C_28  and  C_33
REMARK                            x       y       z     vdW  Elec       q    Type
REMARK                         _______ _______ _______ _____ _____    ______ ____
ROOT
ATOM      5  N   UNL     1      13.727  10.446  20.451  0.00  0.00    -0.274 NA
ATOM      7  N   UNL     1      11.277  13.187  21.221  0.00  0.00    -0.356 N 
ATOM     10  C   UNL     1      12.662  11.401  20.018  0.00  0.00    +0.106 C 
ATOM     11  C   UNL     1      14.329   9.726  19.301  0.00  0.00    +0.090 C 
ATOM     12  C   UNL     1      13.223  12.426  19.019  0.00  0.00    +0.044 C 
ATOM     13  C   UNL     1      13.808  11.718  17.798  0.00  0.00    +0.057 C 
ATOM     14  C   UNL     1      14.875  10.720  18.246  0.00  0.00    +0.042 C 
ATOM     15  C   UNL     1      13.299   9.574  21.579  0.00  0.00    +0.172 C 
ATOM     16  C   UNL     1      12.064  12.069  21.219  0.00  0.00    +0.038 A 
ATOM     17  C   UNL     1      12.931  10.382  22.849  0.00  0.00    +0.068 C 
ATOM     18  C   UNL     1      12.160  11.611  22.515  0.00  0.00    -0.016 A 
ATOM     20  C   UNL     1      11.432  12.504  23.348  0.00  0.00    +0.003 A 
ATOM     21  C   UNL     1      10.890  13.484  22.511  0.00  0.00    +0.047 A 
ATOM     26  C   UNL     1      11.175  12.576  24.731  0.00  0.00    +0.010 A 
ATOM     27  C   UNL     1      10.102  14.535  22.994  0.00  0.00    +0.026 A 
ATOM     29  C   UNL     1      10.391  13.624  25.227  0.00  0.00    +0.001 A 
ATOM     32  C   UNL     1       9.863  14.587  24.370  0.00  0.00    +0.002 A 
ATOM     40  H   UNL     1      11.016  13.723  20.405  0.00  0.00    +0.166 HD
ENDROOT
BRANCH  11  19
ATOM      1 CL   UNL     1      18.840   6.008  20.813  0.00  0.00    -0.081 Cl
ATOM      2  F   UNL     1      16.601   5.406  18.966  0.00  0.00    -0.204 F 
ATOM     19  C   UNL     1      15.469   8.785  19.682  0.00  0.00    -0.027 A 
ATOM     24  C   UNL     1      15.522   7.499  19.143  0.00  0.00    +0.045 A 
ATOM     25  C   UNL     1      16.459   9.211  20.568  0.00  0.00    +0.007 A 
ATOM     30  C   UNL     1      16.565   6.639  19.491  0.00  0.00    +0.142 A 
ATOM     31  C   UNL     1      17.501   8.352  20.916  0.00  0.00    +0.023 A 
ATOM     34  C   UNL     1      17.554   7.066  20.377  0.00  0.00    +0.076 A 
ENDBRANCH  11  19
BRANCH  15  22
ATOM      4  O   UNL     1      11.801   8.542  19.997  0.00  0.00    -0.249 OA
ATOM     22  C   UNL     1      12.160   8.690  21.157  0.00  0.00    +0.325 C 
BRANCH  22   3
ATOM      3  O   UNL     1      11.613   8.096  22.255  0.00  0.00    -0.467 OA
ATOM     35  C   UNL     1      10.461   7.284  22.006  0.00  0.00    +0.280 C 
ENDBRANCH  22   3
ENDBRANCH  15  22
BRANCH  13   6
ATOM      6  N   UNL     1      14.370  12.699  16.870  0.00  0.00    -0.313 NA
ATOM     39  H   UNL     1      15.237  12.337  16.473  0.00  0.00    +0.122 HD
BRANCH   6  23
ATOM     23  C   UNL     1      14.654  13.951  17.553  0.00  0.00    +0.083 C 
BRANCH  23  28
ATOM     28  C   UNL     1      16.160  14.119  17.748  0.00  0.00    +0.037 C 
BRANCH  28  33
ATOM     33  C   UNL     1      16.463  14.950  18.998  0.00  0.00    +0.124 C 
BRANCH  33   8
ATOM      8  N   UNL     1      16.077  14.221  20.259  0.00  0.00    -0.337 N 
ATOM      9  N   UNL     1      15.059  13.791  22.186  0.00  0.00    -0.244 NA
ATOM     36  C   UNL     1      16.559  13.011  20.675  0.00  0.00    +0.106 A 
ATOM     37  C   UNL     1      15.180  14.649  21.198  0.00  0.00    +0.199 A 
ATOM     38  C   UNL     1      15.916  12.767  21.866  0.00  0.00    +0.130 A 
ENDBRANCH  33   8
ENDBRANCH  28  33
ENDBRANCH  23  28
ENDBRANCH   6  23
ENDBRANCH  13   6
TORSDOF 8
ENDMDL
MODEL 6
REMARK VINA RESULT:      -6.7     14.720     19.040
REMARK  Name = 44716462
REMARK  9 active torsions:
REMARK  status: ('A' for Active; 'I' for Inactive)
REMARK    1  A    between atoms: O_3  and  C_22
REMARK    2  A    between atoms: O_3  and  C_35
REMARK    3  A    between atoms: N_6  and  C_13
REMARK    4  A    between atoms: N_6  and  C_23
REMARK    5  A    between atoms: N_8  and  C_33
REMARK    6  A    between atoms: C_11  and  C_19
REMARK    7  A    between atoms: C_15  and  C_22
REMARK    8  A    between atoms: C_23  and  C_28
REMARK    9  A    between atoms: C_28  and  C_33
REMARK                            x       y       z     vdW  Elec       q    Type
REMARK                         _______ _______ _______ _____ _____    ______ ____
ROOT
ATOM      5  N   UNL     1      10.129   6.490   2.084  0.00  0.00    -0.274 NA
ATOM      7  N   UNL     1       7.898   8.658   4.188  0.00  0.00    -0.356 N 
ATOM     10  C   UNL     1       9.785   7.120   3.395  0.00  0.00    +0.106 C 
ATOM     11  C   UNL     1      11.259   5.534   2.207  0.00  0.00    +0.090 C 
ATOM     12  C   UNL     1       9.427   6.048   4.438  0.00  0.00    +0.044 C 
ATOM     13  C   UNL     1      10.590   5.074   4.624  0.00  0.00    +0.057 C 
ATOM     14  C   UNL     1      10.961   4.455   3.277  0.00  0.00    +0.042 C 
ATOM     15  C   UNL     1      10.268   7.481   0.983  0.00  0.00    +0.172 C 
ATOM     16  C   UNL     1       8.667   8.101   3.205  0.00  0.00    +0.038 A 
ATOM     17  C   UNL     1       8.960   8.272   0.727  0.00  0.00    +0.068 C 
ATOM     18  C   UNL     1       8.288   8.652   2.000  0.00  0.00    -0.016 A 
ATOM     20  C   UNL     1       7.220   9.556   2.252  0.00  0.00    +0.003 A 
ATOM     21  C   UNL     1       6.995   9.539   3.632  0.00  0.00    +0.047 A 
ATOM     26  C   UNL     1       6.422  10.391   1.445  0.00  0.00    +0.010 A 
ATOM     27  C   UNL     1       6.007  10.320   4.243  0.00  0.00    +0.026 A 
ATOM     29  C   UNL     1       5.430  11.174   2.043  0.00  0.00    +0.001 A 
ATOM     32  C   UNL     1       5.227  11.138   3.422  0.00  0.00    +0.002 A 
ATOM     40  H   UNL     1       7.971   8.458   5.176  0.00  0.00    +0.166 HD
ENDROOT
BRANCH  11  19
ATOM      1 CL   UNL     1      12.650   2.674  -2.926  0.00  0.00    -0.081 Cl
ATOM      2  F   UNL     1      10.048   3.927  -2.252  0.00  0.00    -0.204 F 
ATOM     19  C   UNL     1      11.609   4.812   0.909  0.00  0.00    -0.027 A 
ATOM     24  C   UNL     1      10.655   4.693  -0.103  0.00  0.00    +0.045 A 
ATOM     25  C   UNL     1      12.883   4.271   0.732  0.00  0.00    +0.007 A 
ATOM     30  C   UNL     1      10.976   4.033  -1.290  0.00  0.00    +0.142 A 
ATOM     31  C   UNL     1      13.203   3.612  -0.454  0.00  0.00    +0.023 A 
ATOM     34  C   UNL     1      12.250   3.493  -1.465  0.00  0.00    +0.076 A 
ENDBRANCH  11  19
BRANCH  15  22
ATOM      4  O   UNL     1      11.373   9.329   2.069  0.00  0.00    -0.249 OA
ATOM     22  C   UNL     1      11.413   8.414   1.257  0.00  0.00    +0.325 C 
BRANCH  22   3
ATOM      3  O   UNL     1      12.474   8.078   0.470  0.00  0.00    -0.467 OA
ATOM     35  C   UNL     1      12.192   7.967  -0.929  0.00  0.00    +0.280 C 
ENDBRANCH  22   3
ENDBRANCH  15  22
BRANCH  13   6
ATOM      6  N   UNL     1      10.229   4.039   5.591  0.00  0.00    -0.313 NA
ATOM     39  H   UNL     1       9.776   3.262   5.109  0.00  0.00    +0.122 HD
BRANCH   6  23
ATOM     23  C   UNL     1       9.313   4.566   6.592  0.00  0.00    +0.083 C 
BRANCH  23  28
ATOM     28  C   UNL     1       9.934   4.462   7.984  0.00  0.00    +0.037 C 
BRANCH  28  33
ATOM     33  C   UNL     1       9.637   5.714   8.814  0.00  0.00    +0.124 C 
BRANCH  33   8
ATOM      8  N   UNL     1       9.788   6.972   7.998  0.00  0.00    -0.337 N 
ATOM      9  N   UNL     1       9.237   8.843   6.935  0.00  0.00    -0.244 NA
ATOM     36  C   UNL     1      10.951   7.458   7.469  0.00  0.00    +0.106 A 
ATOM     37  C   UNL     1       8.788   7.837   7.652  0.00  0.00    +0.199 A 
ATOM     38  C   UNL     1      10.585   8.613   6.817  0.00  0.00    +0.130 A 
ENDBRANCH  33   8
ENDBRANCH  28  33
ENDBRANCH  23  28
ENDBRANCH   6  23
ENDBRANCH  13   6
TORSDOF 8
ENDMDL
MODEL 7
REMARK VINA RESULT:      -6.7     29.203     31.637
REMARK  Name = 44716462
REMARK  9 active torsions:
REMARK  status: ('A' for Active; 'I' for Inactive)
REMARK    1  A    between atoms: O_3  and  C_22
REMARK    2  A    between atoms: O_3  and  C_35
REMARK    3  A    between atoms: N_6  and  C_13
REMARK    4  A    between atoms: N_6  and  C_23
REMARK    5  A    between atoms: N_8  and  C_33
REMARK    6  A    between atoms: C_11  and  C_19
REMARK    7  A    between atoms: C_15  and  C_22
REMARK    8  A    between atoms: C_23  and  C_28
REMARK    9  A    between atoms: C_28  and  C_33
REMARK                            x       y       z     vdW  Elec       q    Type
REMARK                         _______ _______ _______ _____ _____    ______ ____
ROOT
ATOM      5  N   UNL     1      -9.805 -10.476  18.424  0.00  0.00    -0.274 NA
ATOM      7  N   UNL     1     -13.412  -9.544  18.896  0.00  0.00    -0.356 N 
ATOM     10  C   UNL     1     -11.097  -9.954  17.884  0.00  0.00    +0.106 C 
ATOM     11  C   UNL     1      -8.700 -10.354  17.439  0.00  0.00    +0.090 C 
ATOM     12  C   UNL     1     -10.956  -8.481  17.464  0.00  0.00    +0.044 C 
ATOM     13  C   UNL     1      -9.857  -8.327  16.413  0.00  0.00    +0.057 C 
ATOM     14  C   UNL     1      -8.545  -8.891  16.956  0.00  0.00    +0.042 C 
ATOM     15  C   UNL     1      -9.939 -11.821  19.047  0.00  0.00    +0.172 C 
ATOM     16  C   UNL     1     -12.180 -10.137  18.903  0.00  0.00    +0.038 A 
ATOM     17  C   UNL     1     -10.917 -11.824  20.249  0.00  0.00    +0.068 C 
ATOM     18  C   UNL     1     -12.126 -10.998  19.977  0.00  0.00    -0.016 A 
ATOM     20  C   UNL     1     -13.360 -10.901  20.676  0.00  0.00    +0.003 A 
ATOM     21  C   UNL     1     -14.148  -9.981  19.977  0.00  0.00    +0.047 A 
ATOM     26  C   UNL     1     -13.890 -11.507  21.832  0.00  0.00    +0.010 A 
ATOM     27  C   UNL     1     -15.443  -9.638  20.382  0.00  0.00    +0.026 A 
ATOM     29  C   UNL     1     -15.182 -11.170  22.249  0.00  0.00    +0.001 A 
ATOM     32  C   UNL     1     -15.945 -10.250  21.534  0.00  0.00    +0.002 A 
ATOM     40  H   UNL     1     -13.741  -8.881  18.208  0.00  0.00    +0.166 HD
ENDROOT
BRANCH  11  19
ATOM      1 CL   UNL     1      -3.332 -12.171  19.522  0.00  0.00    -0.081 Cl
ATOM      2  F   UNL     1      -4.293 -12.355  16.724  0.00  0.00    -0.204 F 
ATOM     19  C   UNL     1      -7.343 -10.813  17.964  0.00  0.00    -0.027 A 
ATOM     24  C   UNL     1      -6.415 -11.387  17.093  0.00  0.00    +0.045 A 
ATOM     25  C   UNL     1      -7.028 -10.660  19.314  0.00  0.00    +0.007 A 
ATOM     30  C   UNL     1      -5.174 -11.806  17.573  0.00  0.00    +0.142 A 
ATOM     31  C   UNL     1      -5.788 -11.079  19.794  0.00  0.00    +0.023 A 
ATOM     34  C   UNL     1      -4.860 -11.652  18.924  0.00  0.00    +0.076 A 
ENDBRANCH  11  19
BRANCH  15  22
ATOM      4  O   UNL     1     -11.464 -12.899  17.523  0.00  0.00    -0.249 OA
ATOM     22  C   UNL     1     -10.348 -12.839  18.020  0.00  0.00    +0.325 C 
BRANCH  22   3
ATOM      3  O   UNL     1      -9.294 -13.657  17.743  0.00  0.00    -0.467 OA
ATOM     35  C   UNL     1      -9.086 -13.946  16.357  0.00  0.00    +0.280 C 
ENDBRANCH  22   3
ENDBRANCH  15  22
BRANCH  13   6
ATOM      6  N   UNL     1      -9.707  -6.921  16.045  0.00  0.00    -0.313 NA
ATOM     39  H   UNL     1      -9.045  -6.470  16.677  0.00  0.00    +0.122 HD
BRANCH   6  23
ATOM     23  C   UNL     1     -10.983  -6.226  16.131  0.00  0.00    +0.083 C 
BRANCH  23  28
ATOM     28  C   UNL     1     -11.484  -5.863  14.734  0.00  0.00    +0.037 C 
BRANCH  28  33
ATOM     33  C   UNL     1     -13.013  -5.797  14.698  0.00  0.00    +0.124 C 
BRANCH  33   8
ATOM      8  N   UNL     1     -13.503  -4.788  13.692  0.00  0.00    -0.337 N 
ATOM      9  N   UNL     1     -13.451  -3.170  12.171  0.00  0.00    -0.244 NA
ATOM     36  C   UNL     1     -14.805  -4.562  13.341  0.00  0.00    +0.106 A 
ATOM     37  C   UNL     1     -12.728  -3.930  12.963  0.00  0.00    +0.199 A 
ATOM     38  C   UNL     1     -14.747  -3.559  12.401  0.00  0.00    +0.130 A 
ENDBRANCH  33   8
ENDBRANCH  28  33
ENDBRANCH  23  28
ENDBRANCH   6  23
ENDBRANCH  13   6
TORSDOF 8
ENDMDL
MODEL 8
REMARK VINA RESULT:      -6.7     29.271     32.008
REMARK  Name = 44716462
REMARK  9 active torsions:
REMARK  status: ('A' for Active; 'I' for Inactive)
REMARK    1  A    between atoms: O_3  and  C_22
REMARK    2  A    between atoms: O_3  and  C_35
REMARK    3  A    between atoms: N_6  and  C_13
REMARK    4  A    between atoms: N_6  and  C_23
REMARK    5  A    between atoms: N_8  and  C_33
REMARK    6  A    between atoms: C_11  and  C_19
REMARK    7  A    between atoms: C_15  and  C_22
REMARK    8  A    between atoms: C_23  and  C_28
REMARK    9  A    between atoms: C_28  and  C_33
REMARK                            x       y       z     vdW  Elec       q    Type
REMARK                         _______ _______ _______ _____ _____    ______ ____
ROOT
ATOM      5  N   UNL     1      -9.892 -10.544  18.476  0.00  0.00    -0.274 NA
ATOM      7  N   UNL     1     -13.498  -9.624  18.982  0.00  0.00    -0.356 N 
ATOM     10  C   UNL     1     -11.187 -10.011  17.951  0.00  0.00    +0.106 C 
ATOM     11  C   UNL     1      -8.792 -10.401  17.488  0.00  0.00    +0.090 C 
ATOM     12  C   UNL     1     -11.049  -8.531  17.561  0.00  0.00    +0.044 C 
ATOM     13  C   UNL     1      -9.955  -8.355  16.508  0.00  0.00    +0.057 C 
ATOM     14  C   UNL     1      -8.640  -8.928  17.034  0.00  0.00    +0.042 C 
ATOM     15  C   UNL     1     -10.022 -11.901  19.073  0.00  0.00    +0.172 C 
ATOM     16  C   UNL     1     -12.266 -10.216  18.971  0.00  0.00    +0.038 A 
ATOM     17  C   UNL     1     -10.995 -11.929  20.278  0.00  0.00    +0.068 C 
ATOM     18  C   UNL     1     -12.206 -11.098  20.028  0.00  0.00    -0.016 A 
ATOM     20  C   UNL     1     -13.437 -11.017  20.734  0.00  0.00    +0.003 A 
ATOM     21  C   UNL     1     -14.228 -10.083  20.057  0.00  0.00    +0.047 A 
ATOM     26  C   UNL     1     -13.961 -11.645  21.881  0.00  0.00    +0.010 A 
ATOM     27  C   UNL     1     -15.522  -9.749  20.475  0.00  0.00    +0.026 A 
ATOM     29  C   UNL     1     -15.252 -11.318  22.310  0.00  0.00    +0.001 A 
ATOM     32  C   UNL     1     -16.019 -10.384  21.616  0.00  0.00    +0.002 A 
ATOM     40  H   UNL     1     -13.831  -8.948  18.308  0.00  0.00    +0.166 HD
ENDROOT
BRANCH  11  19
ATOM      1 CL   UNL     1      -3.413 -12.253  19.512  0.00  0.00    -0.081 Cl
ATOM      2  F   UNL     1      -4.543 -12.730  16.813  0.00  0.00    -0.204 F 
ATOM     19  C   UNL     1      -7.432 -10.869  17.998  0.00  0.00    -0.027 A 
ATOM     24  C   UNL     1      -6.587 -11.600  17.162  0.00  0.00    +0.045 A 
ATOM     25  C   UNL     1      -7.032 -10.567  19.300  0.00  0.00    +0.007 A 
ATOM     30  C   UNL     1      -5.343 -12.028  17.628  0.00  0.00    +0.142 A 
ATOM     31  C   UNL     1      -5.789 -10.994  19.766  0.00  0.00    +0.023 A 
ATOM     34  C   UNL     1      -4.945 -11.725  18.930  0.00  0.00    +0.076 A 
ENDBRANCH  11  19
BRANCH  15  22
ATOM      4  O   UNL     1     -11.536 -12.914  17.493  0.00  0.00    -0.249 OA
ATOM     22  C   UNL     1     -10.435 -12.898  18.027  0.00  0.00    +0.325 C 
BRANCH  22   3
ATOM      3  O   UNL     1      -9.404 -13.755  17.782  0.00  0.00    -0.467 OA
ATOM     35  C   UNL     1      -9.223 -14.124  16.411  0.00  0.00    +0.280 C 
ENDBRANCH  22   3
ENDBRANCH  15  22
BRANCH  13   6
ATOM      6  N   UNL     1      -9.808  -6.941  16.167  0.00  0.00    -0.313 NA
ATOM     39  H   UNL     1      -9.154  -6.499  16.814  0.00  0.00    +0.122 HD
BRANCH   6  23
ATOM     23  C   UNL     1     -11.087  -6.254  16.253  0.00  0.00    +0.083 C 
BRANCH  23  28
ATOM     28  C   UNL     1     -11.600  -5.914  14.855  0.00  0.00    +0.037 C 
BRANCH  28  33
ATOM     33  C   UNL     1     -13.126  -6.017  14.788  0.00  0.00    +0.124 C 
BRANCH  33   8
ATOM      8  N   UNL     1     -13.609  -7.395  15.165  0.00  0.00    -0.337 N 
ATOM      9  N   UNL     1     -14.692  -8.993  16.263  0.00  0.00    -0.244 NA
ATOM     36  C   UNL     1     -13.274  -8.567  14.546  0.00  0.00    +0.106 A 
ATOM     37  C   UNL     1     -14.462  -7.701  16.188  0.00  0.00    +0.199 A 
ATOM     38  C   UNL     1     -13.955  -9.539  15.242  0.00  0.00    +0.130 A 
ENDBRANCH  33   8
ENDBRANCH  28  33
ENDBRANCH  23  28
ENDBRANCH   6  23
ENDBRANCH  13   6
TORSDOF 8
ENDMDL
MODEL 9
REMARK VINA RESULT:      -6.7     28.333     31.172
REMARK  Name = 44716462
REMARK  9 active torsions:
REMARK  status: ('A' for Active; 'I' for Inactive)
REMARK    1  A    between atoms: O_3  and  C_22
REMARK    2  A    between atoms: O_3  and  C_35
REMARK    3  A    between atoms: N_6  and  C_13
REMARK    4  A    between atoms: N_6  and  C_23
REMARK    5  A    between atoms: N_8  and  C_33
REMARK    6  A    between atoms: C_11  and  C_19
REMARK    7  A    between atoms: C_15  and  C_22
REMARK    8  A    between atoms: C_23  and  C_28
REMARK    9  A    between atoms: C_28  and  C_33
REMARK                            x       y       z     vdW  Elec       q    Type
REMARK                         _______ _______ _______ _____ _____    ______ ____
ROOT
ATOM      5  N   UNL     1      -7.924  -9.679  15.048  0.00  0.00    -0.274 NA
ATOM      7  N   UNL     1      -4.407 -10.642  14.146  0.00  0.00    -0.356 N 
ATOM     10  C   UNL     1      -6.697 -10.501  15.282  0.00  0.00    +0.106 C 
ATOM     11  C   UNL     1      -8.936  -9.874  16.117  0.00  0.00    +0.090 C 
ATOM     12  C   UNL     1      -6.066 -10.161  16.642  0.00  0.00    +0.044 C 
ATOM     13  C   UNL     1      -7.068 -10.397  17.772  0.00  0.00    +0.057 C 
ATOM     14  C   UNL     1      -8.334  -9.581  17.513  0.00  0.00    +0.042 C 
ATOM     15  C   UNL     1      -8.449  -9.804  13.661  0.00  0.00    +0.172 C 
ATOM     16  C   UNL     1      -5.729 -10.294  14.157  0.00  0.00    +0.038 A 
ATOM     17  C   UNL     1      -7.429  -9.332  12.594  0.00  0.00    +0.068 C 
ATOM     18  C   UNL     1      -6.046  -9.781  12.918  0.00  0.00    -0.016 A 
ATOM     20  C   UNL     1      -4.863  -9.782  12.130  0.00  0.00    +0.003 A 
ATOM     21  C   UNL     1      -3.850 -10.326  12.926  0.00  0.00    +0.047 A 
ATOM     26  C   UNL     1      -4.551  -9.378  10.817  0.00  0.00    +0.010 A 
ATOM     27  C   UNL     1      -2.536 -10.484  12.468  0.00  0.00    +0.026 A 
ATOM     29  C   UNL     1      -3.241  -9.528  10.349  0.00  0.00    +0.001 A 
ATOM     32  C   UNL     1      -2.251 -10.073  11.163  0.00  0.00    +0.002 A 
ATOM     40  H   UNL     1      -3.905 -11.065  14.914  0.00  0.00    +0.166 HD
ENDROOT
BRANCH  11  19
ATOM      1 CL   UNL     1     -13.872  -6.452  15.501  0.00  0.00    -0.081 Cl
ATOM      2  F   UNL     1     -11.165  -5.522  16.272  0.00  0.00    -0.204 F 
ATOM     19  C   UNL     1     -10.183  -9.007  15.961  0.00  0.00    -0.027 A 
ATOM     24  C   UNL     1     -10.110  -7.633  16.190  0.00  0.00    +0.045 A 
ATOM     25  C   UNL     1     -11.395  -9.589  15.589  0.00  0.00    +0.007 A 
ATOM     30  C   UNL     1     -11.250  -6.841  16.047  0.00  0.00    +0.142 A 
ATOM     31  C   UNL     1     -12.534  -8.798  15.445  0.00  0.00    +0.023 A 
ATOM     34  C   UNL     1     -12.462  -7.423  15.675  0.00  0.00    +0.076 A 
ENDBRANCH  11  19
BRANCH  15  22
ATOM      4  O   UNL     1      -8.241 -12.206  13.691  0.00  0.00    -0.249 OA
ATOM     22  C   UNL     1      -8.892 -11.214  13.392  0.00  0.00    +0.325 C 
BRANCH  22   3
ATOM      3  O   UNL     1     -10.108 -11.201  12.777  0.00  0.00    -0.467 OA
ATOM     35  C   UNL     1     -10.458 -12.400  12.077  0.00  0.00    +0.280 C 
ENDBRANCH  22   3
ENDBRANCH  15  22
BRANCH  13   6
ATOM      6  N   UNL     1      -6.471 -10.040  19.057  0.00  0.00    -0.313 NA
ATOM     39  H   UNL     1      -5.517  -9.709  18.912  0.00  0.00    +0.122 HD
BRANCH   6  23
ATOM     23  C   UNL     1      -6.438 -11.190  19.947  0.00  0.00    +0.083 C 
BRANCH  23  28
ATOM     28  C   UNL     1      -7.015 -12.419  19.247  0.00  0.00    +0.037 C 
BRANCH  28  33
ATOM     33  C   UNL     1      -8.221 -12.972  20.011  0.00  0.00    +0.124 C 
BRANCH  33   8
ATOM      8  N   UNL     1      -9.514 -12.371  19.521  0.00  0.00    -0.337 N 
ATOM      9  N   UNL     1     -11.298 -12.029  18.243  0.00  0.00    -0.244 NA
ATOM     36  C   UNL     1     -10.210 -11.355  20.114  0.00  0.00    +0.106 A 
ATOM     37  C   UNL     1     -10.206 -12.743  18.402  0.00  0.00    +0.199 A 
ATOM     38  C   UNL     1     -11.307 -11.161  19.306  0.00  0.00    +0.130 A 
ENDBRANCH  33   8
ENDBRANCH  28  33
ENDBRANCH  23  28
ENDBRANCH   6  23
ENDBRANCH  13   6
TORSDOF 8
ENDMDL
MODEL 10
REMARK VINA RESULT:      -6.6     13.986     17.509
REMARK  Name = 44716462
REMARK  9 active torsions:
REMARK  status: ('A' for Active; 'I' for Inactive)
REMARK    1  A    between atoms: O_3  and  C_22
REMARK    2  A    between atoms: O_3  and  C_35
REMARK    3  A    between atoms: N_6  and  C_13
REMARK    4  A    between atoms: N_6  and  C_23
REMARK    5  A    between atoms: N_8  and  C_33
REMARK    6  A    between atoms: C_11  and  C_19
REMARK    7  A    between atoms: C_15  and  C_22
REMARK    8  A    between atoms: C_23  and  C_28
REMARK    9  A    between atoms: C_28  and  C_33
REMARK                            x       y       z     vdW  Elec       q    Type
REMARK                         _______ _______ _______ _____ _____    ______ ____
ROOT
ATOM      5  N   UNL     1      12.824   7.235   5.095  0.00  0.00    -0.274 NA
ATOM      7  N   UNL     1      15.897   7.983   3.070  0.00  0.00    -0.356 N 
ATOM     10  C   UNL     1      13.472   7.622   3.805  0.00  0.00    +0.106 C 
ATOM     11  C   UNL     1      11.366   7.001   4.937  0.00  0.00    +0.090 C 
ATOM     12  C   UNL     1      13.248   6.540   2.736  0.00  0.00    +0.044 C 
ATOM     13  C   UNL     1      11.754   6.309   2.514  0.00  0.00    +0.057 C 
ATOM     14  C   UNL     1      11.089   5.943   3.840  0.00  0.00    +0.042 C 
ATOM     15  C   UNL     1      13.193   8.134   6.222  0.00  0.00    +0.172 C 
ATOM     16  C   UNL     1      14.930   7.883   4.031  0.00  0.00    +0.038 A 
ATOM     17  C   UNL     1      14.715   8.132   6.510  0.00  0.00    +0.068 C 
ATOM     18  C   UNL     1      15.514   8.136   5.253  0.00  0.00    -0.016 A 
ATOM     20  C   UNL     1      16.899   8.365   5.035  0.00  0.00    +0.003 A 
ATOM     21  C   UNL     1      17.113   8.261   3.657  0.00  0.00    +0.047 A 
ATOM     26  C   UNL     1      17.996   8.653   5.872  0.00  0.00    +0.010 A 
ATOM     27  C   UNL     1      18.375   8.433   3.076  0.00  0.00    +0.026 A 
ATOM     29  C   UNL     1      19.263   8.824   5.303  0.00  0.00    +0.001 A 
ATOM     32  C   UNL     1      19.447   8.716   3.926  0.00  0.00    +0.002 A 
ATOM     40  H   UNL     1      15.753   7.868   2.076  0.00  0.00    +0.166 HD
ENDROOT
BRANCH  11  19
ATOM      1 CL   UNL     1       8.604   5.163   9.982  0.00  0.00    -0.081 Cl
ATOM      2  F   UNL     1       8.475   7.873   8.786  0.00  0.00    -0.204 F 
ATOM     19  C   UNL     1      10.667   6.538   6.212  0.00  0.00    -0.027 A 
ATOM     24  C   UNL     1       9.873   7.428   6.936  0.00  0.00    +0.045 A 
ATOM     25  C   UNL     1      10.820   5.224   6.654  0.00  0.00    +0.007 A 
ATOM     30  C   UNL     1       9.234   7.005   8.101  0.00  0.00    +0.142 A 
ATOM     31  C   UNL     1      10.181   4.800   7.819  0.00  0.00    +0.023 A 
ATOM     34  C   UNL     1       9.388   5.691   8.543  0.00  0.00    +0.076 A 
ENDBRANCH  11  19
BRANCH  15  22
ATOM      4  O   UNL     1      11.768   9.799   5.216  0.00  0.00    -0.249 OA
ATOM     22  C   UNL     1      12.698   9.529   5.965  0.00  0.00    +0.325 C 
BRANCH  22   3
ATOM      3  O   UNL     1      13.438  10.416   6.688  0.00  0.00    -0.467 OA
ATOM     35  C   UNL     1      12.741  11.589   7.123  0.00  0.00    +0.280 C 
ENDBRANCH  22   3
ENDBRANCH  15  22
BRANCH  13   6
ATOM      6  N   UNL     1      11.551   5.255   1.521  0.00  0.00    -0.313 NA
ATOM     39  H   UNL     1      10.625   5.351   1.103  0.00  0.00    +0.122 HD
BRANCH   6  23
ATOM     23  C   UNL     1      11.652   3.940   2.137  0.00  0.00    +0.083 C 
BRANCH  23  28
ATOM     28  C   UNL     1      12.858   3.186   1.580  0.00  0.00    +0.037 C 
BRANCH  28  33
ATOM     33  C   UNL     1      12.918   3.293   0.054  0.00  0.00    +0.124 C 
BRANCH  33   8
ATOM      8  N   UNL     1      14.250   3.819  -0.416  0.00  0.00    -0.337 N 
ATOM      9  N   UNL     1      15.801   4.638  -1.779  0.00  0.00    -0.244 NA
ATOM     36  C   UNL     1      15.375   3.971   0.345  0.00  0.00    +0.106 A 
ATOM     37  C   UNL     1      14.554   4.234  -1.683  0.00  0.00    +0.199 A 
ATOM     38  C   UNL     1      16.318   4.477  -0.518  0.00  0.00    +0.130 A 
ENDBRANCH  33   8
ENDBRANCH  28  33
ENDBRANCH  23  28
ENDBRANCH   6  23
ENDBRANCH  13   6
TORSDOF 8
ENDMDL
