REMARK  Name = 75367066
REMARK  6 active torsions:
REMARK  status: ('A' for Active; 'I' for Inactive)
REMARK    1  A    between atoms: O_2  and  C_8
REMARK    2  A    between atoms: N_4  and  C_7
REMARK    3  A    between atoms: N_4  and  C_11
REMARK    4  A    between atoms: N_5  and  C_15
REMARK    5  A    between atoms: C_9  and  C_15
REMARK    6  A    between atoms: C_10  and  C_18
REMARK                            x       y       z     vdW  Elec       q    Type
REMARK                         _______ _______ _______ _____ _____    ______ ____
ROOT
ATOM      1  O   UNL     1       1.216   0.905  -1.412  0.00  0.00    -0.371 OA
ATOM      7  C   UNL     1      -0.751   0.824  -0.084  0.00  0.00    +0.111 C 
ATOM      8  C   UNL     1       0.377   1.418   0.739  0.00  0.00    +0.164 C 
ATOM      9  C   UNL     1       1.330   1.875  -0.357  0.00  0.00    +0.165 C 
ATOM     14  C   UNL     1       0.019   0.136  -1.199  0.00  0.00    +0.181 C 
ENDROOT
BRANCH   8   2
ATOM      2  O   UNL     1      -0.049   2.495   1.551  0.00  0.00    -0.388 OA
ATOM     24  H   UNL     1      -0.459   3.166   0.979  0.00  0.00    +0.210 HD
ENDBRANCH   8   2
BRANCH   7   4
ATOM      4  N   UNL     1      -1.601  -0.089   0.663  0.00  0.00    -0.306 NA
ATOM     21  H   UNL     1      -1.813   0.301   1.581  0.00  0.00    +0.123 HD
BRANCH   4  11
ATOM      6  N   UNL     1      -5.746  -0.750  -0.034  0.00  0.00    -0.316 NA
ATOM     11  C   UNL     1      -2.842  -0.352  -0.061  0.00  0.00    +0.056 C 
ATOM     16  C   UNL     1      -3.825   0.815   0.091  0.00  0.00    +0.034 C 
ATOM     17  C   UNL     1      -3.484  -1.651   0.440  0.00  0.00    +0.034 C 
ATOM     19  C   UNL     1      -5.166   0.486  -0.566  0.00  0.00    +0.082 C 
ATOM     20  C   UNL     1      -4.838  -1.883  -0.231  0.00  0.00    +0.082 C 
ATOM     23  H   UNL     1      -6.628  -0.939  -0.508  0.00  0.00    +0.122 HD
ENDBRANCH   4  11
ENDBRANCH   7   4
BRANCH   9  15
ATOM     15  C   UNL     1       2.774   1.966   0.103  0.00  0.00    +0.138 C 
BRANCH  15   5
ATOM      3  O   UNL     1       4.081  -0.107  -1.462  0.00  0.00    -0.276 OA
ATOM      5  N   UNL     1       3.256   0.695   0.564  0.00  0.00    -0.313 N 
ATOM     18  C   UNL     1       3.871  -0.235  -0.262  0.00  0.00    +0.216 C 
ATOM     22  H   UNL     1       3.151   0.480   1.551  0.00  0.00    +0.149 HD
BRANCH  18  10
ATOM     10  C   UNL     1       4.295  -1.488   0.430  0.00  0.00    +0.075 C 
ATOM     12  C   UNL     1       3.810  -2.795  -0.104  0.00  0.00    +0.013 C 
ATOM     13  C   UNL     1       3.272  -2.263   1.191  0.00  0.00    +0.013 C 
ENDBRANCH  18  10
ENDBRANCH  15   5
ENDBRANCH   9  15
TORSDOF 6
