MODEL 1
REMARK VINA RESULT:      -6.7      0.000      0.000
REMARK  Name = 56775480
REMARK  6 active torsions:
REMARK  status: ('A' for Active; 'I' for Inactive)
REMARK    1  A    between atoms: N_4  and  C_6
REMARK    2  A    between atoms: N_4  and  C_8
REMARK    3  A    between atoms: C_6  and  C_13
REMARK    4  A    between atoms: C_7  and  C_8
REMARK    5  A    between atoms: C_13  and  C_17
REMARK    6  A    between atoms: C_19  and  C_20
REMARK                            x       y       z     vdW  Elec       q    Type
REMARK                         _______ _______ _______ _____ _____    ______ ____
ROOT
ATOM      2  O   UNL     1      13.793   8.649  16.465  0.00  0.00    -0.376 OA
ATOM      6  C   UNL     1      13.880   8.021  18.503  0.00  0.00    +0.072 C 
ATOM     11  C   UNL     1      14.014   7.382  17.126  0.00  0.00    +0.184 C 
ATOM     12  C   UNL     1      13.749   9.333  17.738  0.00  0.00    +0.184 C 
ENDROOT
BRANCH   6   4
ATOM      4  N   UNL     1      15.188   7.990  19.169  0.00  0.00    -0.306 NA
ATOM     26  H   UNL     1      15.959   8.387  18.633  0.00  0.00    +0.123 HD
BRANCH   4   8
ATOM      8  C   UNL     1      15.503   6.624  19.557  0.00  0.00    +0.085 C 
BRANCH   8   7
ATOM      7  C   UNL     1      16.776   6.578  20.399  0.00  0.00    +0.003 C 
ATOM      9  C   UNL     1      17.224   7.995  20.782  0.00  0.00    +0.005 C 
ATOM     10  C   UNL     1      17.892   5.834  19.655  0.00  0.00    +0.005 C 
ATOM     14  C   UNL     1      18.525   7.978  21.581  0.00  0.00    +0.000 C 
ATOM     15  C   UNL     1      19.193   5.821  20.456  0.00  0.00    +0.000 C 
ATOM     16  C   UNL     1      19.631   7.230  20.841  0.00  0.00    +0.000 C 
ENDBRANCH   8   7
ENDBRANCH   4   8
ENDBRANCH   6   4
BRANCH   6  13
ATOM     13  C   UNL     1      12.759   7.590  19.398  0.00  0.00    +0.085 C 
BRANCH  13  17
ATOM      3  O   UNL     1      12.920   9.502  22.461  0.00  0.00    -0.354 OA
ATOM      5  N   UNL     1      13.346   8.473  21.629  0.00  0.00    -0.083 NA
ATOM     17  C   UNL     1      12.576   8.568  20.541  0.00  0.00    +0.086 A 
ATOM     18  C   UNL     1      11.657   9.627  20.628  0.00  0.00    +0.076 A 
ATOM     19  C   UNL     1      11.915  10.182  21.853  0.00  0.00    +0.167 A 
BRANCH  19  20
ATOM      1  F   UNL     1       9.800  14.449  24.731  0.00  0.00    -0.205 F 
ATOM     20  C   UNL     1      11.371  11.282  22.595  0.00  0.00    +0.020 A 
ATOM     21  C   UNL     1      11.086  11.135  23.952  0.00  0.00    +0.014 A 
ATOM     22  C   UNL     1      11.124  12.499  21.959  0.00  0.00    +0.014 A 
ATOM     23  C   UNL     1      10.556  12.205  24.674  0.00  0.00    +0.039 A 
ATOM     24  C   UNL     1      10.594  13.569  22.680  0.00  0.00    +0.039 A 
ATOM     25  C   UNL     1      10.310  13.421  24.038  0.00  0.00    +0.123 A 
ENDBRANCH  19  20
ENDBRANCH  13  17
ENDBRANCH   6  13
TORSDOF 6
ENDMDL
MODEL 2
REMARK VINA RESULT:      -6.4      4.041      7.558
REMARK  Name = 56775480
REMARK  6 active torsions:
REMARK  status: ('A' for Active; 'I' for Inactive)
REMARK    1  A    between atoms: N_4  and  C_6
REMARK    2  A    between atoms: N_4  and  C_8
REMARK    3  A    between atoms: C_6  and  C_13
REMARK    4  A    between atoms: C_7  and  C_8
REMARK    5  A    between atoms: C_13  and  C_17
REMARK    6  A    between atoms: C_19  and  C_20
REMARK                            x       y       z     vdW  Elec       q    Type
REMARK                         _______ _______ _______ _____ _____    ______ ____
ROOT
ATOM      2  O   UNL     1      11.069   7.924  22.458  0.00  0.00    -0.376 OA
ATOM      6  C   UNL     1      12.133   7.930  20.608  0.00  0.00    +0.072 C 
ATOM     11  C   UNL     1      10.737   7.565  21.098  0.00  0.00    +0.184 C 
ATOM     12  C   UNL     1      12.378   8.377  22.046  0.00  0.00    +0.184 C 
ENDROOT
BRANCH   6   4
ATOM      4  N   UNL     1      12.039   9.121  19.754  0.00  0.00    -0.306 NA
ATOM     26  H   UNL     1      11.386   9.835  20.073  0.00  0.00    +0.123 HD
BRANCH   4   8
ATOM      8  C   UNL     1      11.712   8.717  18.395  0.00  0.00    +0.085 C 
BRANCH   8   7
ATOM      7  C   UNL     1      12.475   9.563  17.378  0.00  0.00    +0.003 C 
ATOM      9  C   UNL     1      13.497   8.707  16.619  0.00  0.00    +0.005 C 
ATOM     10  C   UNL     1      13.161  10.751  18.065  0.00  0.00    +0.005 C 
ATOM     14  C   UNL     1      14.310   9.541  15.632  0.00  0.00    +0.000 C 
ATOM     15  C   UNL     1      13.974  11.582  17.076  0.00  0.00    +0.000 C 
ATOM     16  C   UNL     1      14.983  10.726  16.318  0.00  0.00    +0.000 C 
ENDBRANCH   8   7
ENDBRANCH   4   8
ENDBRANCH   6   4
BRANCH   6  13
ATOM     13  C   UNL     1      13.003   6.860  20.025  0.00  0.00    +0.085 C 
BRANCH  13  17
ATOM      3  O   UNL     1      16.240   8.457  20.188  0.00  0.00    -0.354 OA
ATOM      5  N   UNL     1      14.865   8.482  19.988  0.00  0.00    -0.083 NA
ATOM     17  C   UNL     1      14.468   7.219  20.166  0.00  0.00    +0.086 A 
ATOM     18  C   UNL     1      15.537   6.361  20.478  0.00  0.00    +0.076 A 
ATOM     19  C   UNL     1      16.628   7.189  20.479  0.00  0.00    +0.167 A 
BRANCH  19  20
ATOM      1  F   UNL     1      22.072   6.483  21.387  0.00  0.00    -0.205 F 
ATOM     20  C   UNL     1      18.031   7.007  20.714  0.00  0.00    +0.020 A 
ATOM     21  C   UNL     1      18.763   7.997  21.368  0.00  0.00    +0.014 A 
ATOM     22  C   UNL     1      18.664   5.839  20.286  0.00  0.00    +0.014 A 
ATOM     23  C   UNL     1      20.128   7.821  21.596  0.00  0.00    +0.039 A 
ATOM     24  C   UNL     1      20.028   5.663  20.514  0.00  0.00    +0.039 A 
ATOM     25  C   UNL     1      20.761   6.654  21.169  0.00  0.00    +0.123 A 
ENDBRANCH  19  20
ENDBRANCH  13  17
ENDBRANCH   6  13
TORSDOF 6
ENDMDL
MODEL 3
REMARK VINA RESULT:      -6.4      3.491      8.096
REMARK  Name = 56775480
REMARK  6 active torsions:
REMARK  status: ('A' for Active; 'I' for Inactive)
REMARK    1  A    between atoms: N_4  and  C_6
REMARK    2  A    between atoms: N_4  and  C_8
REMARK    3  A    between atoms: C_6  and  C_13
REMARK    4  A    between atoms: C_7  and  C_8
REMARK    5  A    between atoms: C_13  and  C_17
REMARK    6  A    between atoms: C_19  and  C_20
REMARK                            x       y       z     vdW  Elec       q    Type
REMARK                         _______ _______ _______ _____ _____    ______ ____
ROOT
ATOM      2  O   UNL     1      10.923   6.953  20.886  0.00  0.00    -0.376 OA
ATOM      6  C   UNL     1      12.471   8.423  20.916  0.00  0.00    +0.072 C 
ATOM     11  C   UNL     1      10.967   8.383  20.674  0.00  0.00    +0.184 C 
ATOM     12  C   UNL     1      12.330   6.935  21.219  0.00  0.00    +0.184 C 
ENDROOT
BRANCH   6   4
ATOM      4  N   UNL     1      12.729   9.138  22.172  0.00  0.00    -0.306 NA
ATOM     26  H   UNL     1      11.940   9.187  22.815  0.00  0.00    +0.123 HD
BRANCH   4   8
ATOM      8  C   UNL     1      13.216  10.477  21.876  0.00  0.00    +0.085 C 
BRANCH   8   7
ATOM      7  C   UNL     1      12.567  11.507  22.799  0.00  0.00    +0.003 C 
ATOM      9  C   UNL     1      13.471  11.801  24.003  0.00  0.00    +0.005 C 
ATOM     10  C   UNL     1      11.184  11.030  23.258  0.00  0.00    +0.005 C 
ATOM     14  C   UNL     1      12.821  12.790  24.968  0.00  0.00    +0.000 C 
ATOM     15  C   UNL     1      10.537  12.019  24.224  0.00  0.00    +0.000 C 
ATOM     16  C   UNL     1      11.442  12.315  25.416  0.00  0.00    +0.000 C 
ENDBRANCH   8   7
ENDBRANCH   4   8
ENDBRANCH   6   4
BRANCH   6  13
ATOM     13  C   UNL     1      13.376   8.852  19.802  0.00  0.00    +0.085 C 
BRANCH  13  17
ATOM      3  O   UNL     1      16.028   6.491  19.129  0.00  0.00    -0.354 OA
ATOM      5  N   UNL     1      14.781   7.048  18.869  0.00  0.00    -0.083 NA
ATOM     17  C   UNL     1      14.638   8.015  19.780  0.00  0.00    +0.086 A 
ATOM     18  C   UNL     1      15.751   8.114  20.633  0.00  0.00    +0.076 A 
ATOM     19  C   UNL     1      16.595   7.135  20.182  0.00  0.00    +0.167 A 
BRANCH  19  20
ATOM      1  F   UNL     1      21.640   5.328  21.677  0.00  0.00    -0.205 F 
ATOM     20  C   UNL     1      17.895   6.668  20.568  0.00  0.00    +0.020 A 
ATOM     21  C   UNL     1      18.535   7.224  21.675  0.00  0.00    +0.014 A 
ATOM     22  C   UNL     1      18.521   5.660  19.834  0.00  0.00    +0.014 A 
ATOM     23  C   UNL     1      19.800   6.772  22.050  0.00  0.00    +0.039 A 
ATOM     24  C   UNL     1      19.785   5.207  20.210  0.00  0.00    +0.039 A 
ATOM     25  C   UNL     1      20.425   5.763  21.318  0.00  0.00    +0.123 A 
ENDBRANCH  19  20
ENDBRANCH  13  17
ENDBRANCH   6  13
TORSDOF 6
ENDMDL
MODEL 4
REMARK VINA RESULT:      -6.2      3.715      5.946
REMARK  Name = 56775480
REMARK  6 active torsions:
REMARK  status: ('A' for Active; 'I' for Inactive)
REMARK    1  A    between atoms: N_4  and  C_6
REMARK    2  A    between atoms: N_4  and  C_8
REMARK    3  A    between atoms: C_6  and  C_13
REMARK    4  A    between atoms: C_7  and  C_8
REMARK    5  A    between atoms: C_13  and  C_17
REMARK    6  A    between atoms: C_19  and  C_20
REMARK                            x       y       z     vdW  Elec       q    Type
REMARK                         _______ _______ _______ _____ _____    ______ ____
ROOT
ATOM      2  O   UNL     1      10.562   7.775  21.273  0.00  0.00    -0.376 OA
ATOM      6  C   UNL     1      12.467   7.273  20.450  0.00  0.00    +0.072 C 
ATOM     11  C   UNL     1      11.551   8.490  20.498  0.00  0.00    +0.184 C 
ATOM     12  C   UNL     1      11.423   6.616  21.347  0.00  0.00    +0.184 C 
ENDROOT
BRANCH   6   4
ATOM      4  N   UNL     1      13.667   7.553  21.249  0.00  0.00    -0.306 NA
ATOM     26  H   UNL     1      14.009   8.512  21.200  0.00  0.00    +0.123 HD
BRANCH   4   8
ATOM      8  C   UNL     1      14.725   6.627  20.875  0.00  0.00    +0.085 C 
BRANCH   8   7
ATOM      7  C   UNL     1      16.051   7.363  20.692  0.00  0.00    +0.003 C 
ATOM      9  C   UNL     1      17.226   6.477  21.127  0.00  0.00    +0.005 C 
ATOM     10  C   UNL     1      16.049   8.686  21.468  0.00  0.00    +0.005 C 
ATOM     14  C   UNL     1      18.561   7.209  21.003  0.00  0.00    +0.000 C 
ATOM     15  C   UNL     1      17.385   9.415  21.344  0.00  0.00    +0.000 C 
ATOM     16  C   UNL     1      18.552   8.529  21.769  0.00  0.00    +0.000 C 
ENDBRANCH   8   7
ENDBRANCH   4   8
ENDBRANCH   6   4
BRANCH   6  13
ATOM     13  C   UNL     1      12.780   6.650  19.125  0.00  0.00    +0.085 C 
BRANCH  13  17
ATOM      3  O   UNL     1      12.634   8.866  16.274  0.00  0.00    -0.354 OA
ATOM      5  N   UNL     1      12.151   7.809  17.036  0.00  0.00    -0.083 NA
ATOM     17  C   UNL     1      12.996   7.713  18.067  0.00  0.00    +0.086 A 
ATOM     18  C   UNL     1      14.019   8.674  18.011  0.00  0.00    +0.076 A 
ATOM     19  C   UNL     1      13.746   9.373  16.865  0.00  0.00    +0.167 A 
BRANCH  19  20
ATOM      1  F   UNL     1      16.121  13.666  14.242  0.00  0.00    -0.205 F 
ATOM     20  C   UNL     1      14.360  10.480  16.190  0.00  0.00    +0.020 A 
ATOM     21  C   UNL     1      14.305  11.755  16.750  0.00  0.00    +0.014 A 
ATOM     22  C   UNL     1      15.008  10.280  14.971  0.00  0.00    +0.014 A 
ATOM     23  C   UNL     1      14.901  12.832  16.092  0.00  0.00    +0.039 A 
ATOM     24  C   UNL     1      15.604  11.356  14.313  0.00  0.00    +0.039 A 
ATOM     25  C   UNL     1      15.550  12.633  14.874  0.00  0.00    +0.123 A 
ENDBRANCH  19  20
ENDBRANCH  13  17
ENDBRANCH   6  13
TORSDOF 6
ENDMDL
MODEL 5
REMARK VINA RESULT:      -6.1     26.872     28.284
REMARK  Name = 56775480
REMARK  6 active torsions:
REMARK  status: ('A' for Active; 'I' for Inactive)
REMARK    1  A    between atoms: N_4  and  C_6
REMARK    2  A    between atoms: N_4  and  C_8
REMARK    3  A    between atoms: C_6  and  C_13
REMARK    4  A    between atoms: C_7  and  C_8
REMARK    5  A    between atoms: C_13  and  C_17
REMARK    6  A    between atoms: C_19  and  C_20
REMARK                            x       y       z     vdW  Elec       q    Type
REMARK                         _______ _______ _______ _____ _____    ______ ____
ROOT
ATOM      2  O   UNL     1      -2.223 -13.976  14.090  0.00  0.00    -0.376 OA
ATOM      6  C   UNL     1      -2.067 -11.971  13.376  0.00  0.00    +0.072 C 
ATOM     11  C   UNL     1      -1.121 -13.110  13.736  0.00  0.00    +0.184 C 
ATOM     12  C   UNL     1      -3.177 -12.972  13.677  0.00  0.00    +0.184 C 
ENDROOT
BRANCH   6   4
ATOM      4  N   UNL     1      -2.011 -11.749  11.926  0.00  0.00    -0.306 NA
ATOM     26  H   UNL     1      -1.145 -12.040  11.474  0.00  0.00    +0.123 HD
BRANCH   4   8
ATOM      8  C   UNL     1      -2.276 -10.348  11.639  0.00  0.00    +0.085 C 
BRANCH   8   7
ATOM      7  C   UNL     1      -3.576 -10.191  10.851  0.00  0.00    +0.003 C 
ATOM      9  C   UNL     1      -3.424  -9.118   9.765  0.00  0.00    +0.005 C 
ATOM     10  C   UNL     1      -4.743  -9.858  11.789  0.00  0.00    +0.005 C 
ATOM     14  C   UNL     1      -4.727  -8.905   8.997  0.00  0.00    +0.000 C 
ATOM     15  C   UNL     1      -6.043  -9.644  11.018  0.00  0.00    +0.000 C 
ATOM     16  C   UNL     1      -5.887  -8.583   9.934  0.00  0.00    +0.000 C 
ENDBRANCH   8   7
ENDBRANCH   4   8
ENDBRANCH   6   4
BRANCH   6  13
ATOM     13  C   UNL     1      -2.005 -10.699  14.164  0.00  0.00    +0.085 C 
BRANCH  13  17
ATOM      3  O   UNL     1      -3.360 -11.074  17.494  0.00  0.00    -0.354 OA
ATOM      5  N   UNL     1      -2.305 -11.061  16.589  0.00  0.00    -0.083 NA
ATOM     17  C   UNL     1      -2.867 -10.793  15.407  0.00  0.00    +0.086 A 
ATOM     18  C   UNL     1      -4.259 -10.627  15.502  0.00  0.00    +0.076 A 
ATOM     19  C   UNL     1      -4.518 -10.814  16.834  0.00  0.00    +0.167 A 
BRANCH  19  20
ATOM      1  F   UNL     1      -9.114 -10.735  19.969  0.00  0.00    -0.205 F 
ATOM     20  C   UNL     1      -5.703 -10.792  17.643  0.00  0.00    +0.020 A 
ATOM     21  C   UNL     1      -5.638 -11.170  18.984  0.00  0.00    +0.014 A 
ATOM     22  C   UNL     1      -6.919 -10.397  17.087  0.00  0.00    +0.014 A 
ATOM     23  C   UNL     1      -6.790 -11.149  19.770  0.00  0.00    +0.039 A 
ATOM     24  C   UNL     1      -8.071 -10.377  17.873  0.00  0.00    +0.039 A 
ATOM     25  C   UNL     1      -8.007 -10.753  19.215  0.00  0.00    +0.123 A 
ENDBRANCH  19  20
ENDBRANCH  13  17
ENDBRANCH   6  13
TORSDOF 6
ENDMDL
MODEL 6
REMARK VINA RESULT:      -6.0     28.735     30.391
REMARK  Name = 56775480
REMARK  6 active torsions:
REMARK  status: ('A' for Active; 'I' for Inactive)
REMARK    1  A    between atoms: N_4  and  C_6
REMARK    2  A    between atoms: N_4  and  C_8
REMARK    3  A    between atoms: C_6  and  C_13
REMARK    4  A    between atoms: C_7  and  C_8
REMARK    5  A    between atoms: C_13  and  C_17
REMARK    6  A    between atoms: C_19  and  C_20
REMARK                            x       y       z     vdW  Elec       q    Type
REMARK                         _______ _______ _______ _____ _____    ______ ____
ROOT
ATOM      2  O   UNL     1     -11.819 -10.493  18.139  0.00  0.00    -0.376 OA
ATOM      6  C   UNL     1     -10.203  -9.579  17.086  0.00  0.00    +0.072 C 
ATOM     11  C   UNL     1     -11.473  -9.131  17.799  0.00  0.00    +0.184 C 
ATOM     12  C   UNL     1     -10.585 -10.976  17.562  0.00  0.00    +0.184 C 
ENDROOT
BRANCH   6   4
ATOM      4  N   UNL     1      -9.040  -9.119  17.856  0.00  0.00    -0.306 NA
ATOM     26  H   UNL     1      -9.102  -8.165  18.209  0.00  0.00    +0.123 HD
BRANCH   4   8
ATOM      8  C   UNL     1      -7.836  -9.277  17.056  0.00  0.00    +0.085 C 
BRANCH   8   7
ATOM      7  C   UNL     1      -6.679  -9.791  17.911  0.00  0.00    +0.003 C 
ATOM      9  C   UNL     1      -5.650 -10.528  17.043  0.00  0.00    +0.005 C 
ATOM     10  C   UNL     1      -7.196 -10.698  19.034  0.00  0.00    +0.005 C 
ATOM     14  C   UNL     1      -4.509 -11.097  17.883  0.00  0.00    +0.000 C 
ATOM     15  C   UNL     1      -6.053 -11.267  19.871  0.00  0.00    +0.000 C 
ATOM     16  C   UNL     1      -5.028 -11.992  19.005  0.00  0.00    +0.000 C 
ENDBRANCH   8   7
ENDBRANCH   4   8
ENDBRANCH   6   4
BRANCH   6  13
ATOM     13  C   UNL     1     -10.067  -9.327  15.616  0.00  0.00    +0.085 C 
BRANCH  13  17
ATOM      3  O   UNL     1     -10.922  -5.838  15.212  0.00  0.00    -0.354 OA
ATOM      5  N   UNL     1     -10.151  -6.862  15.752  0.00  0.00    -0.083 NA
ATOM     17  C   UNL     1     -10.664  -7.985  15.242  0.00  0.00    +0.086 A 
ATOM     18  C   UNL     1     -11.747  -7.736  14.382  0.00  0.00    +0.076 A 
ATOM     19  C   UNL     1     -11.868  -6.372  14.398  0.00  0.00    +0.167 A 
BRANCH  19  20
ATOM      1  F   UNL     1     -15.264  -2.722  11.927  0.00  0.00    -0.205 F 
ATOM     20  C   UNL     1     -12.744  -5.430  13.762  0.00  0.00    +0.020 A 
ATOM     21  C   UNL     1     -14.125  -5.552  13.911  0.00  0.00    +0.014 A 
ATOM     22  C   UNL     1     -12.213  -4.394  12.993  0.00  0.00    +0.014 A 
ATOM     23  C   UNL     1     -14.976  -4.637  13.292  0.00  0.00    +0.039 A 
ATOM     24  C   UNL     1     -13.065  -3.480  12.374  0.00  0.00    +0.039 A 
ATOM     25  C   UNL     1     -14.447  -3.601  12.523  0.00  0.00    +0.123 A 
ENDBRANCH  19  20
ENDBRANCH  13  17
ENDBRANCH   6  13
TORSDOF 6
ENDMDL
MODEL 7
REMARK VINA RESULT:      -5.9     16.093     19.520
REMARK  Name = 56775480
REMARK  6 active torsions:
REMARK  status: ('A' for Active; 'I' for Inactive)
REMARK    1  A    between atoms: N_4  and  C_6
REMARK    2  A    between atoms: N_4  and  C_8
REMARK    3  A    between atoms: C_6  and  C_13
REMARK    4  A    between atoms: C_7  and  C_8
REMARK    5  A    between atoms: C_13  and  C_17
REMARK    6  A    between atoms: C_19  and  C_20
REMARK                            x       y       z     vdW  Elec       q    Type
REMARK                         _______ _______ _______ _____ _____    ______ ____
ROOT
ATOM      2  O   UNL     1      13.069   8.041   1.217  0.00  0.00    -0.376 OA
ATOM      6  C   UNL     1      11.747   6.366   1.158  0.00  0.00    +0.072 C 
ATOM     11  C   UNL     1      12.149   7.511   0.236  0.00  0.00    +0.184 C 
ATOM     12  C   UNL     1      12.805   6.929   2.102  0.00  0.00    +0.184 C 
ENDROOT
BRANCH   6   4
ATOM      4  N   UNL     1      12.243   5.105   0.591  0.00  0.00    -0.306 NA
ATOM     26  H   UNL     1      13.063   5.190  -0.008  0.00  0.00    +0.123 HD
BRANCH   4   8
ATOM      8  C   UNL     1      11.167   4.441  -0.127  0.00  0.00    +0.085 C 
BRANCH   8   7
ATOM      7  C   UNL     1      11.521   4.275  -1.604  0.00  0.00    +0.003 C 
ATOM      9  C   UNL     1      10.287   4.504  -2.486  0.00  0.00    +0.005 C 
ATOM     10  C   UNL     1      12.129   2.890  -1.864  0.00  0.00    +0.005 C 
ATOM     14  C   UNL     1      10.604   4.292  -3.965  0.00  0.00    +0.000 C 
ATOM     15  C   UNL     1      12.443   2.681  -3.343  0.00  0.00    +0.000 C 
ATOM     16  C   UNL     1      11.216   2.918  -4.218  0.00  0.00    +0.000 C 
ENDBRANCH   8   7
ENDBRANCH   4   8
ENDBRANCH   6   4
BRANCH   6  13
ATOM     13  C   UNL     1      10.329   6.276   1.630  0.00  0.00    +0.085 C 
BRANCH  13  17
ATOM      3  O   UNL     1      10.492   4.243   4.614  0.00  0.00    -0.354 OA
ATOM      5  N   UNL     1      10.695   4.451   3.254  0.00  0.00    -0.083 NA
ATOM     17  C   UNL     1      10.262   5.695   3.028  0.00  0.00    +0.086 A 
ATOM     18  C   UNL     1       9.782   6.315   4.195  0.00  0.00    +0.076 A 
ATOM     19  C   UNL     1       9.949   5.360   5.162  0.00  0.00    +0.167 A 
BRANCH  19  20
ATOM      1  F   UNL     1       8.914   5.107  10.623  0.00  0.00    -0.205 F 
ATOM     20  C   UNL     1       9.684   5.295   6.570  0.00  0.00    +0.020 A 
ATOM     21  C   UNL     1       9.884   4.102   7.263  0.00  0.00    +0.014 A 
ATOM     22  C   UNL     1       9.222   6.425   7.245  0.00  0.00    +0.014 A 
ATOM     23  C   UNL     1       9.625   4.038   8.632  0.00  0.00    +0.039 A 
ATOM     24  C   UNL     1       8.963   6.362   8.615  0.00  0.00    +0.039 A 
ATOM     25  C   UNL     1       9.164   5.168   9.308  0.00  0.00    +0.123 A 
ENDBRANCH  19  20
ENDBRANCH  13  17
ENDBRANCH   6  13
TORSDOF 6
ENDMDL
MODEL 8
REMARK VINA RESULT:      -5.8     28.535     30.173
REMARK  Name = 56775480
REMARK  6 active torsions:
REMARK  status: ('A' for Active; 'I' for Inactive)
REMARK    1  A    between atoms: N_4  and  C_6
REMARK    2  A    between atoms: N_4  and  C_8
REMARK    3  A    between atoms: C_6  and  C_13
REMARK    4  A    between atoms: C_7  and  C_8
REMARK    5  A    between atoms: C_13  and  C_17
REMARK    6  A    between atoms: C_19  and  C_20
REMARK                            x       y       z     vdW  Elec       q    Type
REMARK                         _______ _______ _______ _____ _____    ______ ____
ROOT
ATOM      2  O   UNL     1      -8.648 -10.985  13.586  0.00  0.00    -0.376 OA
ATOM      6  C   UNL     1      -9.064  -9.773  15.293  0.00  0.00    +0.072 C 
ATOM     11  C   UNL     1      -8.742 -11.235  15.007  0.00  0.00    +0.184 C 
ATOM     12  C   UNL     1      -8.855  -9.570  13.796  0.00  0.00    +0.184 C 
ENDROOT
BRANCH   6   4
ATOM      4  N   UNL     1      -7.934  -9.171  16.014  0.00  0.00    -0.306 NA
ATOM     26  H   UNL     1      -7.014  -9.527  15.755  0.00  0.00    +0.123 HD
BRANCH   4   8
ATOM      8  C   UNL     1      -8.140  -9.317  17.446  0.00  0.00    +0.085 C 
BRANCH   8   7
ATOM      7  C   UNL     1      -6.862  -9.795  18.134  0.00  0.00    +0.003 C 
ATOM      9  C   UNL     1      -5.890 -10.396  17.111  0.00  0.00    +0.005 C 
ATOM     10  C   UNL     1      -7.187 -10.807  19.240  0.00  0.00    +0.005 C 
ATOM     14  C   UNL     1      -4.625 -10.929  17.781  0.00  0.00    +0.000 C 
ATOM     15  C   UNL     1      -5.921 -11.339  19.906  0.00  0.00    +0.000 C 
ATOM     16  C   UNL     1      -4.952 -11.929  18.886  0.00  0.00    +0.000 C 
ENDBRANCH   8   7
ENDBRANCH   4   8
ENDBRANCH   6   4
BRANCH   6  13
ATOM     13  C   UNL     1     -10.391  -9.424  15.894  0.00  0.00    +0.085 C 
BRANCH  13  17
ATOM      3  O   UNL     1     -10.875  -5.920  15.152  0.00  0.00    -0.354 OA
ATOM      5  N   UNL     1     -10.185  -6.967  15.752  0.00  0.00    -0.083 NA
ATOM     17  C   UNL     1     -10.861  -8.067  15.410  0.00  0.00    +0.086 A 
ATOM     18  C   UNL     1     -11.975  -7.781  14.602  0.00  0.00    +0.076 A 
ATOM     19  C   UNL     1     -11.939  -6.418  14.470  0.00  0.00    +0.167 A 
BRANCH  19  20
ATOM      1  F   UNL     1     -15.089  -2.660  11.843  0.00  0.00    -0.205 F 
ATOM     20  C   UNL     1     -12.751  -5.450  13.792  0.00  0.00    +0.020 A 
ATOM     21  C   UNL     1     -12.150  -4.431  13.054  0.00  0.00    +0.014 A 
ATOM     22  C   UNL     1     -14.141  -5.527  13.873  0.00  0.00    +0.014 A 
ATOM     23  C   UNL     1     -12.940  -3.488  12.395  0.00  0.00    +0.039 A 
ATOM     24  C   UNL     1     -14.931  -4.585  13.214  0.00  0.00    +0.039 A 
ATOM     25  C   UNL     1     -14.330  -3.565  12.475  0.00  0.00    +0.123 A 
ENDBRANCH  19  20
ENDBRANCH  13  17
ENDBRANCH   6  13
TORSDOF 6
ENDMDL
MODEL 9
REMARK VINA RESULT:      -5.7     17.776     21.884
REMARK  Name = 56775480
REMARK  6 active torsions:
REMARK  status: ('A' for Active; 'I' for Inactive)
REMARK    1  A    between atoms: N_4  and  C_6
REMARK    2  A    between atoms: N_4  and  C_8
REMARK    3  A    between atoms: C_6  and  C_13
REMARK    4  A    between atoms: C_7  and  C_8
REMARK    5  A    between atoms: C_13  and  C_17
REMARK    6  A    between atoms: C_19  and  C_20
REMARK                            x       y       z     vdW  Elec       q    Type
REMARK                         _______ _______ _______ _____ _____    ______ ____
ROOT
ATOM      2  O   UNL     1      12.914   7.608   2.809  0.00  0.00    -0.376 OA
ATOM      6  C   UNL     1      11.658   5.882   2.854  0.00  0.00    +0.072 C 
ATOM     11  C   UNL     1      12.619   6.595   3.799  0.00  0.00    +0.184 C 
ATOM     12  C   UNL     1      11.947   7.036   1.900  0.00  0.00    +0.184 C 
ENDROOT
BRANCH   6   4
ATOM      4  N   UNL     1      10.291   6.028   3.371  0.00  0.00    -0.306 NA
ATOM     26  H   UNL     1      10.083   6.927   3.804  0.00  0.00    +0.123 HD
BRANCH   4   8
ATOM      8  C   UNL     1      10.008   4.948   4.303  0.00  0.00    +0.085 C 
BRANCH   8   7
ATOM      7  C   UNL     1       9.251   5.468   5.524  0.00  0.00    +0.003 C 
ATOM      9  C   UNL     1       8.925   6.959   5.365  0.00  0.00    +0.005 C 
ATOM     10  C   UNL     1      10.053   5.218   6.807  0.00  0.00    +0.005 C 
ATOM     14  C   UNL     1       8.213   7.515   6.596  0.00  0.00    +0.000 C 
ATOM     15  C   UNL     1       9.340   5.777   8.036  0.00  0.00    +0.000 C 
ATOM     16  C   UNL     1       9.010   7.257   7.871  0.00  0.00    +0.000 C 
ENDBRANCH   8   7
ENDBRANCH   4   8
ENDBRANCH   6   4
BRANCH   6  13
ATOM     13  C   UNL     1      11.971   4.485   2.417  0.00  0.00    +0.085 C 
BRANCH  13  17
ATOM      3  O   UNL     1      10.120   4.058  -0.657  0.00  0.00    -0.354 OA
ATOM      5  N   UNL     1      10.199   4.328   0.704  0.00  0.00    -0.083 NA
ATOM     17  C   UNL     1      11.500   4.246   0.998  0.00  0.00    +0.086 A 
ATOM     18  C   UNL     1      12.282   3.932  -0.127  0.00  0.00    +0.076 A 
ATOM     19  C   UNL     1      11.367   3.824  -1.140  0.00  0.00    +0.167 A 
BRANCH  19  20
ATOM      1  F   UNL     1      11.671   2.694  -6.579  0.00  0.00    -0.205 F 
ATOM     20  C   UNL     1      11.445   3.531  -2.542  0.00  0.00    +0.020 A 
ATOM     21  C   UNL     1      12.687   3.481  -3.175  0.00  0.00    +0.014 A 
ATOM     22  C   UNL     1      10.279   3.300  -3.272  0.00  0.00    +0.014 A 
ATOM     23  C   UNL     1      12.763   3.197  -4.539  0.00  0.00    +0.039 A 
ATOM     24  C   UNL     1      10.356   3.017  -4.636  0.00  0.00    +0.039 A 
ATOM     25  C   UNL     1      11.598   2.965  -5.269  0.00  0.00    +0.123 A 
ENDBRANCH  19  20
ENDBRANCH  13  17
ENDBRANCH   6  13
TORSDOF 6
ENDMDL
MODEL 10
REMARK VINA RESULT:      -5.7     27.345     29.383
REMARK  Name = 56775480
REMARK  6 active torsions:
REMARK  status: ('A' for Active; 'I' for Inactive)
REMARK    1  A    between atoms: N_4  and  C_6
REMARK    2  A    between atoms: N_4  and  C_8
REMARK    3  A    between atoms: C_6  and  C_13
REMARK    4  A    between atoms: C_7  and  C_8
REMARK    5  A    between atoms: C_13  and  C_17
REMARK    6  A    between atoms: C_19  and  C_20
REMARK                            x       y       z     vdW  Elec       q    Type
REMARK                         _______ _______ _______ _____ _____    ______ ____
ROOT
ATOM      2  O   UNL     1      -2.006 -13.935  13.267  0.00  0.00    -0.376 OA
ATOM      6  C   UNL     1      -2.433 -12.036  14.144  0.00  0.00    +0.072 C 
ATOM     11  C   UNL     1      -3.204 -13.144  13.435  0.00  0.00    +0.184 C 
ATOM     12  C   UNL     1      -1.233 -12.968  14.014  0.00  0.00    +0.184 C 
ENDROOT
BRANCH   6   4
ATOM      4  N   UNL     1      -2.849 -11.995  15.551  0.00  0.00    -0.306 NA
ATOM     26  H   UNL     1      -3.744 -12.438  15.754  0.00  0.00    +0.123 HD
BRANCH   4   8
ATOM      8  C   UNL     1      -2.858 -10.616  16.014  0.00  0.00    +0.085 C 
BRANCH   8   7
ATOM      7  C   UNL     1      -4.092 -10.339  16.871  0.00  0.00    +0.003 C 
ATOM      9  C   UNL     1      -4.405 -11.540  17.774  0.00  0.00    +0.005 C 
ATOM     10  C   UNL     1      -5.298  -9.988  15.991  0.00  0.00    +0.005 C 
ATOM     14  C   UNL     1      -5.666 -11.308  18.604  0.00  0.00    +0.000 C 
ATOM     15  C   UNL     1      -6.557  -9.759  16.823  0.00  0.00    +0.000 C 
ATOM     16  C   UNL     1      -6.861 -10.951  17.725  0.00  0.00    +0.000 C 
ENDBRANCH   8   7
ENDBRANCH   4   8
ENDBRANCH   6   4
BRANCH   6  13
ATOM     13  C   UNL     1      -2.367 -10.679  13.514  0.00  0.00    +0.085 C 
BRANCH  13  17
ATOM      3  O   UNL     1      -5.074 -10.234  11.161  0.00  0.00    -0.354 OA
ATOM      5  N   UNL     1      -4.537 -10.183  12.442  0.00  0.00    -0.083 NA
ATOM     17  C   UNL     1      -3.275 -10.602  12.304  0.00  0.00    +0.086 A 
ATOM     18  C   UNL     1      -2.963 -10.927  10.973  0.00  0.00    +0.076 A 
ATOM     19  C   UNL     1      -4.127 -10.679  10.295  0.00  0.00    +0.167 A 
BRANCH  19  20
ATOM      1  F   UNL     1      -5.715 -11.081   4.978  0.00  0.00    -0.205 F 
ATOM     20  C   UNL     1      -4.538 -10.783   8.925  0.00  0.00    +0.020 A 
ATOM     21  C   UNL     1      -4.259 -11.941   8.200  0.00  0.00    +0.014 A 
ATOM     22  C   UNL     1      -5.213  -9.725   8.317  0.00  0.00    +0.014 A 
ATOM     23  C   UNL     1      -4.657 -12.042   6.867  0.00  0.00    +0.039 A 
ATOM     24  C   UNL     1      -5.611  -9.826   6.984  0.00  0.00    +0.039 A 
ATOM     25  C   UNL     1      -5.333 -10.985   6.259  0.00  0.00    +0.123 A 
ENDBRANCH  19  20
ENDBRANCH  13  17
ENDBRANCH   6  13
TORSDOF 6
ENDMDL
