MODEL 1
REMARK VINA RESULT:      -7.9      0.000      0.000
REMARK  Name = 11911940
REMARK  6 active torsions:
REMARK  status: ('A' for Active; 'I' for Inactive)
REMARK    1  A    between atoms: N_4  and  C_10
REMARK    2  A    between atoms: N_5  and  C_11
REMARK    3  A    between atoms: C_14  and  C_17
REMARK    4  A    between atoms: C_17  and  C_21
REMARK    5  A    between atoms: C_23  and  C_24
REMARK    6  A    between atoms: C_29  and  C_30
REMARK                            x       y       z     vdW  Elec       q    Type
REMARK                         _______ _______ _______ _____ _____    ______ ____
ROOT
ATOM      1  O   UNL     1     -16.370   3.134  22.841  0.00  0.00    -0.370 OA
ATOM      2  O   UNL     1     -17.633   5.166  24.881  0.00  0.00    -0.370 OA
ATOM      8  C   UNL     1     -16.344   5.056  24.251  0.00  0.00    +0.175 C 
ATOM      9  C   UNL     1     -16.015   3.579  24.160  0.00  0.00    +0.171 C 
ATOM     10  C   UNL     1     -16.434   5.521  22.810  0.00  0.00    +0.166 C 
ATOM     11  C   UNL     1     -16.913   2.931  25.191  0.00  0.00    +0.130 C 
ATOM     12  C   UNL     1     -16.825   4.250  22.064  0.00  0.00    +0.190 C 
ATOM     13  C   UNL     1     -18.119   3.854  25.195  0.00  0.00    +0.185 C 
ENDROOT
BRANCH  10   4
ATOM      4  N   UNL     1     -15.197   6.156  22.346  0.00  0.00    -0.244 N 
ATOM      6  N   UNL     1     -15.032   7.485  22.448  0.00  0.00    -0.065 NA
ATOM      7  N   UNL     1     -13.833   7.771  21.950  0.00  0.00    -0.134 NA
ATOM     20  C   UNL     1     -14.115   5.556  21.783  0.00  0.00    +0.134 A 
ATOM     21  C   UNL     1     -13.284   6.601  21.549  0.00  0.00    +0.083 A 
BRANCH  21  17
ATOM     17  C   UNL     1     -11.919   6.579  20.935  0.00  0.00    +0.062 C 
BRANCH  17  14
ATOM     14  C   UNL     1     -11.754   7.645  19.854  0.00  0.00    -0.005 C 
ATOM     15  C   UNL     1     -10.842   8.778  20.343  0.00  0.00    +0.004 C 
ATOM     16  C   UNL     1     -11.207   7.023  18.560  0.00  0.00    +0.004 C 
ATOM     18  C   UNL     1     -10.618   9.828  19.259  0.00  0.00    +0.000 C 
ATOM     19  C   UNL     1     -10.982   8.077  17.480  0.00  0.00    +0.000 C 
ATOM     22  C   UNL     1     -10.082   9.206  17.973  0.00  0.00    +0.000 C 
ENDBRANCH  17  14
ENDBRANCH  21  17
ENDBRANCH  10   4
BRANCH  11   5
ATOM      3  O   UNL     1     -17.153   0.855  27.159  0.00  0.00    -0.270 OA
ATOM      5  N   UNL     1     -16.280   2.895  26.487  0.00  0.00    -0.304 N 
ATOM     23  C   UNL     1     -16.456   1.844  27.374  0.00  0.00    +0.244 C 
ATOM     31  H   UNL     1     -15.784   3.731  26.777  0.00  0.00    +0.149 HD
BRANCH  23  24
ATOM     24  C   UNL     1     -15.756   1.969  28.679  0.00  0.00    +0.037 A 
ATOM     25  C   UNL     1     -15.569   0.838  29.447  0.00  0.00    +0.013 A 
ATOM     26  C   UNL     1     -15.314   3.212  29.079  0.00  0.00    +0.013 A 
ATOM     27  C   UNL     1     -14.911   0.956  30.670  0.00  0.00    +0.004 A 
ATOM     28  C   UNL     1     -14.655   3.330  30.304  0.00  0.00    +0.004 A 
ATOM     29  C   UNL     1     -14.453   2.202  31.098  0.00  0.00    -0.050 A 
ATOM     30  C   UNL     1     -13.750   2.328  32.408  0.00  0.00    +0.044 C 
ENDBRANCH  23  24
ENDBRANCH  11   5
TORSDOF 5
ENDMDL
MODEL 2
REMARK VINA RESULT:      -7.7     28.870     32.182
REMARK  Name = 11911940
REMARK  6 active torsions:
REMARK  status: ('A' for Active; 'I' for Inactive)
REMARK    1  A    between atoms: N_4  and  C_10
REMARK    2  A    between atoms: N_5  and  C_11
REMARK    3  A    between atoms: C_14  and  C_17
REMARK    4  A    between atoms: C_17  and  C_21
REMARK    5  A    between atoms: C_23  and  C_24
REMARK    6  A    between atoms: C_29  and  C_30
REMARK                            x       y       z     vdW  Elec       q    Type
REMARK                         _______ _______ _______ _____ _____    ______ ____
ROOT
ATOM      1  O   UNL     1      13.245   7.411  17.124  0.00  0.00    -0.370 OA
ATOM      2  O   UNL     1      13.455   9.306  19.625  0.00  0.00    -0.370 OA
ATOM      8  C   UNL     1      14.097   9.278  18.337  0.00  0.00    +0.175 C 
ATOM      9  C   UNL     1      14.323   7.822  17.980  0.00  0.00    +0.171 C 
ATOM     10  C   UNL     1      13.143   9.792  17.276  0.00  0.00    +0.166 C 
ATOM     11  C   UNL     1      14.246   7.096  19.305  0.00  0.00    +0.130 C 
ATOM     12  C   UNL     1      12.396   8.534  16.848  0.00  0.00    +0.190 C 
ATOM     13  C   UNL     1      13.279   7.961  20.092  0.00  0.00    +0.185 C 
ENDROOT
BRANCH  10   4
ATOM      4  N   UNL     1      13.834  10.501  16.195  0.00  0.00    -0.244 N 
ATOM      6  N   UNL     1      13.304  10.552  14.962  0.00  0.00    -0.065 NA
ATOM      7  N   UNL     1      14.143  11.247  14.202  0.00  0.00    -0.134 NA
ATOM     20  C   UNL     1      15.023  11.159  16.258  0.00  0.00    +0.134 A 
ATOM     21  C   UNL     1      15.180  11.611  14.990  0.00  0.00    +0.083 A 
BRANCH  21  17
ATOM     17  C   UNL     1      16.311  12.415  14.429  0.00  0.00    +0.062 C 
BRANCH  17  14
ATOM     14  C   UNL     1      17.645  12.079  15.093  0.00  0.00    -0.005 C 
ATOM     15  C   UNL     1      18.718  11.785  14.036  0.00  0.00    +0.004 C 
ATOM     16  C   UNL     1      18.089  13.219  16.021  0.00  0.00    +0.004 C 
ATOM     18  C   UNL     1      20.074  11.500  14.675  0.00  0.00    +0.000 C 
ATOM     19  C   UNL     1      19.447  12.931  16.656  0.00  0.00    +0.000 C 
ATOM     22  C   UNL     1      20.509  12.630  15.603  0.00  0.00    +0.000 C 
ENDBRANCH  17  14
ENDBRANCH  21  17
ENDBRANCH  10   4
BRANCH  11   5
ATOM      3  O   UNL     1      16.544   5.629  18.407  0.00  0.00    -0.270 OA
ATOM      5  N   UNL     1      15.537   7.041  19.946  0.00  0.00    -0.304 N 
ATOM     23  C   UNL     1      16.593   6.300  19.434  0.00  0.00    +0.244 C 
ATOM     31  H   UNL     1      15.614   7.477  20.858  0.00  0.00    +0.149 HD
BRANCH  23  24
ATOM     24  C   UNL     1      17.850   6.326  20.226  0.00  0.00    +0.037 A 
ATOM     25  C   UNL     1      18.872   5.465  19.884  0.00  0.00    +0.013 A 
ATOM     26  C   UNL     1      17.955   7.211  21.279  0.00  0.00    +0.013 A 
ATOM     27  C   UNL     1      20.052   5.491  20.627  0.00  0.00    +0.004 A 
ATOM     28  C   UNL     1      19.135   7.237  22.023  0.00  0.00    +0.004 A 
ATOM     29  C   UNL     1      20.183   6.377  21.696  0.00  0.00    -0.050 A 
ATOM     30  C   UNL     1      21.444   6.403  22.491  0.00  0.00    +0.044 C 
ENDBRANCH  23  24
ENDBRANCH  11   5
TORSDOF 5
ENDMDL
MODEL 3
REMARK VINA RESULT:      -7.6      2.083      9.816
REMARK  Name = 11911940
REMARK  6 active torsions:
REMARK  status: ('A' for Active; 'I' for Inactive)
REMARK    1  A    between atoms: N_4  and  C_10
REMARK    2  A    between atoms: N_5  and  C_11
REMARK    3  A    between atoms: C_14  and  C_17
REMARK    4  A    between atoms: C_17  and  C_21
REMARK    5  A    between atoms: C_23  and  C_24
REMARK    6  A    between atoms: C_29  and  C_30
REMARK                            x       y       z     vdW  Elec       q    Type
REMARK                         _______ _______ _______ _____ _____    ______ ____
ROOT
ATOM      1  O   UNL     1     -18.033   3.749  26.497  0.00  0.00    -0.370 OA
ATOM      2  O   UNL     1     -16.583   1.780  24.519  0.00  0.00    -0.370 OA
ATOM      8  C   UNL     1     -16.196   2.428  25.744  0.00  0.00    +0.175 C 
ATOM      9  C   UNL     1     -16.817   3.812  25.735  0.00  0.00    +0.171 C 
ATOM     10  C   UNL     1     -16.839   1.725  26.924  0.00  0.00    +0.166 C 
ATOM     11  C   UNL     1     -17.124   4.074  24.277  0.00  0.00    +0.130 C 
ATOM     12  C   UNL     1     -18.181   2.437  27.057  0.00  0.00    +0.190 C 
ATOM     13  C   UNL     1     -17.394   2.677  23.747  0.00  0.00    +0.185 C 
ENDROOT
BRANCH  10   4
ATOM      4  N   UNL     1     -15.998   1.756  28.124  0.00  0.00    -0.244 N 
ATOM      6  N   UNL     1     -15.724   0.627  28.797  0.00  0.00    -0.065 NA
ATOM      7  N   UNL     1     -14.955   0.961  29.828  0.00  0.00    -0.134 NA
ATOM     20  C   UNL     1     -15.415   2.840  28.703  0.00  0.00    +0.134 A 
ATOM     21  C   UNL     1     -14.772   2.300  29.766  0.00  0.00    +0.083 A 
BRANCH  21  17
ATOM     17  C   UNL     1     -13.942   2.997  30.797  0.00  0.00    +0.062 C 
BRANCH  17  14
ATOM     14  C   UNL     1     -14.752   4.008  31.606  0.00  0.00    -0.005 C 
ATOM     15  C   UNL     1     -15.801   3.296  32.471  0.00  0.00    +0.004 C 
ATOM     16  C   UNL     1     -13.827   4.876  32.471  0.00  0.00    +0.004 C 
ATOM     18  C   UNL     1     -16.588   4.283  33.329  0.00  0.00    +0.000 C 
ATOM     19  C   UNL     1     -14.618   5.859  33.330  0.00  0.00    +0.000 C 
ATOM     22  C   UNL     1     -15.665   5.148  34.182  0.00  0.00    +0.000 C 
ENDBRANCH  17  14
ENDBRANCH  21  17
ENDBRANCH  10   4
BRANCH  11   5
ATOM      3  O   UNL     1     -17.216   5.754  21.951  0.00  0.00    -0.270 OA
ATOM      5  N   UNL     1     -15.999   4.678  23.606  0.00  0.00    -0.304 N 
ATOM     23  C   UNL     1     -16.144   5.479  22.483  0.00  0.00    +0.244 C 
ATOM     31  H   UNL     1     -15.076   4.401  23.921  0.00  0.00    +0.149 HD
BRANCH  23  24
ATOM     24  C   UNL     1     -14.885   6.005  21.893  0.00  0.00    +0.037 A 
ATOM     25  C   UNL     1     -13.703   5.342  22.144  0.00  0.00    +0.013 A 
ATOM     26  C   UNL     1     -14.941   7.141  21.112  0.00  0.00    +0.013 A 
ATOM     27  C   UNL     1     -12.522   5.835  21.589  0.00  0.00    +0.004 A 
ATOM     28  C   UNL     1     -13.760   7.635  20.556  0.00  0.00    +0.004 A 
ATOM     29  C   UNL     1     -12.551   6.982  20.795  0.00  0.00    -0.050 A 
ATOM     30  C   UNL     1     -11.289   7.510  20.203  0.00  0.00    +0.044 C 
ENDBRANCH  23  24
ENDBRANCH  11   5
TORSDOF 5
ENDMDL
MODEL 4
REMARK VINA RESULT:      -7.5     18.641     20.049
REMARK  Name = 11911940
REMARK  6 active torsions:
REMARK  status: ('A' for Active; 'I' for Inactive)
REMARK    1  A    between atoms: N_4  and  C_10
REMARK    2  A    between atoms: N_5  and  C_11
REMARK    3  A    between atoms: C_14  and  C_17
REMARK    4  A    between atoms: C_17  and  C_21
REMARK    5  A    between atoms: C_23  and  C_24
REMARK    6  A    between atoms: C_29  and  C_30
REMARK                            x       y       z     vdW  Elec       q    Type
REMARK                         _______ _______ _______ _____ _____    ______ ____
ROOT
ATOM      1  O   UNL     1      -4.820 -10.673  18.546  0.00  0.00    -0.370 OA
ATOM      2  O   UNL     1      -6.887 -12.311  16.835  0.00  0.00    -0.370 OA
ATOM      8  C   UNL     1      -5.881 -11.333  16.516  0.00  0.00    +0.175 C 
ATOM      9  C   UNL     1      -5.875 -10.315  17.639  0.00  0.00    +0.171 C 
ATOM     10  C   UNL     1      -4.507 -11.973  16.568  0.00  0.00    +0.166 C 
ATOM     11  C   UNL     1      -7.221 -10.486  18.307  0.00  0.00    +0.130 C 
ATOM     12  C   UNL     1      -4.105 -11.802  18.029  0.00  0.00    +0.190 C 
ATOM     13  C   UNL     1      -7.511 -11.958  18.077  0.00  0.00    +0.185 C 
ENDROOT
BRANCH  10   4
ATOM      4  N   UNL     1      -3.577 -11.389  15.597  0.00  0.00    -0.244 N 
ATOM      6  N   UNL     1      -2.465 -10.759  16.008  0.00  0.00    -0.065 NA
ATOM      7  N   UNL     1      -1.829 -10.334  14.921  0.00  0.00    -0.134 NA
ATOM     20  C   UNL     1      -3.685 -11.385  14.241  0.00  0.00    +0.134 A 
ATOM     21  C   UNL     1      -2.571 -10.715  13.856  0.00  0.00    +0.083 A 
BRANCH  21  17
ATOM     17  C   UNL     1      -2.124 -10.386  12.467  0.00  0.00    +0.062 C 
BRANCH  17  14
ATOM     14  C   UNL     1      -3.284 -10.377  11.472  0.00  0.00    -0.005 C 
ATOM     15  C   UNL     1      -3.101  -9.261  10.435  0.00  0.00    +0.004 C 
ATOM     16  C   UNL     1      -3.419 -11.744  10.787  0.00  0.00    +0.004 C 
ATOM     18  C   UNL     1      -4.221  -9.267   9.398  0.00  0.00    +0.000 C 
ATOM     19  C   UNL     1      -4.538 -11.746   9.748  0.00  0.00    +0.000 C 
ATOM     22  C   UNL     1      -4.358 -10.629   8.724  0.00  0.00    +0.000 C 
ENDBRANCH  17  14
ENDBRANCH  21  17
ENDBRANCH  10   4
BRANCH  11   5
ATOM      3  O   UNL     1      -9.962 -10.210  19.114  0.00  0.00    -0.270 OA
ATOM      5  N   UNL     1      -8.223  -9.654  17.685  0.00  0.00    -0.304 N 
ATOM     23  C   UNL     1      -9.528  -9.586  18.150  0.00  0.00    +0.244 C 
ATOM     31  H   UNL     1      -7.965  -9.200  16.816  0.00  0.00    +0.149 HD
BRANCH  23  24
ATOM     24  C   UNL     1     -10.445  -8.702  17.384  0.00  0.00    +0.037 A 
ATOM     25  C   UNL     1      -9.932  -7.575  16.776  0.00  0.00    +0.013 A 
ATOM     26  C   UNL     1     -11.781  -9.037  17.306  0.00  0.00    +0.013 A 
ATOM     27  C   UNL     1     -10.793  -6.747  16.056  0.00  0.00    +0.004 A 
ATOM     28  C   UNL     1     -12.642  -8.208  16.586  0.00  0.00    +0.004 A 
ATOM     29  C   UNL     1     -12.148  -7.064  15.961  0.00  0.00    -0.050 A 
ATOM     30  C   UNL     1     -13.069  -6.177  15.193  0.00  0.00    +0.044 C 
ENDBRANCH  23  24
ENDBRANCH  11   5
TORSDOF 5
ENDMDL
MODEL 5
REMARK VINA RESULT:      -7.4     26.563     29.231
REMARK  Name = 11911940
REMARK  6 active torsions:
REMARK  status: ('A' for Active; 'I' for Inactive)
REMARK    1  A    between atoms: N_4  and  C_10
REMARK    2  A    between atoms: N_5  and  C_11
REMARK    3  A    between atoms: C_14  and  C_17
REMARK    4  A    between atoms: C_17  and  C_21
REMARK    5  A    between atoms: C_23  and  C_24
REMARK    6  A    between atoms: C_29  and  C_30
REMARK                            x       y       z     vdW  Elec       q    Type
REMARK                         _______ _______ _______ _____ _____    ______ ____
ROOT
ATOM      1  O   UNL     1      13.948   7.987  19.900  0.00  0.00    -0.370 OA
ATOM      2  O   UNL     1      10.862   8.056  19.298  0.00  0.00    -0.370 OA
ATOM      8  C   UNL     1      11.991   8.804  18.811  0.00  0.00    +0.175 C 
ATOM      9  C   UNL     1      12.935   9.002  19.981  0.00  0.00    +0.171 C 
ATOM     10  C   UNL     1      12.776   7.966  17.820  0.00  0.00    +0.166 C 
ATOM     11  C   UNL     1      12.070   8.783  21.202  0.00  0.00    +0.130 C 
ATOM     12  C   UNL     1      13.755   7.210  18.710  0.00  0.00    +0.190 C 
ATOM     13  C   UNL     1      11.043   7.787  20.695  0.00  0.00    +0.185 C 
ENDROOT
BRANCH  10   4
ATOM      4  N   UNL     1      13.394   8.775  16.765  0.00  0.00    -0.244 N 
ATOM      6  N   UNL     1      13.989   8.189  15.714  0.00  0.00    -0.065 NA
ATOM      7  N   UNL     1      14.457   9.159  14.935  0.00  0.00    -0.134 NA
ATOM     20  C   UNL     1      13.463  10.131  16.690  0.00  0.00    +0.134 A 
ATOM     21  C   UNL     1      14.136  10.331  15.530  0.00  0.00    +0.083 A 
BRANCH  21  17
ATOM     17  C   UNL     1      14.525  11.630  14.899  0.00  0.00    +0.062 C 
BRANCH  17  14
ATOM     14  C   UNL     1      15.784  11.503  14.043  0.00  0.00    -0.005 C 
ATOM     15  C   UNL     1      15.574  12.152  12.668  0.00  0.00    +0.004 C 
ATOM     16  C   UNL     1      16.991  12.123  14.762  0.00  0.00    +0.004 C 
ATOM     18  C   UNL     1      16.838  12.085  11.815  0.00  0.00    +0.000 C 
ATOM     19  C   UNL     1      18.253  12.057  13.904  0.00  0.00    +0.000 C 
ATOM     22  C   UNL     1      18.037  12.695  12.535  0.00  0.00    +0.000 C 
ENDBRANCH  17  14
ENDBRANCH  21  17
ENDBRANCH  10   4
BRANCH  11   5
ATOM      3  O   UNL     1      13.235  10.829  22.845  0.00  0.00    -0.270 OA
ATOM      5  N   UNL     1      11.441  10.011  21.624  0.00  0.00    -0.304 N 
ATOM     23  C   UNL     1      12.088  10.944  22.422  0.00  0.00    +0.244 C 
ATOM     31  H   UNL     1      10.456  10.119  21.408  0.00  0.00    +0.149 HD
BRANCH  23  24
ATOM     24  C   UNL     1      11.296  12.145  22.791  0.00  0.00    +0.037 A 
ATOM     25  C   UNL     1      10.923  13.029  21.800  0.00  0.00    +0.013 A 
ATOM     26  C   UNL     1      10.957  12.337  24.114  0.00  0.00    +0.013 A 
ATOM     27  C   UNL     1      10.177  14.156  22.147  0.00  0.00    +0.004 A 
ATOM     28  C   UNL     1      10.211  13.465  24.462  0.00  0.00    +0.004 A 
ATOM     29  C   UNL     1       9.821  14.373  23.478  0.00  0.00    -0.050 A 
ATOM     30  C   UNL     1       9.026  15.578  23.849  0.00  0.00    +0.044 C 
ENDBRANCH  23  24
ENDBRANCH  11   5
TORSDOF 5
ENDMDL
MODEL 6
REMARK VINA RESULT:      -7.3     18.144     20.561
REMARK  Name = 11911940
REMARK  6 active torsions:
REMARK  status: ('A' for Active; 'I' for Inactive)
REMARK    1  A    between atoms: N_4  and  C_10
REMARK    2  A    between atoms: N_5  and  C_11
REMARK    3  A    between atoms: C_14  and  C_17
REMARK    4  A    between atoms: C_17  and  C_21
REMARK    5  A    between atoms: C_23  and  C_24
REMARK    6  A    between atoms: C_29  and  C_30
REMARK                            x       y       z     vdW  Elec       q    Type
REMARK                         _______ _______ _______ _____ _____    ______ ____
ROOT
ATOM      1  O   UNL     1      -6.572 -13.010  18.015  0.00  0.00    -0.370 OA
ATOM      2  O   UNL     1      -4.985 -10.296  18.094  0.00  0.00    -0.370 OA
ATOM      8  C   UNL     1      -6.351 -10.646  17.804  0.00  0.00    +0.175 C 
ATOM      9  C   UNL     1      -6.327 -11.966  17.059  0.00  0.00    +0.171 C 
ATOM     10  C   UNL     1      -7.091 -10.944  19.094  0.00  0.00    +0.166 C 
ATOM     11  C   UNL     1      -4.917 -12.068  16.522  0.00  0.00    +0.130 C 
ATOM     12  C   UNL     1      -6.832 -12.432  19.302  0.00  0.00    +0.190 C 
ATOM     13  C   UNL     1      -4.118 -11.310  17.567  0.00  0.00    +0.185 C 
ENDROOT
BRANCH  10   4
ATOM      4  N   UNL     1      -8.505 -10.564  19.032  0.00  0.00    -0.244 N 
ATOM      6  N   UNL     1      -9.332 -10.838  20.053  0.00  0.00    -0.065 NA
ATOM      7  N   UNL     1     -10.536 -10.387  19.716  0.00  0.00    -0.134 NA
ATOM     20  C   UNL     1      -9.152  -9.931  18.017  0.00  0.00    +0.134 A 
ATOM     21  C   UNL     1     -10.421  -9.840  18.484  0.00  0.00    +0.083 A 
BRANCH  21  17
ATOM     17  C   UNL     1     -11.613  -9.234  17.812  0.00  0.00    +0.062 C 
BRANCH  17  14
ATOM     14  C   UNL     1     -11.235  -8.465  16.547  0.00  0.00    -0.005 C 
ATOM     15  C   UNL     1     -12.292  -8.667  15.453  0.00  0.00    +0.004 C 
ATOM     16  C   UNL     1     -11.047  -6.973  16.857  0.00  0.00    +0.004 C 
ATOM     18  C   UNL     1     -11.964  -7.864  14.198  0.00  0.00    +0.000 C 
ATOM     19  C   UNL     1     -10.721  -6.173  15.599  0.00  0.00    +0.000 C 
ATOM     22  C   UNL     1     -11.770  -6.383  14.511  0.00  0.00    +0.000 C 
ENDBRANCH  17  14
ENDBRANCH  21  17
ENDBRANCH  10   4
BRANCH  11   5
ATOM      3  O   UNL     1      -2.718 -12.302  14.691  0.00  0.00    -0.270 OA
ATOM      5  N   UNL     1      -4.804 -11.443  15.227  0.00  0.00    -0.304 N 
ATOM     23  C   UNL     1      -3.697 -11.617  14.409  0.00  0.00    +0.244 C 
ATOM     31  H   UNL     1      -5.523 -10.773  14.978  0.00  0.00    +0.149 HD
BRANCH  23  24
ATOM     24  C   UNL     1      -3.723 -10.886  13.115  0.00  0.00    +0.037 A 
ATOM     25  C   UNL     1      -2.557 -10.777  12.387  0.00  0.00    +0.013 A 
ATOM     26  C   UNL     1      -4.914 -10.340  12.684  0.00  0.00    +0.013 A 
ATOM     27  C   UNL     1      -2.582 -10.092  11.172  0.00  0.00    +0.004 A 
ATOM     28  C   UNL     1      -4.939  -9.654  11.468  0.00  0.00    +0.004 A 
ATOM     29  C   UNL     1      -3.774  -9.531  10.714  0.00  0.00    -0.050 A 
ATOM     30  C   UNL     1      -3.800  -8.797   9.416  0.00  0.00    +0.044 C 
ENDBRANCH  23  24
ENDBRANCH  11   5
TORSDOF 5
ENDMDL
MODEL 7
REMARK VINA RESULT:      -7.2      6.641     11.795
REMARK  Name = 11911940
REMARK  6 active torsions:
REMARK  status: ('A' for Active; 'I' for Inactive)
REMARK    1  A    between atoms: N_4  and  C_10
REMARK    2  A    between atoms: N_5  and  C_11
REMARK    3  A    between atoms: C_14  and  C_17
REMARK    4  A    between atoms: C_17  and  C_21
REMARK    5  A    between atoms: C_23  and  C_24
REMARK    6  A    between atoms: C_29  and  C_30
REMARK                            x       y       z     vdW  Elec       q    Type
REMARK                         _______ _______ _______ _____ _____    ______ ____
ROOT
ATOM      1  O   UNL     1     -12.063   8.475  34.055  0.00  0.00    -0.370 OA
ATOM      2  O   UNL     1     -14.737   9.434  32.708  0.00  0.00    -0.370 OA
ATOM      8  C   UNL     1     -13.976   8.214  32.657  0.00  0.00    +0.175 C 
ATOM      9  C   UNL     1     -12.510   8.599  32.696  0.00  0.00    +0.171 C 
ATOM     10  C   UNL     1     -14.199   7.415  33.927  0.00  0.00    +0.166 C 
ATOM     11  C   UNL     1     -12.493  10.050  32.268  0.00  0.00    +0.130 C 
ATOM     12  C   UNL     1     -13.127   7.957  34.865  0.00  0.00    +0.190 C 
ATOM     13  C   UNL     1     -13.837  10.549  32.765  0.00  0.00    +0.185 C 
ENDROOT
BRANCH  10   4
ATOM      4  N   UNL     1     -14.147   5.968  33.697  0.00  0.00    -0.244 N 
ATOM      6  N   UNL     1     -14.628   5.113  34.613  0.00  0.00    -0.065 NA
ATOM      7  N   UNL     1     -14.443   3.885  34.139  0.00  0.00    -0.134 NA
ATOM     20  C   UNL     1     -13.642   5.315  32.616  0.00  0.00    +0.134 A 
ATOM     21  C   UNL     1     -13.846   4.014  32.932  0.00  0.00    +0.083 A 
BRANCH  21  17
ATOM     17  C   UNL     1     -13.498   2.801  32.128  0.00  0.00    +0.062 C 
BRANCH  17  14
ATOM     14  C   UNL     1     -14.669   2.316  31.275  0.00  0.00    -0.005 C 
ATOM     15  C   UNL     1     -14.676   3.021  29.912  0.00  0.00    +0.004 C 
ATOM     16  C   UNL     1     -14.619   0.791  31.102  0.00  0.00    +0.004 C 
ATOM     18  C   UNL     1     -15.806   2.513  29.021  0.00  0.00    +0.000 C 
ATOM     19  C   UNL     1     -15.749   0.288  30.208  0.00  0.00    +0.000 C 
ATOM     22  C   UNL     1     -15.758   0.997  28.858  0.00  0.00    +0.000 C 
ENDBRANCH  17  14
ENDBRANCH  21  17
ENDBRANCH  10   4
BRANCH  11   5
ATOM      3  O   UNL     1     -10.962  11.999  30.819  0.00  0.00    -0.270 OA
ATOM      5  N   UNL     1     -12.389  10.171  30.835  0.00  0.00    -0.304 N 
ATOM     23  C   UNL     1     -11.620  11.151  30.223  0.00  0.00    +0.244 C 
ATOM     31  H   UNL     1     -12.995   9.577  30.280  0.00  0.00    +0.149 HD
BRANCH  23  24
ATOM     24  C   UNL     1     -11.637  11.158  28.737  0.00  0.00    +0.037 A 
ATOM     25  C   UNL     1     -11.128  10.071  28.059  0.00  0.00    +0.013 A 
ATOM     26  C   UNL     1     -12.164  12.252  28.084  0.00  0.00    +0.013 A 
ATOM     27  C   UNL     1     -11.147  10.078  26.664  0.00  0.00    +0.004 A 
ATOM     28  C   UNL     1     -12.182  12.260  26.688  0.00  0.00    +0.004 A 
ATOM     29  C   UNL     1     -11.674  11.172  25.980  0.00  0.00    -0.050 A 
ATOM     30  C   UNL     1     -11.692  11.180  24.488  0.00  0.00    +0.044 C 
ENDBRANCH  23  24
ENDBRANCH  11   5
TORSDOF 5
ENDMDL
MODEL 8
REMARK VINA RESULT:      -7.0     30.468     33.896
REMARK  Name = 11911940
REMARK  6 active torsions:
REMARK  status: ('A' for Active; 'I' for Inactive)
REMARK    1  A    between atoms: N_4  and  C_10
REMARK    2  A    between atoms: N_5  and  C_11
REMARK    3  A    between atoms: C_14  and  C_17
REMARK    4  A    between atoms: C_17  and  C_21
REMARK    5  A    between atoms: C_23  and  C_24
REMARK    6  A    between atoms: C_29  and  C_30
REMARK                            x       y       z     vdW  Elec       q    Type
REMARK                         _______ _______ _______ _____ _____    ______ ____
ROOT
ATOM      1  O   UNL     1       3.160   5.456  -4.057  0.00  0.00    -0.370 OA
ATOM      2  O   UNL     1       3.104   5.051  -7.175  0.00  0.00    -0.370 OA
ATOM      8  C   UNL     1       2.279   5.780  -6.249  0.00  0.00    +0.175 C 
ATOM      9  C   UNL     1       2.185   4.950  -4.984  0.00  0.00    +0.171 C 
ATOM     10  C   UNL     1       2.983   7.054  -5.824  0.00  0.00    +0.166 C 
ATOM     11  C   UNL     1       2.558   3.552  -5.424  0.00  0.00    +0.130 C 
ATOM     12  C   UNL     1       3.807   6.605  -4.622  0.00  0.00    +0.190 C 
ATOM     13  C   UNL     1       3.519   3.819  -6.569  0.00  0.00    +0.185 C 
ENDROOT
BRANCH  10   4
ATOM      4  N   UNL     1       2.048   8.152  -5.560  0.00  0.00    -0.244 N 
ATOM      6  N   UNL     1       1.337   8.699  -6.558  0.00  0.00    -0.065 NA
ATOM      7  N   UNL     1       0.590   9.662  -6.027  0.00  0.00    -0.134 NA
ATOM     20  C   UNL     1       1.778   8.744  -4.366  0.00  0.00    +0.134 A 
ATOM     21  C   UNL     1       0.861   9.684  -4.702  0.00  0.00    +0.083 A 
BRANCH  21  17
ATOM     17  C   UNL     1       0.174  10.668  -3.808  0.00  0.00    +0.062 C 
BRANCH  17  14
ATOM     14  C   UNL     1      -1.203  10.179  -3.359  0.00  0.00    -0.005 C 
ATOM     15  C   UNL     1      -1.249  10.010  -1.835  0.00  0.00    +0.004 C 
ATOM     16  C   UNL     1      -2.300  11.141  -3.837  0.00  0.00    +0.004 C 
ATOM     18  C   UNL     1      -2.631   9.574  -1.358  0.00  0.00    +0.000 C 
ATOM     19  C   UNL     1      -3.681  10.703  -3.355  0.00  0.00    +0.000 C 
ATOM     22  C   UNL     1      -3.720  10.528  -1.840  0.00  0.00    +0.000 C 
ENDBRANCH  17  14
ENDBRANCH  21  17
ENDBRANCH  10   4
BRANCH  11   5
ATOM      3  O   UNL     1       2.159   0.713  -5.274  0.00  0.00    -0.270 OA
ATOM      5  N   UNL     1       1.400   2.820  -5.876  0.00  0.00    -0.304 N 
ATOM     23  C   UNL     1       1.298   1.441  -5.760  0.00  0.00    +0.244 C 
ATOM     31  H   UNL     1       0.701   3.343  -6.392  0.00  0.00    +0.149 HD
BRANCH  23  24
ATOM     24  C   UNL     1       0.052   0.834  -6.296  0.00  0.00    +0.037 A 
ATOM     25  C   UNL     1      -0.659   1.514  -7.263  0.00  0.00    +0.013 A 
ATOM     26  C   UNL     1      -0.353  -0.392  -5.811  0.00  0.00    +0.013 A 
ATOM     27  C   UNL     1      -1.827   0.943  -7.767  0.00  0.00    +0.004 A 
ATOM     28  C   UNL     1      -1.522  -0.963  -6.315  0.00  0.00    +0.004 A 
ATOM     29  C   UNL     1      -2.258  -0.296  -7.293  0.00  0.00    -0.050 A 
ATOM     30  C   UNL     1      -3.509  -0.905  -7.831  0.00  0.00    +0.044 C 
ENDBRANCH  23  24
ENDBRANCH  11   5
TORSDOF 5
ENDMDL
MODEL 9
REMARK VINA RESULT:      -6.9     26.749     30.117
REMARK  Name = 11911940
REMARK  6 active torsions:
REMARK  status: ('A' for Active; 'I' for Inactive)
REMARK    1  A    between atoms: N_4  and  C_10
REMARK    2  A    between atoms: N_5  and  C_11
REMARK    3  A    between atoms: C_14  and  C_17
REMARK    4  A    between atoms: C_17  and  C_21
REMARK    5  A    between atoms: C_23  and  C_24
REMARK    6  A    between atoms: C_29  and  C_30
REMARK                            x       y       z     vdW  Elec       q    Type
REMARK                         _______ _______ _______ _____ _____    ______ ____
ROOT
ATOM      1  O   UNL     1      12.159   9.013  19.364  0.00  0.00    -0.370 OA
ATOM      2  O   UNL     1      12.652   6.847  21.590  0.00  0.00    -0.370 OA
ATOM      8  C   UNL     1      12.654   8.286  21.580  0.00  0.00    +0.175 C 
ATOM      9  C   UNL     1      13.248   8.724  20.256  0.00  0.00    +0.171 C 
ATOM     10  C   UNL     1      11.228   8.802  21.553  0.00  0.00    +0.166 C 
ATOM     11  C   UNL     1      14.015   7.514  19.771  0.00  0.00    +0.130 C 
ATOM     12  C   UNL     1      10.915   8.866  20.063  0.00  0.00    +0.190 C 
ATOM     13  C   UNL     1      13.216   6.366  20.362  0.00  0.00    +0.185 C 
ENDROOT
BRANCH  10   4
ATOM      4  N   UNL     1      11.075  10.069  22.274  0.00  0.00    -0.244 N 
ATOM      6  N   UNL     1      10.671  10.083  23.554  0.00  0.00    -0.065 NA
ATOM      7  N   UNL     1      10.620  11.355  23.937  0.00  0.00    -0.134 NA
ATOM     20  C   UNL     1      11.294  11.326  21.802  0.00  0.00    +0.134 A 
ATOM     21  C   UNL     1      10.997  12.101  22.873  0.00  0.00    +0.083 A 
BRANCH  21  17
ATOM     17  C   UNL     1      11.047  13.593  22.977  0.00  0.00    +0.062 C 
BRANCH  17  14
ATOM     14  C   UNL     1      12.046  14.067  24.031  0.00  0.00    -0.005 C 
ATOM     15  C   UNL     1      11.413  14.041  25.429  0.00  0.00    +0.004 C 
ATOM     16  C   UNL     1      13.321  13.213  23.992  0.00  0.00    +0.004 C 
ATOM     18  C   UNL     1      12.410  14.459  26.506  0.00  0.00    +0.000 C 
ATOM     19  C   UNL     1      14.314  13.632  25.072  0.00  0.00    +0.000 C 
ATOM     22  C   UNL     1      13.679  13.613  26.459  0.00  0.00    +0.000 C 
ENDBRANCH  17  14
ENDBRANCH  21  17
ENDBRANCH  10   4
BRANCH  11   5
ATOM      3  O   UNL     1      16.172   5.833  18.896  0.00  0.00    -0.270 OA
ATOM      5  N   UNL     1      15.368   7.519  20.271  0.00  0.00    -0.304 N 
ATOM     23  C   UNL     1      16.346   6.665  19.783  0.00  0.00    +0.244 C 
ATOM     31  H   UNL     1      15.555   8.099  21.082  0.00  0.00    +0.149 HD
BRANCH  23  24
ATOM     24  C   UNL     1      17.684   6.776  20.420  0.00  0.00    +0.037 A 
ATOM     25  C   UNL     1      17.921   7.815  21.296  0.00  0.00    +0.013 A 
ATOM     26  C   UNL     1      18.646   5.836  20.116  0.00  0.00    +0.013 A 
ATOM     27  C   UNL     1      19.177   7.918  21.895  0.00  0.00    +0.004 A 
ATOM     28  C   UNL     1      19.902   5.939  20.715  0.00  0.00    +0.004 A 
ATOM     29  C   UNL     1      20.167   6.979  21.605  0.00  0.00    -0.050 A 
ATOM     30  C   UNL     1      21.509   7.091  22.244  0.00  0.00    +0.044 C 
ENDBRANCH  23  24
ENDBRANCH  11   5
TORSDOF 5
ENDMDL
MODEL 10
REMARK VINA RESULT:      -6.8     32.622     36.292
REMARK  Name = 11911940
REMARK  6 active torsions:
REMARK  status: ('A' for Active; 'I' for Inactive)
REMARK    1  A    between atoms: N_4  and  C_10
REMARK    2  A    between atoms: N_5  and  C_11
REMARK    3  A    between atoms: C_14  and  C_17
REMARK    4  A    between atoms: C_17  and  C_21
REMARK    5  A    between atoms: C_23  and  C_24
REMARK    6  A    between atoms: C_29  and  C_30
REMARK                            x       y       z     vdW  Elec       q    Type
REMARK                         _______ _______ _______ _____ _____    ______ ____
ROOT
ATOM      1  O   UNL     1      12.967   8.909   7.144  0.00  0.00    -0.370 OA
ATOM      2  O   UNL     1      14.067  10.004   4.409  0.00  0.00    -0.370 OA
ATOM      8  C   UNL     1      13.564   8.727   4.844  0.00  0.00    +0.175 C 
ATOM      9  C   UNL     1      14.037   8.521   6.269  0.00  0.00    +0.171 C 
ATOM     10  C   UNL     1      12.051   8.777   4.942  0.00  0.00    +0.166 C 
ATOM     11  C   UNL     1      15.206   9.470   6.417  0.00  0.00    +0.130 C 
ATOM     12  C   UNL     1      11.817   9.270   6.366  0.00  0.00    +0.190 C 
ATOM     13  C   UNL     1      14.830  10.595   5.470  0.00  0.00    +0.185 C 
ENDROOT
BRANCH  10   4
ATOM      4  N   UNL     1      11.425   7.492   4.621  0.00  0.00    -0.244 N 
ATOM      6  N   UNL     1      10.416   7.017   5.368  0.00  0.00    -0.065 NA
ATOM      7  N   UNL     1      10.057   5.847   4.848  0.00  0.00    -0.134 NA
ATOM     20  C   UNL     1      11.740   6.644   3.605  0.00  0.00    +0.134 A 
ATOM     21  C   UNL     1      10.861   5.628   3.783  0.00  0.00    +0.083 A 
BRANCH  21  17
ATOM     17  C   UNL     1      10.712   4.381   2.969  0.00  0.00    +0.062 C 
BRANCH  17  14
ATOM     14  C   UNL     1      11.550   4.420   1.692  0.00  0.00    -0.005 C 
ATOM     15  C   UNL     1      12.666   3.369   1.742  0.00  0.00    +0.004 C 
ATOM     16  C   UNL     1      10.662   4.216   0.456  0.00  0.00    +0.004 C 
ATOM     18  C   UNL     1      13.483   3.352   0.453  0.00  0.00    +0.000 C 
ATOM     19  C   UNL     1      11.483   4.197  -0.831  0.00  0.00    +0.000 C 
ATOM     22  C   UNL     1      12.597   3.157  -0.773  0.00  0.00    +0.000 C 
ENDBRANCH  17  14
ENDBRANCH  21  17
ENDBRANCH  10   4
BRANCH  11   5
ATOM      3  O   UNL     1      17.844  10.577   6.652  0.00  0.00    -0.270 OA
ATOM      5  N   UNL     1      16.442   8.843   6.016  0.00  0.00    -0.304 N 
ATOM     23  C   UNL     1      17.675   9.460   6.171  0.00  0.00    +0.244 C 
ATOM     31  H   UNL     1      16.368   7.969   5.507  0.00  0.00    +0.149 HD
BRANCH  23  24
ATOM     24  C   UNL     1      18.851   8.693   5.685  0.00  0.00    +0.037 A 
ATOM     25  C   UNL     1      18.897   8.309   4.361  0.00  0.00    +0.013 A 
ATOM     26  C   UNL     1      19.862   8.391   6.574  0.00  0.00    +0.013 A 
ATOM     27  C   UNL     1      20.002   7.591   3.906  0.00  0.00    +0.004 A 
ATOM     28  C   UNL     1      20.968   7.672   6.119  0.00  0.00    +0.004 A 
ATOM     29  C   UNL     1      21.037   7.273   4.785  0.00  0.00    -0.050 A 
ATOM     30  C   UNL     1      22.218   6.503   4.297  0.00  0.00    +0.044 C 
ENDBRANCH  23  24
ENDBRANCH  11   5
TORSDOF 5
ENDMDL
