MODEL 1
REMARK VINA RESULT:      -7.8      0.000      0.000
REMARK  Name = 11941658
REMARK  6 active torsions:
REMARK  status: ('A' for Active; 'I' for Inactive)
REMARK    1  A    between atoms: O_4  and  C_32
REMARK    2  A    between atoms: O_4  and  C_33
REMARK    3  A    between atoms: N_5  and  C_12
REMARK    4  A    between atoms: N_6  and  C_13
REMARK    5  A    between atoms: N_7  and  C_16
REMARK    6  A    between atoms: C_24  and  C_27
REMARK                            x       y       z     vdW  Elec       q    Type
REMARK                         _______ _______ _______ _____ _____    ______ ____
ROOT
ATOM      1  O   UNL     1      13.816  12.222  23.550  0.00  0.00    -0.370 OA
ATOM      2  O   UNL     1      10.856  13.201  23.649  0.00  0.00    -0.370 OA
ATOM     10  C   UNL     1      11.681  12.468  24.569  0.00  0.00    +0.171 C 
ATOM     11  C   UNL     1      12.562  11.547  23.749  0.00  0.00    +0.171 C 
ATOM     12  C   UNL     1      12.657  13.397  25.254  0.00  0.00    +0.131 C 
ATOM     13  C   UNL     1      11.830  11.406  22.435  0.00  0.00    +0.130 C 
ATOM     14  C   UNL     1      13.793  13.475  24.250  0.00  0.00    +0.185 C 
ATOM     15  C   UNL     1      11.105  12.734  22.315  0.00  0.00    +0.185 C 
ENDROOT
BRANCH  13   6
ATOM      6  N   UNL     1      10.876  10.321  22.515  0.00  0.00    -0.306 N 
ATOM      8  N   UNL     1      12.411   8.786  21.691  0.00  0.00    -0.214 NA
ATOM      9  N   UNL     1      10.171   8.121  22.279  0.00  0.00    -0.223 NA
ATOM     23  C   UNL     1      11.165   9.020  22.145  0.00  0.00    +0.216 A 
ATOM     24  C   UNL     1      12.658   7.507  21.340  0.00  0.00    +0.076 A 
ATOM     25  C   UNL     1      10.487   6.863  21.910  0.00  0.00    +0.116 A 
ATOM     26  C   UNL     1      11.726   6.493  21.429  0.00  0.00    +0.048 A 
ATOM     35  H   UNL     1       9.958  10.493  22.907  0.00  0.00    +0.149 HD
BRANCH  24  27
ATOM     27  C   UNL     1      13.993   7.252  20.853  0.00  0.00    +0.001 A 
ATOM     28  C   UNL     1      14.212   7.063  19.488  0.00  0.00    +0.013 A 
ATOM     29  C   UNL     1      15.063   7.194  21.745  0.00  0.00    +0.013 A 
ATOM     30  C   UNL     1      15.501   6.815  19.016  0.00  0.00    +0.046 A 
ATOM     31  C   UNL     1      16.353   6.947  21.274  0.00  0.00    +0.046 A 
ATOM     32  C   UNL     1      16.571   6.757  19.909  0.00  0.00    +0.120 A 
BRANCH  32   4
ATOM      4  O   UNL     1      17.829   6.518  19.448  0.00  0.00    -0.495 OA
ATOM     33  C   UNL     1      18.775   6.000  20.381  0.00  0.00    +0.277 C 
ENDBRANCH  32   4
ENDBRANCH  24  27
ENDBRANCH  13   6
BRANCH  12   5
ATOM      3  O   UNL     1      14.130  14.772  27.306  0.00  0.00    -0.253 OA
ATOM      5  N   UNL     1      13.107  12.848  26.511  0.00  0.00    -0.292 N 
ATOM      7  N   UNL     1      14.129  12.826  28.571  0.00  0.00    -0.297 N 
ATOM     19  C   UNL     1      13.818  13.591  27.450  0.00  0.00    +0.300 C 
ATOM     34  H   UNL     1      12.956  11.859  26.693  0.00  0.00    +0.151 HD
ATOM     36  H   UNL     1      13.887  11.840  28.555  0.00  0.00    +0.151 HD
BRANCH   7  16
ATOM     16  C   UNL     1      14.864  13.343  29.704  0.00  0.00    +0.074 C 
ATOM     17  C   UNL     1      15.553  12.214  30.476  0.00  0.00    +0.022 C 
ATOM     18  C   UNL     1      13.955  14.169  30.619  0.00  0.00    +0.022 C 
ATOM     20  C   UNL     1      14.561  11.349  31.256  0.00  0.00    +0.002 C 
ATOM     21  C   UNL     1      12.966  13.302  31.398  0.00  0.00    +0.002 C 
ATOM     22  C   UNL     1      13.675  12.191  32.168  0.00  0.00    +0.000 C 
ENDBRANCH   7  16
ENDBRANCH  12   5
TORSDOF 5
ENDMDL
MODEL 2
REMARK VINA RESULT:      -7.5     28.037     32.711
REMARK  Name = 11941658
REMARK  6 active torsions:
REMARK  status: ('A' for Active; 'I' for Inactive)
REMARK    1  A    between atoms: O_4  and  C_32
REMARK    2  A    between atoms: O_4  and  C_33
REMARK    3  A    between atoms: N_5  and  C_12
REMARK    4  A    between atoms: N_6  and  C_13
REMARK    5  A    between atoms: N_7  and  C_16
REMARK    6  A    between atoms: C_24  and  C_27
REMARK                            x       y       z     vdW  Elec       q    Type
REMARK                         _______ _______ _______ _____ _____    ______ ____
ROOT
ATOM      1  O   UNL     1      -5.843 -11.930  10.399  0.00  0.00    -0.370 OA
ATOM      2  O   UNL     1      -4.660  -9.043  10.387  0.00  0.00    -0.370 OA
ATOM     10  C   UNL     1      -4.299 -10.257   9.708  0.00  0.00    +0.171 C 
ATOM     11  C   UNL     1      -4.534 -11.401  10.674  0.00  0.00    +0.171 C 
ATOM     12  C   UNL     1      -5.261 -10.531   8.574  0.00  0.00    +0.131 C 
ATOM     13  C   UNL     1      -4.509 -10.747  12.036  0.00  0.00    +0.130 C 
ATOM     14  C   UNL     1      -6.408 -11.230   9.281  0.00  0.00    +0.185 C 
ATOM     15  C   UNL     1      -5.022  -9.349  11.741  0.00  0.00    +0.185 C 
ENDROOT
BRANCH  13   6
ATOM      6  N   UNL     1      -3.151 -10.688  12.532  0.00  0.00    -0.306 N 
ATOM      8  N   UNL     1      -3.858 -10.689  14.743  0.00  0.00    -0.214 NA
ATOM      9  N   UNL     1      -1.518 -10.607  14.180  0.00  0.00    -0.223 NA
ATOM     23  C   UNL     1      -2.829 -10.659  13.876  0.00  0.00    +0.216 A 
ATOM     24  C   UNL     1      -3.508 -10.659  16.046  0.00  0.00    +0.076 A 
ATOM     25  C   UNL     1      -1.239 -10.580  15.499  0.00  0.00    +0.116 A 
ATOM     26  C   UNL     1      -2.201 -10.605  16.487  0.00  0.00    +0.048 A 
ATOM     35  H   UNL     1      -2.380 -10.719  11.875  0.00  0.00    +0.149 HD
BRANCH  24  27
ATOM     27  C   UNL     1      -4.609 -10.691  16.978  0.00  0.00    +0.001 A 
ATOM     28  C   UNL     1      -5.802 -10.036  16.669  0.00  0.00    +0.013 A 
ATOM     29  C   UNL     1      -4.483 -11.376  18.186  0.00  0.00    +0.013 A 
ATOM     30  C   UNL     1      -6.867 -10.064  17.569  0.00  0.00    +0.046 A 
ATOM     31  C   UNL     1      -5.548 -11.406  19.087  0.00  0.00    +0.046 A 
ATOM     32  C   UNL     1      -6.740 -10.749  18.778  0.00  0.00    +0.120 A 
BRANCH  32   4
ATOM      4  O   UNL     1      -7.780 -10.779  19.655  0.00  0.00    -0.495 OA
ATOM     33  C   UNL     1      -9.082 -10.991  19.112  0.00  0.00    +0.277 C 
ENDBRANCH  32   4
ENDBRANCH  24  27
ENDBRANCH  13   6
BRANCH  12   5
ATOM      3  O   UNL     1      -5.705 -10.433   5.734  0.00  0.00    -0.253 OA
ATOM      5  N   UNL     1      -4.663 -11.384   7.576  0.00  0.00    -0.292 N 
ATOM      7  N   UNL     1      -4.231 -12.207   5.472  0.00  0.00    -0.297 N 
ATOM     19  C   UNL     1      -4.937 -11.265   6.215  0.00  0.00    +0.300 C 
ATOM     34  H   UNL     1      -4.066 -12.148   7.882  0.00  0.00    +0.151 HD
ATOM     36  H   UNL     1      -3.680 -12.895   5.977  0.00  0.00    +0.151 HD
BRANCH   7  16
ATOM     16  C   UNL     1      -4.325 -12.312   4.033  0.00  0.00    +0.074 C 
ATOM     17  C   UNL     1      -5.176 -13.518   3.622  0.00  0.00    +0.022 C 
ATOM     18  C   UNL     1      -2.934 -12.370   3.393  0.00  0.00    +0.022 C 
ATOM     20  C   UNL     1      -4.467 -14.848   3.877  0.00  0.00    +0.002 C 
ATOM     21  C   UNL     1      -2.228 -13.701   3.648  0.00  0.00    +0.002 C 
ATOM     22  C   UNL     1      -3.090 -14.887   3.221  0.00  0.00    +0.000 C 
ENDBRANCH   7  16
ENDBRANCH  12   5
TORSDOF 5
ENDMDL
MODEL 3
REMARK VINA RESULT:      -7.2      5.602     11.227
REMARK  Name = 11941658
REMARK  6 active torsions:
REMARK  status: ('A' for Active; 'I' for Inactive)
REMARK    1  A    between atoms: O_4  and  C_32
REMARK    2  A    between atoms: O_4  and  C_33
REMARK    3  A    between atoms: N_5  and  C_12
REMARK    4  A    between atoms: N_6  and  C_13
REMARK    5  A    between atoms: N_7  and  C_16
REMARK    6  A    between atoms: C_24  and  C_27
REMARK                            x       y       z     vdW  Elec       q    Type
REMARK                         _______ _______ _______ _____ _____    ______ ____
ROOT
ATOM      1  O   UNL     1      13.678  11.220  17.836  0.00  0.00    -0.370 OA
ATOM      2  O   UNL     1      14.529   8.346  16.969  0.00  0.00    -0.370 OA
ATOM     10  C   UNL     1      13.380   9.161  16.682  0.00  0.00    +0.171 C 
ATOM     11  C   UNL     1      13.047   9.931  17.943  0.00  0.00    +0.171 C 
ATOM     12  C   UNL     1      13.736  10.233  15.678  0.00  0.00    +0.131 C 
ATOM     13  C   UNL     1      13.688   9.126  19.050  0.00  0.00    +0.130 C 
ATOM     14  C   UNL     1      14.325  11.321  16.559  0.00  0.00    +0.185 C 
ATOM     15  C   UNL     1      14.879   8.494  18.353  0.00  0.00    +0.185 C 
ENDROOT
BRANCH  13   6
ATOM      6  N   UNL     1      12.775   8.102  19.509  0.00  0.00    -0.306 N 
ATOM      8  N   UNL     1      11.939   9.467  21.189  0.00  0.00    -0.214 NA
ATOM      9  N   UNL     1      11.117   7.224  20.877  0.00  0.00    -0.223 NA
ATOM     23  C   UNL     1      11.907   8.272  20.571  0.00  0.00    +0.216 A 
ATOM     24  C   UNL     1      11.079   9.598  22.221  0.00  0.00    +0.076 A 
ATOM     25  C   UNL     1      10.282   7.424  21.917  0.00  0.00    +0.116 A 
ATOM     26  C   UNL     1      10.218   8.601  22.634  0.00  0.00    +0.048 A 
ATOM     35  H   UNL     1      12.719   7.224  19.005  0.00  0.00    +0.149 HD
BRANCH  24  27
ATOM     27  C   UNL     1      11.110  10.879  22.886  0.00  0.00    +0.001 A 
ATOM     28  C   UNL     1      10.977  10.946  24.274  0.00  0.00    +0.013 A 
ATOM     29  C   UNL     1      11.272  12.048  22.144  0.00  0.00    +0.013 A 
ATOM     30  C   UNL     1      11.005  12.183  24.918  0.00  0.00    +0.046 A 
ATOM     31  C   UNL     1      11.301  13.286  22.788  0.00  0.00    +0.046 A 
ATOM     32  C   UNL     1      11.167  13.352  24.175  0.00  0.00    +0.120 A 
BRANCH  32   4
ATOM      4  O   UNL     1      11.198  14.559  24.804  0.00  0.00    -0.495 OA
ATOM     33  C   UNL     1      11.212  14.547  26.230  0.00  0.00    +0.277 C 
ENDBRANCH  32   4
ENDBRANCH  24  27
ENDBRANCH  13   6
BRANCH  12   5
ATOM      3  O   UNL     1      13.682  11.834  13.290  0.00  0.00    -0.253 OA
ATOM      5  N   UNL     1      12.564  10.705  14.980  0.00  0.00    -0.292 N 
ATOM      7  N   UNL     1      11.362  11.797  13.352  0.00  0.00    -0.297 N 
ATOM     19  C   UNL     1      12.632  11.479  13.823  0.00  0.00    +0.300 C 
ATOM     34  H   UNL     1      11.649  10.519  15.382  0.00  0.00    +0.151 HD
ATOM     36  H   UNL     1      10.563  11.514  13.910  0.00  0.00    +0.151 HD
BRANCH   7  16
ATOM     16  C   UNL     1      11.134  12.592  12.165  0.00  0.00    +0.074 C 
ATOM     17  C   UNL     1      11.048  14.083  12.509  0.00  0.00    +0.022 C 
ATOM     18  C   UNL     1       9.883  12.121  11.418  0.00  0.00    +0.022 C 
ATOM     20  C   UNL     1       9.756  14.440  13.243  0.00  0.00    +0.002 C 
ATOM     21  C   UNL     1       8.592  12.481  12.154  0.00  0.00    +0.002 C 
ATOM     22  C   UNL     1       8.524  13.971  12.476  0.00  0.00    +0.000 C 
ENDBRANCH   7  16
ENDBRANCH  12   5
TORSDOF 5
ENDMDL
MODEL 4
REMARK VINA RESULT:      -7.2     17.733     23.160
REMARK  Name = 11941658
REMARK  6 active torsions:
REMARK  status: ('A' for Active; 'I' for Inactive)
REMARK    1  A    between atoms: O_4  and  C_32
REMARK    2  A    between atoms: O_4  and  C_33
REMARK    3  A    between atoms: N_5  and  C_12
REMARK    4  A    between atoms: N_6  and  C_13
REMARK    5  A    between atoms: N_7  and  C_16
REMARK    6  A    between atoms: C_24  and  C_27
REMARK                            x       y       z     vdW  Elec       q    Type
REMARK                         _______ _______ _______ _____ _____    ______ ____
ROOT
ATOM      1  O   UNL     1      13.140   3.944   2.100  0.00  0.00    -0.370 OA
ATOM      2  O   UNL     1      12.486   4.734  -0.846  0.00  0.00    -0.370 OA
ATOM     10  C   UNL     1      13.266   5.355   0.189  0.00  0.00    +0.171 C 
ATOM     11  C   UNL     1      12.549   5.111   1.502  0.00  0.00    +0.171 C 
ATOM     12  C   UNL     1      14.586   4.638   0.352  0.00  0.00    +0.131 C 
ATOM     13  C   UNL     1      11.121   4.825   1.097  0.00  0.00    +0.130 C 
ATOM     14  C   UNL     1      14.221   3.488   1.274  0.00  0.00    +0.185 C 
ATOM     15  C   UNL     1      11.285   4.195  -0.274  0.00  0.00    +0.185 C 
ENDROOT
BRANCH  13   6
ATOM      6  N   UNL     1      10.380   6.063   0.993  0.00  0.00    -0.306 N 
ATOM      8  N   UNL     1       9.913   6.084   3.267  0.00  0.00    -0.214 NA
ATOM      9  N   UNL     1       9.126   7.837   1.813  0.00  0.00    -0.223 NA
ATOM     23  C   UNL     1       9.780   6.688   2.071  0.00  0.00    +0.216 A 
ATOM     24  C   UNL     1       9.316   6.720   4.296  0.00  0.00    +0.076 A 
ATOM     25  C   UNL     1       8.553   8.419   2.887  0.00  0.00    +0.116 A 
ATOM     26  C   UNL     1       8.616   7.903   4.164  0.00  0.00    +0.048 A 
ATOM     35  H   UNL     1      10.328   6.539   0.100  0.00  0.00    +0.149 HD
BRANCH  24  27
ATOM     27  C   UNL     1       9.457   6.076   5.580  0.00  0.00    +0.001 A 
ATOM     28  C   UNL     1       9.269   6.811   6.751  0.00  0.00    +0.013 A 
ATOM     29  C   UNL     1       9.781   4.721   5.651  0.00  0.00    +0.013 A 
ATOM     30  C   UNL     1       9.407   6.191   7.993  0.00  0.00    +0.046 A 
ATOM     31  C   UNL     1       9.918   4.101   6.892  0.00  0.00    +0.046 A 
ATOM     32  C   UNL     1       9.732   4.835   8.063  0.00  0.00    +0.120 A 
BRANCH  32   4
ATOM      4  O   UNL     1       9.863   4.230   9.275  0.00  0.00    -0.495 OA
ATOM     33  C   UNL     1       8.935   4.603  10.292  0.00  0.00    +0.277 C 
ENDBRANCH  32   4
ENDBRANCH  24  27
ENDBRANCH  13   6
BRANCH  12   5
ATOM      3  O   UNL     1      16.359   6.446  -1.012  0.00  0.00    -0.253 OA
ATOM      5  N   UNL     1      15.577   5.497   0.955  0.00  0.00    -0.292 N 
ATOM      7  N   UNL     1      17.260   7.063   1.037  0.00  0.00    -0.297 N 
ATOM     19  C   UNL     1      16.396   6.346   0.214  0.00  0.00    +0.300 C 
ATOM     34  H   UNL     1      15.729   5.436   1.958  0.00  0.00    +0.151 HD
ATOM     36  H   UNL     1      17.256   6.849   2.030  0.00  0.00    +0.151 HD
BRANCH   7  16
ATOM     16  C   UNL     1      18.222   8.018   0.534  0.00  0.00    +0.074 C 
ATOM     17  C   UNL     1      19.580   7.846   1.220  0.00  0.00    +0.022 C 
ATOM     18  C   UNL     1      17.703   9.452   0.682  0.00  0.00    +0.022 C 
ATOM     20  C   UNL     1      19.566   8.319   2.674  0.00  0.00    +0.002 C 
ATOM     21  C   UNL     1      17.690   9.923   2.136  0.00  0.00    +0.002 C 
ATOM     22  C   UNL     1      19.057   9.751   2.795  0.00  0.00    +0.000 C 
ENDBRANCH   7  16
ENDBRANCH  12   5
TORSDOF 5
ENDMDL
MODEL 5
REMARK VINA RESULT:      -6.9      6.409      9.984
REMARK  Name = 11941658
REMARK  6 active torsions:
REMARK  status: ('A' for Active; 'I' for Inactive)
REMARK    1  A    between atoms: O_4  and  C_32
REMARK    2  A    between atoms: O_4  and  C_33
REMARK    3  A    between atoms: N_5  and  C_12
REMARK    4  A    between atoms: N_6  and  C_13
REMARK    5  A    between atoms: N_7  and  C_16
REMARK    6  A    between atoms: C_24  and  C_27
REMARK                            x       y       z     vdW  Elec       q    Type
REMARK                         _______ _______ _______ _____ _____    ______ ____
ROOT
ATOM      1  O   UNL     1      19.697   6.441  20.107  0.00  0.00    -0.370 OA
ATOM      2  O   UNL     1      19.304   8.606  22.318  0.00  0.00    -0.370 OA
ATOM     10  C   UNL     1      19.514   7.185  22.359  0.00  0.00    +0.171 C 
ATOM     11  C   UNL     1      18.761   6.584  21.189  0.00  0.00    +0.171 C 
ATOM     12  C   UNL     1      20.962   6.860  22.070  0.00  0.00    +0.131 C 
ATOM     13  C   UNL     1      17.719   7.624  20.846  0.00  0.00    +0.130 C 
ATOM     14  C   UNL     1      20.998   6.853  20.552  0.00  0.00    +0.185 C 
ATOM     15  C   UNL     1      18.398   8.920  21.250  0.00  0.00    +0.185 C 
ENDROOT
BRANCH  13   6
ATOM      6  N   UNL     1      16.529   7.413  21.641  0.00  0.00    -0.306 N 
ATOM      8  N   UNL     1      15.158   8.312  19.999  0.00  0.00    -0.214 NA
ATOM      9  N   UNL     1      14.249   7.493  22.074  0.00  0.00    -0.223 NA
ATOM     23  C   UNL     1      15.258   7.754  21.220  0.00  0.00    +0.216 A 
ATOM     24  C   UNL     1      13.903   8.633  19.620  0.00  0.00    +0.076 A 
ATOM     25  C   UNL     1      13.023   7.839  21.632  0.00  0.00    +0.116 A 
ATOM     26  C   UNL     1      12.787   8.417  20.402  0.00  0.00    +0.048 A 
ATOM     35  H   UNL     1      16.606   6.944  22.537  0.00  0.00    +0.149 HD
BRANCH  24  27
ATOM     27  C   UNL     1      13.792   9.231  18.310  0.00  0.00    +0.001 A 
ATOM     28  C   UNL     1      12.873   8.725  17.390  0.00  0.00    +0.013 A 
ATOM     29  C   UNL     1      14.603  10.312  17.964  0.00  0.00    +0.013 A 
ATOM     30  C   UNL     1      12.765   9.300  16.124  0.00  0.00    +0.046 A 
ATOM     31  C   UNL     1      14.495  10.888  16.698  0.00  0.00    +0.046 A 
ATOM     32  C   UNL     1      13.577  10.381  15.778  0.00  0.00    +0.120 A 
BRANCH  32   4
ATOM      4  O   UNL     1      13.470  10.944  14.544  0.00  0.00    -0.495 OA
ATOM     33  C   UNL     1      14.475  11.884  14.168  0.00  0.00    +0.277 C 
ENDBRANCH  32   4
ENDBRANCH  24  27
ENDBRANCH  13   6
BRANCH  12   5
ATOM      3  O   UNL     1      23.391   6.196  23.458  0.00  0.00    -0.253 OA
ATOM      5  N   UNL     1      21.326   5.571  22.607  0.00  0.00    -0.292 N 
ATOM      7  N   UNL     1      22.631   4.015  23.686  0.00  0.00    -0.297 N 
ATOM     19  C   UNL     1      22.530   5.339  23.268  0.00  0.00    +0.300 C 
ATOM     34  H   UNL     1      20.708   4.782  22.441  0.00  0.00    +0.151 HD
ATOM     36  H   UNL     1      21.893   3.373  23.413  0.00  0.00    +0.151 HD
BRANCH   7  16
ATOM     16  C   UNL     1      23.777   3.495  24.398  0.00  0.00    +0.074 C 
ATOM     17  C   UNL     1      24.843   2.979  23.426  0.00  0.00    +0.022 C 
ATOM     18  C   UNL     1      23.360   2.407  25.393  0.00  0.00    +0.022 C 
ATOM     20  C   UNL     1      24.426   1.680  22.736  0.00  0.00    +0.002 C 
ATOM     21  C   UNL     1      22.945   1.109  24.701  0.00  0.00    +0.002 C 
ATOM     22  C   UNL     1      24.026   0.609  23.746  0.00  0.00    +0.000 C 
ENDBRANCH   7  16
ENDBRANCH  12   5
TORSDOF 5
ENDMDL
MODEL 6
REMARK VINA RESULT:      -6.9     27.751     30.978
REMARK  Name = 11941658
REMARK  6 active torsions:
REMARK  status: ('A' for Active; 'I' for Inactive)
REMARK    1  A    between atoms: O_4  and  C_32
REMARK    2  A    between atoms: O_4  and  C_33
REMARK    3  A    between atoms: N_5  and  C_12
REMARK    4  A    between atoms: N_6  and  C_13
REMARK    5  A    between atoms: N_7  and  C_16
REMARK    6  A    between atoms: C_24  and  C_27
REMARK                            x       y       z     vdW  Elec       q    Type
REMARK                         _______ _______ _______ _____ _____    ______ ____
ROOT
ATOM      1  O   UNL     1      -6.968 -12.433  15.416  0.00  0.00    -0.370 OA
ATOM      2  O   UNL     1      -6.129 -12.393  18.421  0.00  0.00    -0.370 OA
ATOM     10  C   UNL     1      -6.567 -11.374  17.508  0.00  0.00    +0.171 C 
ATOM     11  C   UNL     1      -5.975 -11.697  16.151  0.00  0.00    +0.171 C 
ATOM     12  C   UNL     1      -8.060 -11.471  17.291  0.00  0.00    +0.131 C 
ATOM     13  C   UNL     1      -4.793 -12.584  16.465  0.00  0.00    +0.130 C 
ATOM     14  C   UNL     1      -8.163 -12.529  16.206  0.00  0.00    +0.185 C 
ATOM     15  C   UNL     1      -5.231 -13.282  17.740  0.00  0.00    +0.185 C 
ENDROOT
BRANCH  13   6
ATOM      6  N   UNL     1      -3.620 -11.775  16.716  0.00  0.00    -0.306 N 
ATOM      8  N   UNL     1      -3.317 -11.345  14.455  0.00  0.00    -0.214 NA
ATOM      9  N   UNL     1      -1.821 -10.438  16.110  0.00  0.00    -0.223 NA
ATOM     23  C   UNL     1      -2.888 -11.160  15.717  0.00  0.00    +0.216 A 
ATOM     24  C   UNL     1      -2.580 -10.732  13.506  0.00  0.00    +0.076 A 
ATOM     25  C   UNL     1      -1.130  -9.851  15.111  0.00  0.00    +0.116 A 
ATOM     26  C   UNL     1      -1.466  -9.964  13.778  0.00  0.00    +0.048 A 
ATOM     35  H   UNL     1      -3.333 -11.597  17.671  0.00  0.00    +0.149 HD
BRANCH  24  27
ATOM     27  C   UNL     1      -3.038 -10.927  12.151  0.00  0.00    +0.001 A 
ATOM     28  C   UNL     1      -3.169  -9.833  11.296  0.00  0.00    +0.013 A 
ATOM     29  C   UNL     1      -3.351 -12.209  11.697  0.00  0.00    +0.013 A 
ATOM     30  C   UNL     1      -3.614 -10.020   9.987  0.00  0.00    +0.046 A 
ATOM     31  C   UNL     1      -3.795 -12.396  10.388  0.00  0.00    +0.046 A 
ATOM     32  C   UNL     1      -3.926 -11.302   9.533  0.00  0.00    +0.120 A 
BRANCH  32   4
ATOM      4  O   UNL     1      -4.357 -11.484   8.255  0.00  0.00    -0.495 OA
ATOM     33  C   UNL     1      -5.135 -10.439   7.676  0.00  0.00    +0.277 C 
ENDBRANCH  32   4
ENDBRANCH  24  27
ENDBRANCH  13   6
BRANCH  12   5
ATOM      3  O   UNL     1     -10.524 -10.263  18.150  0.00  0.00    -0.253 OA
ATOM      5  N   UNL     1      -8.607 -10.212  16.846  0.00  0.00    -0.292 N 
ATOM      7  N   UNL     1     -10.110  -8.475  16.730  0.00  0.00    -0.297 N 
ATOM     19  C   UNL     1      -9.813  -9.701  17.318  0.00  0.00    +0.300 C 
ATOM     34  H   UNL     1      -8.125  -9.704  16.109  0.00  0.00    +0.151 HD
ATOM     36  H   UNL     1      -9.489  -8.135  16.001  0.00  0.00    +0.151 HD
BRANCH   7  16
ATOM     16  C   UNL     1     -11.303  -7.717  17.035  0.00  0.00    +0.074 C 
ATOM     17  C   UNL     1     -12.545  -8.375  16.425  0.00  0.00    +0.022 C 
ATOM     18  C   UNL     1     -11.164  -6.262  16.578  0.00  0.00    +0.022 C 
ATOM     20  C   UNL     1     -12.596  -8.229  14.904  0.00  0.00    +0.002 C 
ATOM     21  C   UNL     1     -11.217  -6.119  15.057  0.00  0.00    +0.002 C 
ATOM     22  C   UNL     1     -12.467  -6.771  14.474  0.00  0.00    +0.000 C 
ENDBRANCH   7  16
ENDBRANCH  12   5
TORSDOF 5
ENDMDL
MODEL 7
REMARK VINA RESULT:      -6.9     28.509     31.928
REMARK  Name = 11941658
REMARK  6 active torsions:
REMARK  status: ('A' for Active; 'I' for Inactive)
REMARK    1  A    between atoms: O_4  and  C_32
REMARK    2  A    between atoms: O_4  and  C_33
REMARK    3  A    between atoms: N_5  and  C_12
REMARK    4  A    between atoms: N_6  and  C_13
REMARK    5  A    between atoms: N_7  and  C_16
REMARK    6  A    between atoms: C_24  and  C_27
REMARK                            x       y       z     vdW  Elec       q    Type
REMARK                         _______ _______ _______ _____ _____    ______ ____
ROOT
ATOM      1  O   UNL     1     -10.579  -7.603  16.156  0.00  0.00    -0.370 OA
ATOM      2  O   UNL     1     -10.644 -10.721  16.215  0.00  0.00    -0.370 OA
ATOM     10  C   UNL     1     -11.325  -9.708  16.974  0.00  0.00    +0.171 C 
ATOM     11  C   UNL     1     -10.345  -8.573  17.191  0.00  0.00    +0.171 C 
ATOM     12  C   UNL     1     -12.430  -9.088  16.149  0.00  0.00    +0.131 C 
ATOM     13  C   UNL     1      -8.989  -9.214  17.011  0.00  0.00    +0.130 C 
ATOM     14  C   UNL     1     -11.686  -8.033  15.350  0.00  0.00    +0.185 C 
ATOM     15  C   UNL     1      -9.278 -10.328  16.021  0.00  0.00    +0.185 C 
ENDROOT
BRANCH  13   6
ATOM      6  N   UNL     1      -8.532  -9.767  18.267  0.00  0.00    -0.306 N 
ATOM      8  N   UNL     1      -6.436 -10.258  17.397  0.00  0.00    -0.214 NA
ATOM      9  N   UNL     1      -6.988 -10.762  19.687  0.00  0.00    -0.223 NA
ATOM     23  C   UNL     1      -7.264 -10.285  18.458  0.00  0.00    +0.216 A 
ATOM     24  C   UNL     1      -5.208 -10.771  17.619  0.00  0.00    +0.076 A 
ATOM     25  C   UNL     1      -5.743 -11.259  19.839  0.00  0.00    +0.116 A 
ATOM     26  C   UNL     1      -4.802 -11.290  18.832  0.00  0.00    +0.048 A 
ATOM     35  H   UNL     1      -9.142  -9.736  19.075  0.00  0.00    +0.149 HD
BRANCH  24  27
ATOM     27  C   UNL     1      -4.318 -10.742  16.484  0.00  0.00    +0.001 A 
ATOM     28  C   UNL     1      -2.940 -10.849  16.677  0.00  0.00    +0.013 A 
ATOM     29  C   UNL     1      -4.832 -10.607  15.194  0.00  0.00    +0.013 A 
ATOM     30  C   UNL     1      -2.077 -10.820  15.581  0.00  0.00    +0.046 A 
ATOM     31  C   UNL     1      -3.970 -10.579  14.098  0.00  0.00    +0.046 A 
ATOM     32  C   UNL     1      -2.593 -10.685  14.291  0.00  0.00    +0.120 A 
BRANCH  32   4
ATOM      4  O   UNL     1      -1.751 -10.660  13.222  0.00  0.00    -0.495 OA
ATOM     33  C   UNL     1      -2.339 -10.467  11.937  0.00  0.00    +0.277 C 
ENDBRANCH  32   4
ENDBRANCH  24  27
ENDBRANCH  13   6
BRANCH  12   5
ATOM      3  O   UNL     1     -14.661 -10.425  17.376  0.00  0.00    -0.253 OA
ATOM      5  N   UNL     1     -13.438  -8.491  16.991  0.00  0.00    -0.292 N 
ATOM      7  N   UNL     1     -15.318  -8.406  18.314  0.00  0.00    -0.297 N 
ATOM     19  C   UNL     1     -14.489  -9.219  17.545  0.00  0.00    +0.300 C 
ATOM     34  H   UNL     1     -13.421  -7.485  17.135  0.00  0.00    +0.151 HD
ATOM     36  H   UNL     1     -15.125  -7.409  18.328  0.00  0.00    +0.151 HD
BRANCH   7  16
ATOM     16  C   UNL     1     -16.487  -8.898  19.008  0.00  0.00    +0.074 C 
ATOM     17  C   UNL     1     -17.591  -7.836  19.049  0.00  0.00    +0.022 C 
ATOM     18  C   UNL     1     -16.129  -9.383  20.416  0.00  0.00    +0.022 C 
ATOM     20  C   UNL     1     -17.260  -6.686  20.000  0.00  0.00    +0.002 C 
ATOM     21  C   UNL     1     -15.801  -8.230  21.365  0.00  0.00    +0.002 C 
ATOM     22  C   UNL     1     -16.918  -7.191  21.398  0.00  0.00    +0.000 C 
ENDBRANCH   7  16
ENDBRANCH  12   5
TORSDOF 5
ENDMDL
MODEL 8
REMARK VINA RESULT:      -6.7     23.786     29.089
REMARK  Name = 11941658
REMARK  6 active torsions:
REMARK  status: ('A' for Active; 'I' for Inactive)
REMARK    1  A    between atoms: O_4  and  C_32
REMARK    2  A    between atoms: O_4  and  C_33
REMARK    3  A    between atoms: N_5  and  C_12
REMARK    4  A    between atoms: N_6  and  C_13
REMARK    5  A    between atoms: N_7  and  C_16
REMARK    6  A    between atoms: C_24  and  C_27
REMARK                            x       y       z     vdW  Elec       q    Type
REMARK                         _______ _______ _______ _____ _____    ______ ____
ROOT
ATOM      1  O   UNL     1       6.927   6.591  -2.778  0.00  0.00    -0.370 OA
ATOM      2  O   UNL     1       8.730   6.873  -5.309  0.00  0.00    -0.370 OA
ATOM     10  C   UNL     1       7.801   5.868  -4.869  0.00  0.00    +0.171 C 
ATOM     11  C   UNL     1       7.939   5.754  -3.364  0.00  0.00    +0.171 C 
ATOM     12  C   UNL     1       6.380   6.341  -5.073  0.00  0.00    +0.131 C 
ATOM     13  C   UNL     1       9.313   6.313  -3.074  0.00  0.00    +0.130 C 
ATOM     14  C   UNL     1       6.128   7.165  -3.823  0.00  0.00    +0.185 C 
ATOM     15  C   UNL     1       9.498   7.330  -4.186  0.00  0.00    +0.185 C 
ENDROOT
BRANCH  13   6
ATOM      6  N   UNL     1      10.306   5.266  -3.183  0.00  0.00    -0.306 N 
ATOM      8  N   UNL     1      10.540   5.120  -0.878  0.00  0.00    -0.214 NA
ATOM      9  N   UNL     1      11.819   3.711  -2.356  0.00  0.00    -0.223 NA
ATOM     23  C   UNL     1      10.915   4.674  -2.092  0.00  0.00    +0.216 A 
ATOM     24  C   UNL     1      11.154   4.520   0.163  0.00  0.00    +0.076 A 
ATOM     25  C   UNL     1      12.393   3.155  -1.270  0.00  0.00    +0.116 A 
ATOM     26  C   UNL     1      12.097   3.522   0.026  0.00  0.00    +0.048 A 
ATOM     35  H   UNL     1      10.544   4.899  -4.097  0.00  0.00    +0.149 HD
BRANCH  24  27
ATOM     27  C   UNL     1      10.755   4.995   1.467  0.00  0.00    +0.001 A 
ATOM     28  C   UNL     1      11.002   4.216   2.597  0.00  0.00    +0.013 A 
ATOM     29  C   UNL     1      10.122   6.231   1.596  0.00  0.00    +0.013 A 
ATOM     30  C   UNL     1      10.615   4.672   3.857  0.00  0.00    +0.046 A 
ATOM     31  C   UNL     1       9.735   6.689   2.856  0.00  0.00    +0.046 A 
ATOM     32  C   UNL     1       9.982   5.909   3.987  0.00  0.00    +0.120 A 
BRANCH  32   4
ATOM      4  O   UNL     1       9.607   6.355   5.216  0.00  0.00    -0.495 OA
ATOM     33  C   UNL     1       8.210   6.517   5.451  0.00  0.00    +0.277 C 
ENDBRANCH  32   4
ENDBRANCH  24  27
ENDBRANCH  13   6
BRANCH  12   5
ATOM      3  O   UNL     1       3.893   6.263  -6.515  0.00  0.00    -0.253 OA
ATOM      5  N   UNL     1       5.466   5.228  -5.159  0.00  0.00    -0.292 N 
ATOM      7  N   UNL     1       3.583   4.075  -5.803  0.00  0.00    -0.297 N 
ATOM     19  C   UNL     1       4.277   5.279  -5.884  0.00  0.00    +0.300 C 
ATOM     34  H   UNL     1       5.663   4.392  -4.616  0.00  0.00    +0.151 HD
ATOM     36  H   UNL     1       3.955   3.352  -5.195  0.00  0.00    +0.151 HD
BRANCH   7  16
ATOM     16  C   UNL     1       2.315   3.846  -6.460  0.00  0.00    +0.074 C 
ATOM     17  C   UNL     1       1.162   4.467  -5.666  0.00  0.00    +0.022 C 
ATOM     18  C   UNL     1       2.082   2.352  -6.703  0.00  0.00    +0.022 C 
ATOM     20  C   UNL     1       0.863   3.702  -4.376  0.00  0.00    +0.002 C 
ATOM     21  C   UNL     1       1.782   1.590  -5.412  0.00  0.00    +0.002 C 
ATOM     22  C   UNL     1       0.623   2.219  -4.644  0.00  0.00    +0.000 C 
ENDBRANCH   7  16
ENDBRANCH  12   5
TORSDOF 5
ENDMDL
MODEL 9
REMARK VINA RESULT:      -6.5     20.591     24.974
REMARK  Name = 11941658
REMARK  6 active torsions:
REMARK  status: ('A' for Active; 'I' for Inactive)
REMARK    1  A    between atoms: O_4  and  C_32
REMARK    2  A    between atoms: O_4  and  C_33
REMARK    3  A    between atoms: N_5  and  C_12
REMARK    4  A    between atoms: N_6  and  C_13
REMARK    5  A    between atoms: N_7  and  C_16
REMARK    6  A    between atoms: C_24  and  C_27
REMARK                            x       y       z     vdW  Elec       q    Type
REMARK                         _______ _______ _______ _____ _____    ______ ____
ROOT
ATOM      1  O   UNL     1      -2.679  10.908   4.494  0.00  0.00    -0.370 OA
ATOM      2  O   UNL     1      -1.969   9.280   7.058  0.00  0.00    -0.370 OA
ATOM     10  C   UNL     1      -3.200   9.529   6.361  0.00  0.00    +0.171 C 
ATOM     11  C   UNL     1      -3.150  10.956   5.852  0.00  0.00    +0.171 C 
ATOM     12  C   UNL     1      -3.270   8.692   5.104  0.00  0.00    +0.131 C 
ATOM     13  C   UNL     1      -2.127  11.629   6.737  0.00  0.00    +0.130 C 
ATOM     14  C   UNL     1      -2.498   9.538   4.106  0.00  0.00    +0.185 C 
ATOM     15  C   UNL     1      -1.192  10.487   7.092  0.00  0.00    +0.185 C 
ENDROOT
BRANCH  13   6
ATOM      6  N   UNL     1      -2.765  12.142   7.929  0.00  0.00    -0.306 N 
ATOM      8  N   UNL     1      -0.731  12.730   8.880  0.00  0.00    -0.214 NA
ATOM      9  N   UNL     1      -2.809  13.126  10.032  0.00  0.00    -0.223 NA
ATOM     23  C   UNL     1      -2.072  12.689   8.993  0.00  0.00    +0.216 A 
ATOM     24  C   UNL     1      -0.086  13.269   9.935  0.00  0.00    +0.076 A 
ATOM     25  C   UNL     1      -2.101  13.653  11.052  0.00  0.00    +0.116 A 
ATOM     26  C   UNL     1      -0.725  13.753  11.059  0.00  0.00    +0.048 A 
ATOM     35  H   UNL     1      -3.777  12.156   7.985  0.00  0.00    +0.149 HD
BRANCH  24  27
ATOM     27  C   UNL     1       1.352  13.316   9.817  0.00  0.00    +0.001 A 
ATOM     28  C   UNL     1       2.127  13.711  10.908  0.00  0.00    +0.013 A 
ATOM     29  C   UNL     1       1.966  12.967   8.615  0.00  0.00    +0.013 A 
ATOM     30  C   UNL     1       3.517  13.758  10.795  0.00  0.00    +0.046 A 
ATOM     31  C   UNL     1       3.356  13.013   8.502  0.00  0.00    +0.046 A 
ATOM     32  C   UNL     1       4.131  13.409   9.592  0.00  0.00    +0.120 A 
BRANCH  32   4
ATOM      4  O   UNL     1       5.487  13.452   9.483  0.00  0.00    -0.495 OA
ATOM     33  C   UNL     1       6.173  14.407  10.290  0.00  0.00    +0.277 C 
ENDBRANCH  32   4
ENDBRANCH  24  27
ENDBRANCH  13   6
BRANCH  12   5
ATOM      3  O   UNL     1      -4.735   6.218   5.088  0.00  0.00    -0.253 OA
ATOM      5  N   UNL     1      -4.635   8.499   4.679  0.00  0.00    -0.292 N 
ATOM      7  N   UNL     1      -6.579   7.349   4.245  0.00  0.00    -0.297 N 
ATOM     19  C   UNL     1      -5.268   7.259   4.706  0.00  0.00    +0.300 C 
ATOM     34  H   UNL     1      -5.139   9.288   4.282  0.00  0.00    +0.151 HD
ATOM     36  H   UNL     1      -6.895   8.244   3.885  0.00  0.00    +0.151 HD
BRANCH   7  16
ATOM     16  C   UNL     1      -7.470   6.213   4.164  0.00  0.00    +0.074 C 
ATOM     17  C   UNL     1      -8.737   6.561   3.378  0.00  0.00    +0.022 C 
ATOM     18  C   UNL     1      -7.810   5.679   5.559  0.00  0.00    +0.022 C 
ATOM     20  C   UNL     1      -9.668   7.494   4.153  0.00  0.00    +0.002 C 
ATOM     21  C   UNL     1      -8.742   6.614   6.331  0.00  0.00    +0.002 C 
ATOM     22  C   UNL     1     -10.002   6.937   5.533  0.00  0.00    +0.000 C 
ENDBRANCH   7  16
ENDBRANCH  12   5
TORSDOF 5
ENDMDL
MODEL 10
REMARK VINA RESULT:      -6.5     15.167     20.942
REMARK  Name = 11941658
REMARK  6 active torsions:
REMARK  status: ('A' for Active; 'I' for Inactive)
REMARK    1  A    between atoms: O_4  and  C_32
REMARK    2  A    between atoms: O_4  and  C_33
REMARK    3  A    between atoms: N_5  and  C_12
REMARK    4  A    between atoms: N_6  and  C_13
REMARK    5  A    between atoms: N_7  and  C_16
REMARK    6  A    between atoms: C_24  and  C_27
REMARK                            x       y       z     vdW  Elec       q    Type
REMARK                         _______ _______ _______ _____ _____    ______ ____
ROOT
ATOM      1  O   UNL     1      11.665   7.863   7.026  0.00  0.00    -0.370 OA
ATOM      2  O   UNL     1       8.738   7.315   6.095  0.00  0.00    -0.370 OA
ATOM     10  C   UNL     1       9.987   7.439   5.395  0.00  0.00    +0.171 C 
ATOM     11  C   UNL     1      10.790   8.518   6.092  0.00  0.00    +0.171 C 
ATOM     12  C   UNL     1      10.816   6.188   5.575  0.00  0.00    +0.131 C 
ATOM     13  C   UNL     1       9.754   9.334   6.829  0.00  0.00    +0.130 C 
ATOM     14  C   UNL     1      11.502   6.442   6.906  0.00  0.00    +0.185 C 
ATOM     15  C   UNL     1       8.677   8.307   7.130  0.00  0.00    +0.185 C 
ENDROOT
BRANCH  13   6
ATOM      6  N   UNL     1       9.231  10.368   5.963  0.00  0.00    -0.306 N 
ATOM      8  N   UNL     1       8.909  11.825   7.741  0.00  0.00    -0.214 NA
ATOM      9  N   UNL     1       8.351  12.464   5.487  0.00  0.00    -0.223 NA
ATOM     23  C   UNL     1       8.812  11.605   6.417  0.00  0.00    +0.216 A 
ATOM     24  C   UNL     1       8.492  13.042   8.150  0.00  0.00    +0.076 A 
ATOM     25  C   UNL     1       7.952  13.661   5.963  0.00  0.00    +0.116 A 
ATOM     26  C   UNL     1       8.000  14.010   7.297  0.00  0.00    +0.048 A 
ATOM     35  H   UNL     1       9.210  10.215   4.962  0.00  0.00    +0.149 HD
BRANCH  24  27
ATOM     27  C   UNL     1       8.596  13.282   9.569  0.00  0.00    +0.001 A 
ATOM     28  C   UNL     1       8.479  12.218  10.465  0.00  0.00    +0.013 A 
ATOM     29  C   UNL     1       8.811  14.574  10.046  0.00  0.00    +0.013 A 
ATOM     30  C   UNL     1       8.577  12.448  11.837  0.00  0.00    +0.046 A 
ATOM     31  C   UNL     1       8.910  14.805  11.419  0.00  0.00    +0.046 A 
ATOM     32  C   UNL     1       8.793  13.741  12.314  0.00  0.00    +0.120 A 
BRANCH  32   4
ATOM      4  O   UNL     1       8.891  13.965  13.653  0.00  0.00    -0.495 OA
ATOM     33  C   UNL     1       9.570  15.149  14.065  0.00  0.00    +0.277 C 
ENDBRANCH  32   4
ENDBRANCH  24  27
ENDBRANCH  13   6
BRANCH  12   5
ATOM      3  O   UNL     1      10.528   4.592   3.200  0.00  0.00    -0.253 OA
ATOM      5  N   UNL     1      11.779   6.041   4.511  0.00  0.00    -0.292 N 
ATOM      7  N   UNL     1      12.639   5.277   2.519  0.00  0.00    -0.297 N 
ATOM     19  C   UNL     1      11.554   5.243   3.391  0.00  0.00    +0.300 C 
ATOM     34  H   UNL     1      12.687   6.487   4.609  0.00  0.00    +0.151 HD
ATOM     36  H   UNL     1      13.466   5.789   2.809  0.00  0.00    +0.151 HD
BRANCH   7  16
ATOM     16  C   UNL     1      12.678   4.540   1.275  0.00  0.00    +0.074 C 
ATOM     17  C   UNL     1      13.469   3.237   1.431  0.00  0.00    +0.022 C 
ATOM     18  C   UNL     1      13.244   5.402   0.142  0.00  0.00    +0.022 C 
ATOM     20  C   UNL     1      14.972   3.479   1.570  0.00  0.00    +0.002 C 
ATOM     21  C   UNL     1      14.747   5.640   0.284  0.00  0.00    +0.002 C 
ATOM     22  C   UNL     1      15.514   4.329   0.426  0.00  0.00    +0.000 C 
ENDBRANCH   7  16
ENDBRANCH  12   5
TORSDOF 5
ENDMDL
