REMARK  Name = 40533521
REMARK  7 active torsions:
REMARK  status: ('A' for Active; 'I' for Inactive)
REMARK    1  A    between atoms: N_4  and  C_19
REMARK    2  A    between atoms: C_6  and  C_15
REMARK    3  A    between atoms: C_7  and  C_16
REMARK    4  A    between atoms: C_8  and  C_14
REMARK    5  A    between atoms: C_15  and  C_17
REMARK    6  A    between atoms: C_16  and  C_18
REMARK    7  A    between atoms: C_19  and  C_20
REMARK                            x       y       z     vdW  Elec       q    Type
REMARK                         _______ _______ _______ _____ _____    ______ ____
ROOT
ATOM      1  O   UNL     1      -5.170   0.261  -0.183  0.00  0.00    -0.275 OA
ATOM      3  N   UNL     1      -2.927   0.024   0.398  0.00  0.00    -0.301 N 
ATOM      6  C   UNL     1      -1.790  -1.853  -0.749  0.00  0.00    +0.010 C 
ATOM      7  C   UNL     1      -0.415  -1.313  -0.283  0.00  0.00    +0.004 C 
ATOM      9  C   UNL     1      -2.920  -1.427   0.200  0.00  0.00    +0.111 C 
ATOM     12  C   UNL     1      -0.511   0.208  -0.066  0.00  0.00    +0.023 C 
ATOM     13  C   UNL     1      -1.660   0.599   0.862  0.00  0.00    +0.108 C 
ATOM     14  C   UNL     1      -4.110   0.745   0.206  0.00  0.00    +0.219 C 
ENDROOT
BRANCH  14   8
ATOM      8  C   UNL     1      -4.076   2.211   0.494  0.00  0.00    +0.075 C 
ATOM     10  C   UNL     1      -5.057   3.114  -0.194  0.00  0.00    +0.013 C 
ATOM     11  C   UNL     1      -3.606   3.155  -0.574  0.00  0.00    +0.013 C 
ENDBRANCH  14   8
BRANCH   6  15
ATOM     15  C   UNL     1      -1.802  -3.368  -0.952  0.00  0.00    +0.002 C 
ATOM     17  C   UNL     1      -0.752  -3.792  -1.958  0.00  0.00    +0.004 C 
ENDBRANCH   6  15
BRANCH   7  16
ATOM     16  C   UNL     1       0.140  -2.011   0.964  0.00  0.00    +0.099 C 
BRANCH  16  18
ATOM      2  O   UNL     1       1.719  -0.935   2.448  0.00  0.00    -0.276 OA
ATOM      4  N   UNL     1       2.430  -1.664   0.359  0.00  0.00    -0.311 N 
ATOM     18  C   UNL     1       1.496  -1.472   1.366  0.00  0.00    +0.214 C 
ATOM     25  H   UNL     1       2.164  -2.154  -0.489  0.00  0.00    +0.149 HD
BRANCH   4  19
ATOM     19  C   UNL     1       3.809  -1.245   0.470  0.00  0.00    +0.141 C 
BRANCH  19  20
ATOM      5  N   UNL     1       4.374   2.494   0.463  0.00  0.00    -0.263 NA
ATOM     20  C   UNL     1       4.012   0.156  -0.032  0.00  0.00    -0.012 A 
ATOM     21  C   UNL     1       4.028   0.434  -1.394  0.00  0.00    +0.008 A 
ATOM     22  C   UNL     1       4.188   1.212   0.848  0.00  0.00    +0.115 A 
ATOM     23  C   UNL     1       4.216   1.741  -1.829  0.00  0.00    +0.020 A 
ATOM     24  C   UNL     1       4.383   2.726  -0.869  0.00  0.00    +0.111 A 
ENDBRANCH  19  20
ENDBRANCH   4  19
ENDBRANCH  16  18
ENDBRANCH   7  16
TORSDOF 6
