MODEL 1
REMARK VINA RESULT:      -7.4      0.000      0.000
REMARK  Name = 45784243
REMARK  3 active torsions:
REMARK  status: ('A' for Active; 'I' for Inactive)
REMARK    1  A    between atoms: N_3  and  C_7
REMARK    2  A    between atoms: C_8  and  C_16
REMARK    3  A    between atoms: C_17  and  C_20
REMARK                            x       y       z     vdW  Elec       q    Type
REMARK                         _______ _______ _______ _____ _____    ______ ____
ROOT
ATOM      3  N   UNL     1      14.387   7.441  20.803  0.00  0.00    -0.299 NA
ATOM      8  C   UNL     1      12.590   8.477  21.897  0.00  0.00    +0.070 C 
ATOM      9  C   UNL     1      14.121   8.485  21.794  0.00  0.00    +0.096 C 
ATOM     10  C   UNL     1      13.386   7.649  19.756  0.00  0.00    +0.085 C 
ATOM     11  C   UNL     1      12.112   7.904  20.551  0.00  0.00    +0.028 C 
ENDROOT
BRANCH   8  16
ATOM      1  F   UNL     1       9.865  14.372  25.151  0.00  0.00    -0.205 F 
ATOM      5  N   UNL     1      11.720  10.158  23.545  0.00  0.00    -0.341 N 
ATOM      6  N   UNL     1      11.739  10.808  21.419  0.00  0.00    -0.232 NA
ATOM     16  C   UNL     1      12.015   9.829  22.251  0.00  0.00    +0.113 A 
ATOM     18  C   UNL     1      11.220  11.436  23.549  0.00  0.00    +0.069 A 
ATOM     19  C   UNL     1      11.241  11.819  22.210  0.00  0.00    +0.089 A 
ATOM     21  C   UNL     1      10.765  12.262  24.575  0.00  0.00    +0.066 A 
ATOM     22  C   UNL     1      10.786  13.100  21.857  0.00  0.00    +0.032 A 
ATOM     23  C   UNL     1      10.315  13.535  24.207  0.00  0.00    +0.125 A 
ATOM     24  C   UNL     1      10.324  13.948  22.873  0.00  0.00    +0.040 A 
ATOM     25  H   UNL     1      11.847   9.568  24.357  0.00  0.00    +0.167 HD
ENDBRANCH   8  16
BRANCH   3   7
ATOM      2  O   UNL     1      19.825   4.658  20.098  0.00  0.00    -0.276 OA
ATOM      4  N   UNL     1      18.488   6.547  20.304  0.00  0.00    -0.302 N 
ATOM      7  C   UNL     1      15.752   7.496  20.286  0.00  0.00    +0.060 C 
ATOM     12  C   UNL     1      16.138   6.145  19.672  0.00  0.00    +0.038 C 
ATOM     13  C   UNL     1      16.726   7.871  21.413  0.00  0.00    +0.038 C 
ATOM     14  C   UNL     1      17.595   6.153  19.212  0.00  0.00    +0.109 C 
ATOM     15  C   UNL     1      18.172   7.843  20.918  0.00  0.00    +0.109 C 
ATOM     17  C   UNL     1      19.559   5.727  20.654  0.00  0.00    +0.212 C 
ATOM     20  C   UNL     1      20.429   6.202  21.791  0.00  0.00    +0.109 C 
ENDBRANCH   3   7
TORSDOF 2
ENDMDL
MODEL 2
REMARK VINA RESULT:      -7.3     27.769     28.954
REMARK  Name = 45784243
REMARK  3 active torsions:
REMARK  status: ('A' for Active; 'I' for Inactive)
REMARK    1  A    between atoms: N_3  and  C_7
REMARK    2  A    between atoms: C_8  and  C_16
REMARK    3  A    between atoms: C_17  and  C_20
REMARK                            x       y       z     vdW  Elec       q    Type
REMARK                         _______ _______ _______ _____ _____    ______ ____
ROOT
ATOM      3  N   UNL     1      -2.332 -11.154  11.986  0.00  0.00    -0.299 NA
ATOM      8  C   UNL     1      -2.388 -11.103  14.330  0.00  0.00    +0.070 C 
ATOM      9  C   UNL     1      -2.923 -10.386  13.083  0.00  0.00    +0.096 C 
ATOM     10  C   UNL     1      -2.478 -12.555  12.384  0.00  0.00    +0.085 C 
ATOM     11  C   UNL     1      -2.078 -12.533  13.854  0.00  0.00    +0.028 C 
ENDROOT
BRANCH   8  16
ATOM      1  F   UNL     1      -5.709 -11.545  20.776  0.00  0.00    -0.205 F 
ATOM      5  N   UNL     1      -3.007 -11.573  16.716  0.00  0.00    -0.341 N 
ATOM      6  N   UNL     1      -4.506 -10.435  15.535  0.00  0.00    -0.232 NA
ATOM     16  C   UNL     1      -3.329 -11.017  15.510  0.00  0.00    +0.113 A 
ATOM     18  C   UNL     1      -4.046 -11.333  17.579  0.00  0.00    +0.069 A 
ATOM     19  C   UNL     1      -4.970 -10.622  16.818  0.00  0.00    +0.089 A 
ATOM     21  C   UNL     1      -4.252 -11.668  18.917  0.00  0.00    +0.066 A 
ATOM     22  C   UNL     1      -6.175 -10.210  17.411  0.00  0.00    +0.032 A 
ATOM     23  C   UNL     1      -5.457 -11.251  19.493  0.00  0.00    +0.125 A 
ATOM     24  C   UNL     1      -6.402 -10.536  18.755  0.00  0.00    +0.040 A 
ATOM     25  H   UNL     1      -2.155 -12.072  16.938  0.00  0.00    +0.167 HD
ENDBRANCH   8  16
BRANCH   3   7
ATOM      2  O   UNL     1      -6.643  -8.091   8.849  0.00  0.00    -0.276 OA
ATOM      4  N   UNL     1      -5.229  -9.906   9.173  0.00  0.00    -0.302 N 
ATOM      7  C   UNL     1      -2.967 -10.872  10.702  0.00  0.00    +0.060 C 
ATOM     12  C   UNL     1      -3.278  -9.375  10.585  0.00  0.00    +0.038 C 
ATOM     13  C   UNL     1      -4.252 -11.699  10.558  0.00  0.00    +0.038 C 
ATOM     14  C   UNL     1      -4.029  -9.074   9.289  0.00  0.00    +0.109 C 
ATOM     15  C   UNL     1      -4.985 -11.351   9.262  0.00  0.00    +0.109 C 
ATOM     17  C   UNL     1      -6.469  -9.308   8.955  0.00  0.00    +0.212 C 
ATOM     20  C   UNL     1      -7.655 -10.233   8.851  0.00  0.00    +0.109 C 
ENDBRANCH   3   7
TORSDOF 2
ENDMDL
MODEL 3
REMARK VINA RESULT:      -7.3      3.943      8.144
REMARK  Name = 45784243
REMARK  3 active torsions:
REMARK  status: ('A' for Active; 'I' for Inactive)
REMARK    1  A    between atoms: N_3  and  C_7
REMARK    2  A    between atoms: C_8  and  C_16
REMARK    3  A    between atoms: C_17  and  C_20
REMARK                            x       y       z     vdW  Elec       q    Type
REMARK                         _______ _______ _______ _____ _____    ______ ____
ROOT
ATOM      3  N   UNL     1      11.110   9.332  21.481  0.00  0.00    -0.299 NA
ATOM      8  C   UNL     1      12.479   7.783  20.375  0.00  0.00    +0.070 C 
ATOM      9  C   UNL     1      12.350   9.276  20.705  0.00  0.00    +0.096 C 
ATOM     10  C   UNL     1      11.178   8.185  22.387  0.00  0.00    +0.085 C 
ATOM     11  C   UNL     1      11.685   7.069  21.483  0.00  0.00    +0.028 C 
ENDROOT
BRANCH   8  16
ATOM      1  F   UNL     1      19.550   6.332  21.188  0.00  0.00    -0.205 F 
ATOM      5  N   UNL     1      14.838   7.586  21.208  0.00  0.00    -0.341 N 
ATOM      6  N   UNL     1      14.437   6.678  19.220  0.00  0.00    -0.232 NA
ATOM     16  C   UNL     1      13.915   7.333  20.233  0.00  0.00    +0.113 A 
ATOM     18  C   UNL     1      16.037   7.060  20.798  0.00  0.00    +0.069 A 
ATOM     19  C   UNL     1      15.760   6.500  19.554  0.00  0.00    +0.089 A 
ATOM     21  C   UNL     1      17.299   7.028  21.389  0.00  0.00    +0.066 A 
ATOM     22  C   UNL     1      16.793   5.864  18.844  0.00  0.00    +0.032 A 
ATOM     23  C   UNL     1      18.316   6.392  20.669  0.00  0.00    +0.125 A 
ATOM     24  C   UNL     1      18.070   5.821  19.419  0.00  0.00    +0.040 A 
ATOM     25  H   UNL     1      14.671   8.074  22.079  0.00  0.00    +0.167 HD
ENDBRANCH   8  16
BRANCH   3   7
ATOM      2  O   UNL     1      13.776  14.225  24.083  0.00  0.00    -0.276 OA
ATOM      4  N   UNL     1      12.049  12.684  23.879  0.00  0.00    -0.302 N 
ATOM      7  C   UNL     1      10.955  10.597  22.196  0.00  0.00    +0.060 C 
ATOM     12  C   UNL     1      11.943  11.635  21.650  0.00  0.00    +0.038 C 
ATOM     13  C   UNL     1      11.180  10.382  23.699  0.00  0.00    +0.038 C 
ATOM     14  C   UNL     1      11.863  12.935  22.448  0.00  0.00    +0.109 C 
ATOM     15  C   UNL     1      11.116  11.708  24.457  0.00  0.00    +0.109 C 
ATOM     17  C   UNL     1      13.027  13.382  24.585  0.00  0.00    +0.212 C 
ATOM     20  C   UNL     1      13.157  13.064  26.053  0.00  0.00    +0.109 C 
ENDBRANCH   3   7
TORSDOF 2
ENDMDL
MODEL 4
REMARK VINA RESULT:      -7.2      4.855     10.103
REMARK  Name = 45784243
REMARK  3 active torsions:
REMARK  status: ('A' for Active; 'I' for Inactive)
REMARK    1  A    between atoms: N_3  and  C_7
REMARK    2  A    between atoms: C_8  and  C_16
REMARK    3  A    between atoms: C_17  and  C_20
REMARK                            x       y       z     vdW  Elec       q    Type
REMARK                         _______ _______ _______ _____ _____    ______ ____
ROOT
ATOM      3  N   UNL     1      16.572   7.350  20.379  0.00  0.00    -0.299 NA
ATOM      8  C   UNL     1      18.790   6.644  20.098  0.00  0.00    +0.070 C 
ATOM      9  C   UNL     1      17.838   7.295  21.110  0.00  0.00    +0.096 C 
ATOM     10  C   UNL     1      16.466   6.053  19.709  0.00  0.00    +0.085 C 
ATOM     11  C   UNL     1      17.871   5.838  19.162  0.00  0.00    +0.028 C 
ENDROOT
BRANCH   8  16
ATOM      1  F   UNL     1      23.935   1.837  21.883  0.00  0.00    -0.205 F 
ATOM      5  N   UNL     1      20.405   4.724  20.156  0.00  0.00    -0.341 N 
ATOM      6  N   UNL     1      20.462   6.089  21.909  0.00  0.00    -0.232 NA
ATOM     16  C   UNL     1      19.889   5.840  20.753  0.00  0.00    +0.113 A 
ATOM     18  C   UNL     1      21.376   4.218  20.982  0.00  0.00    +0.069 A 
ATOM     19  C   UNL     1      21.392   5.087  22.070  0.00  0.00    +0.089 A 
ATOM     21  C   UNL     1      22.215   3.109  20.875  0.00  0.00    +0.066 A 
ATOM     22  C   UNL     1      22.293   4.851  23.122  0.00  0.00    +0.032 A 
ATOM     23  C   UNL     1      23.105   2.888  21.931  0.00  0.00    +0.125 A 
ATOM     24  C   UNL     1      23.145   3.742  23.035  0.00  0.00    +0.040 A 
ATOM     25  H   UNL     1      20.124   4.337  19.265  0.00  0.00    +0.167 HD
ENDBRANCH   8  16
BRANCH   3   7
ATOM      2  O   UNL     1      10.629   8.836  20.915  0.00  0.00    -0.276 OA
ATOM      4  N   UNL     1      12.818   8.781  21.692  0.00  0.00    -0.302 N 
ATOM      7  C   UNL     1      15.433   7.618  21.254  0.00  0.00    +0.060 C 
ATOM     12  C   UNL     1      14.163   6.982  20.676  0.00  0.00    +0.038 C 
ATOM     13  C   UNL     1      15.245   9.132  21.423  0.00  0.00    +0.038 C 
ATOM     14  C   UNL     1      12.943   7.332  21.526  0.00  0.00    +0.109 C 
ATOM     15  C   UNL     1      14.002   9.439  22.258  0.00  0.00    +0.109 C 
ATOM     17  C   UNL     1      11.624   9.417  21.356  0.00  0.00    +0.212 C 
ATOM     20  C   UNL     1      11.577  10.912  21.553  0.00  0.00    +0.109 C 
ENDBRANCH   3   7
TORSDOF 2
ENDMDL
MODEL 5
REMARK VINA RESULT:      -7.0     27.449     28.845
REMARK  Name = 45784243
REMARK  3 active torsions:
REMARK  status: ('A' for Active; 'I' for Inactive)
REMARK    1  A    between atoms: N_3  and  C_7
REMARK    2  A    between atoms: C_8  and  C_16
REMARK    3  A    between atoms: C_17  and  C_20
REMARK                            x       y       z     vdW  Elec       q    Type
REMARK                         _______ _______ _______ _____ _____    ______ ____
ROOT
ATOM      3  N   UNL     1      -4.035 -11.134  15.807  0.00  0.00    -0.299 NA
ATOM      8  C   UNL     1      -5.643 -10.270  17.279  0.00  0.00    +0.070 C 
ATOM      9  C   UNL     1      -5.076 -10.106  15.863  0.00  0.00    +0.096 C 
ATOM     10  C   UNL     1      -4.633 -12.312  16.436  0.00  0.00    +0.085 C 
ATOM     11  C   UNL     1      -5.329 -11.728  17.658  0.00  0.00    +0.028 C 
ENDROOT
BRANCH   8  16
ATOM      1  F   UNL     1     -12.246  -7.319  16.593  0.00  0.00    -0.205 F 
ATOM      5  N   UNL     1      -7.627  -8.884  16.615  0.00  0.00    -0.341 N 
ATOM      6  N   UNL     1      -8.007 -10.437  18.158  0.00  0.00    -0.232 NA
ATOM     16  C   UNL     1      -7.103  -9.889  17.378  0.00  0.00    +0.113 A 
ATOM     18  C   UNL     1      -8.959  -8.775  16.923  0.00  0.00    +0.069 A 
ATOM     19  C   UNL     1      -9.172  -9.755  17.889  0.00  0.00    +0.089 A 
ATOM     21  C   UNL     1      -9.965  -7.930  16.455  0.00  0.00    +0.066 A 
ATOM     22  C   UNL     1     -10.458  -9.916  18.431  0.00  0.00    +0.032 A 
ATOM     23  C   UNL     1     -11.240  -8.103  17.005  0.00  0.00    +0.125 A 
ATOM     24  C   UNL     1     -11.484  -9.077  17.975  0.00  0.00    +0.040 A 
ATOM     25  H   UNL     1      -7.126  -8.319  15.942  0.00  0.00    +0.167 HD
ENDBRANCH   8  16
BRANCH   3   7
ATOM      2  O   UNL     1      -1.436  -9.009  10.655  0.00  0.00    -0.276 OA
ATOM      4  N   UNL     1      -2.848 -10.450  11.809  0.00  0.00    -0.302 N 
ATOM      7  C   UNL     1      -3.585 -11.399  14.443  0.00  0.00    +0.060 C 
ATOM     12  C   UNL     1      -2.243 -10.702  14.186  0.00  0.00    +0.038 C 
ATOM     13  C   UNL     1      -4.640 -10.918  13.438  0.00  0.00    +0.038 C 
ATOM     14  C   UNL     1      -1.802 -10.888  12.736  0.00  0.00    +0.109 C 
ATOM     15  C   UNL     1      -4.150 -11.100  12.002  0.00  0.00    +0.109 C 
ATOM     17  C   UNL     1      -2.550  -9.515  10.819  0.00  0.00    +0.212 C 
ATOM     20  C   UNL     1      -3.682  -9.113   9.907  0.00  0.00    +0.109 C 
ENDBRANCH   3   7
TORSDOF 2
ENDMDL
MODEL 6
REMARK VINA RESULT:      -6.8     27.664     29.479
REMARK  Name = 45784243
REMARK  3 active torsions:
REMARK  status: ('A' for Active; 'I' for Inactive)
REMARK    1  A    between atoms: N_3  and  C_7
REMARK    2  A    between atoms: C_8  and  C_16
REMARK    3  A    between atoms: C_17  and  C_20
REMARK                            x       y       z     vdW  Elec       q    Type
REMARK                         _______ _______ _______ _____ _____    ______ ____
ROOT
ATOM      3  N   UNL     1      -4.091 -11.570  16.776  0.00  0.00    -0.299 NA
ATOM      8  C   UNL     1      -3.600 -11.586  14.483  0.00  0.00    +0.070 C 
ATOM      9  C   UNL     1      -4.763 -11.481  15.479  0.00  0.00    +0.096 C 
ATOM     10  C   UNL     1      -2.904 -10.725  16.645  0.00  0.00    +0.085 C 
ATOM     11  C   UNL     1      -2.369 -11.101  15.269  0.00  0.00    +0.028 C 
ENDROOT
BRANCH   8  16
ATOM      1  F   UNL     1      -6.335  -7.726   8.971  0.00  0.00    -0.205 F 
ATOM      5  N   UNL     1      -5.054 -10.222  12.960  0.00  0.00    -0.341 N 
ATOM      6  N   UNL     1      -3.029 -10.707  12.184  0.00  0.00    -0.232 NA
ATOM     16  C   UNL     1      -3.860 -10.845  13.192  0.00  0.00    +0.113 A 
ATOM     18  C   UNL     1      -4.989  -9.642  11.718  0.00  0.00    +0.069 A 
ATOM     19  C   UNL     1      -3.716  -9.960  11.254  0.00  0.00    +0.089 A 
ATOM     21  C   UNL     1      -5.907  -8.892  10.984  0.00  0.00    +0.066 A 
ATOM     22  C   UNL     1      -3.317  -9.509   9.985  0.00  0.00    +0.032 A 
ATOM     23  C   UNL     1      -5.494  -8.451   9.722  0.00  0.00    +0.125 A 
ATOM     24  C   UNL     1      -4.223  -8.753   9.229  0.00  0.00    +0.040 A 
ATOM     25  H   UNL     1      -5.846 -10.191  13.588  0.00  0.00    +0.167 HD
ENDBRANCH   8  16
BRANCH   3   7
ATOM      2  O   UNL     1      -9.189 -12.529  20.077  0.00  0.00    -0.276 OA
ATOM      4  N   UNL     1      -7.528 -11.161  19.201  0.00  0.00    -0.302 N 
ATOM      7  C   UNL     1      -4.951 -11.154  17.880  0.00  0.00    +0.060 C 
ATOM     12  C   UNL     1      -5.459 -12.382  18.645  0.00  0.00    +0.038 C 
ATOM     13  C   UNL     1      -6.130 -10.329  17.345  0.00  0.00    +0.038 C 
ATOM     14  C   UNL     1      -6.437 -11.973  19.745  0.00  0.00    +0.109 C 
ATOM     15  C   UNL     1      -7.096  -9.962  18.472  0.00  0.00    +0.109 C 
ATOM     17  C   UNL     1      -8.851 -11.534  19.430  0.00  0.00    +0.212 C 
ATOM     20  C   UNL     1      -9.916 -10.647  18.833  0.00  0.00    +0.109 C 
ENDBRANCH   3   7
TORSDOF 2
ENDMDL
MODEL 7
REMARK VINA RESULT:      -6.6     27.358     29.191
REMARK  Name = 45784243
REMARK  3 active torsions:
REMARK  status: ('A' for Active; 'I' for Inactive)
REMARK    1  A    between atoms: N_3  and  C_7
REMARK    2  A    between atoms: C_8  and  C_16
REMARK    3  A    between atoms: C_17  and  C_20
REMARK                            x       y       z     vdW  Elec       q    Type
REMARK                         _______ _______ _______ _____ _____    ______ ____
ROOT
ATOM      3  N   UNL     1      -6.043 -10.950  17.690  0.00  0.00    -0.299 NA
ATOM      8  C   UNL     1      -7.956  -9.599  17.802  0.00  0.00    +0.070 C 
ATOM      9  C   UNL     1      -6.600  -9.733  17.098  0.00  0.00    +0.096 C 
ATOM     10  C   UNL     1      -7.160 -11.893  17.736  0.00  0.00    +0.085 C 
ATOM     11  C   UNL     1      -8.311 -11.032  18.238  0.00  0.00    +0.028 C 
ENDROOT
BRANCH   8  16
ATOM      1  F   UNL     1     -12.895  -5.153  14.868  0.00  0.00    -0.205 F 
ATOM      5  N   UNL     1      -9.528  -7.708  17.300  0.00  0.00    -0.341 N 
ATOM      6  N   UNL     1      -9.510  -9.369  15.823  0.00  0.00    -0.232 NA
ATOM     16  C   UNL     1      -9.001  -8.919  16.947  0.00  0.00    +0.113 A 
ATOM     18  C   UNL     1     -10.439  -7.352  16.338  0.00  0.00    +0.069 A 
ATOM     19  C   UNL     1     -10.410  -8.405  15.428  0.00  0.00    +0.089 A 
ATOM     21  C   UNL     1     -11.260  -6.235  16.191  0.00  0.00    +0.066 A 
ATOM     22  C   UNL     1     -11.243  -8.357  14.297  0.00  0.00    +0.032 A 
ATOM     23  C   UNL     1     -12.084  -6.202  15.060  0.00  0.00    +0.125 A 
ATOM     24  C   UNL     1     -12.077  -7.243  14.130  0.00  0.00    +0.040 A 
ATOM     25  H   UNL     1      -9.291  -7.168  18.121  0.00  0.00    +0.167 HD
ENDBRANCH   8  16
BRANCH   3   7
ATOM      2  O   UNL     1      -1.577  -9.910  13.593  0.00  0.00    -0.276 OA
ATOM      4  N   UNL     1      -3.090 -11.293  14.685  0.00  0.00    -0.302 N 
ATOM      7  C   UNL     1      -4.906 -11.470  16.934  0.00  0.00    +0.060 C 
ATOM     12  C   UNL     1      -3.782 -10.427  16.887  0.00  0.00    +0.038 C 
ATOM     13  C   UNL     1      -5.348 -11.845  15.513  0.00  0.00    +0.038 C 
ATOM     14  C   UNL     1      -2.623 -10.914  16.020  0.00  0.00    +0.109 C 
ATOM     15  C   UNL     1      -4.157 -12.303  14.672  0.00  0.00    +0.109 C 
ATOM     17  C   UNL     1      -2.497 -10.731  13.556  0.00  0.00    +0.212 C 
ATOM     20  C   UNL     1      -3.037 -11.172  12.219  0.00  0.00    +0.109 C 
ENDBRANCH   3   7
TORSDOF 2
ENDMDL
MODEL 8
REMARK VINA RESULT:      -6.5     28.329     30.940
REMARK  Name = 45784243
REMARK  3 active torsions:
REMARK  status: ('A' for Active; 'I' for Inactive)
REMARK    1  A    between atoms: N_3  and  C_7
REMARK    2  A    between atoms: C_8  and  C_16
REMARK    3  A    between atoms: C_17  and  C_20
REMARK                            x       y       z     vdW  Elec       q    Type
REMARK                         _______ _______ _______ _____ _____    ______ ____
ROOT
ATOM      3  N   UNL     1     -11.541  -8.138  16.047  0.00  0.00    -0.299 NA
ATOM      8  C   UNL     1      -9.606  -9.299  16.684  0.00  0.00    +0.070 C 
ATOM      9  C   UNL     1     -10.570  -9.091  15.509  0.00  0.00    +0.096 C 
ATOM     10  C   UNL     1     -10.741  -7.152  16.773  0.00  0.00    +0.085 C 
ATOM     11  C   UNL     1      -9.739  -8.018  17.527  0.00  0.00    +0.028 C 
ENDROOT
BRANCH   8  16
ATOM      1  F   UNL     1      -2.499 -10.719  16.187  0.00  0.00    -0.205 F 
ATOM      5  N   UNL     1      -7.172  -9.703  17.143  0.00  0.00    -0.341 N 
ATOM      6  N   UNL     1      -7.794  -9.860  15.015  0.00  0.00    -0.232 NA
ATOM     16  C   UNL     1      -8.198  -9.624  16.243  0.00  0.00    +0.113 A 
ATOM     18  C   UNL     1      -6.029 -10.012  16.450  0.00  0.00    +0.069 A 
ATOM     19  C   UNL     1      -6.443 -10.103  15.124  0.00  0.00    +0.089 A 
ATOM     21  C   UNL     1      -4.710 -10.211  16.856  0.00  0.00    +0.066 A 
ATOM     22  C   UNL     1      -5.499 -10.412  14.131  0.00  0.00    +0.032 A 
ATOM     23  C   UNL     1      -3.782 -10.518  15.855  0.00  0.00    +0.125 A 
ATOM     24  C   UNL     1      -4.167 -10.616  14.517  0.00  0.00    +0.040 A 
ATOM     25  H   UNL     1      -7.240  -9.562  18.142  0.00  0.00    +0.167 HD
ENDBRANCH   8  16
BRANCH   3   7
ATOM      2  O   UNL     1     -11.807  -5.291  10.603  0.00  0.00    -0.276 OA
ATOM      4  N   UNL     1     -12.628  -5.761  12.725  0.00  0.00    -0.302 N 
ATOM      7  C   UNL     1     -12.362  -7.528  15.004  0.00  0.00    +0.060 C 
ATOM     12  C   UNL     1     -11.828  -7.915  13.619  0.00  0.00    +0.038 C 
ATOM     13  C   UNL     1     -12.371  -6.002  15.167  0.00  0.00    +0.038 C 
ATOM     14  C   UNL     1     -12.614  -7.210  12.516  0.00  0.00    +0.109 C 
ATOM     15  C   UNL     1     -13.147  -5.335  14.031  0.00  0.00    +0.109 C 
ATOM     17  C   UNL     1     -12.206  -4.909  11.706  0.00  0.00    +0.212 C 
ATOM     20  C   UNL     1     -12.248  -3.431  12.002  0.00  0.00    +0.109 C 
ENDBRANCH   3   7
TORSDOF 2
ENDMDL
MODEL 9
REMARK VINA RESULT:      -6.4     28.398     30.216
REMARK  Name = 45784243
REMARK  3 active torsions:
REMARK  status: ('A' for Active; 'I' for Inactive)
REMARK    1  A    between atoms: N_3  and  C_7
REMARK    2  A    between atoms: C_8  and  C_16
REMARK    3  A    between atoms: C_17  and  C_20
REMARK                            x       y       z     vdW  Elec       q    Type
REMARK                         _______ _______ _______ _____ _____    ______ ____
ROOT
ATOM      3  N   UNL     1      -7.749 -12.065  19.495  0.00  0.00    -0.299 NA
ATOM      8  C   UNL     1      -9.640 -10.679  19.445  0.00  0.00    +0.070 C 
ATOM      9  C   UNL     1      -8.149 -10.719  19.084  0.00  0.00    +0.096 C 
ATOM     10  C   UNL     1      -8.834 -12.937  19.045  0.00  0.00    +0.085 C 
ATOM     11  C   UNL     1     -10.082 -12.154  19.436  0.00  0.00    +0.028 C 
ENDROOT
BRANCH   8  16
ATOM      1  F   UNL     1     -12.081  -5.435  15.051  0.00  0.00    -0.205 F 
ATOM      5  N   UNL     1      -9.892  -8.643  18.001  0.00  0.00    -0.341 N 
ATOM      6  N   UNL     1     -11.694  -9.931  18.178  0.00  0.00    -0.232 NA
ATOM     16  C   UNL     1     -10.442  -9.771  18.543  0.00  0.00    +0.113 A 
ATOM     18  C   UNL     1     -10.853  -8.034  17.235  0.00  0.00    +0.069 A 
ATOM     19  C   UNL     1     -11.969  -8.857  17.363  0.00  0.00    +0.089 A 
ATOM     21  C   UNL     1     -10.844  -6.870  16.467  0.00  0.00    +0.066 A 
ATOM     22  C   UNL     1     -13.154  -8.515  16.690  0.00  0.00    +0.032 A 
ATOM     23  C   UNL     1     -12.032  -6.543  15.804  0.00  0.00    +0.125 A 
ATOM     24  C   UNL     1     -13.167  -7.349  15.912  0.00  0.00    +0.040 A 
ATOM     25  H   UNL     1      -8.945  -8.313  18.137  0.00  0.00    +0.167 HD
ENDBRANCH   8  16
BRANCH   3   7
ATOM      2  O   UNL     1      -2.726 -10.479  16.323  0.00  0.00    -0.276 OA
ATOM      4  N   UNL     1      -4.288 -12.028  17.070  0.00  0.00    -0.302 N 
ATOM      7  C   UNL     1      -6.455 -12.457  18.941  0.00  0.00    +0.060 C 
ATOM     12  C   UNL     1      -5.434 -11.330  19.138  0.00  0.00    +0.038 C 
ATOM     13  C   UNL     1      -6.602 -12.793  17.451  0.00  0.00    +0.038 C 
ATOM     14  C   UNL     1      -4.101 -11.682  18.480  0.00  0.00    +0.109 C 
ATOM     15  C   UNL     1      -5.244 -13.115  16.826  0.00  0.00    +0.109 C 
ATOM     17  C   UNL     1      -3.551 -11.366  16.089  0.00  0.00    +0.212 C 
ATOM     20  C   UNL     1      -3.804 -11.778  14.661  0.00  0.00    +0.109 C 
ENDBRANCH   3   7
TORSDOF 2
ENDMDL
MODEL 10
REMARK VINA RESULT:      -6.4      4.995      6.027
REMARK  Name = 45784243
REMARK  3 active torsions:
REMARK  status: ('A' for Active; 'I' for Inactive)
REMARK    1  A    between atoms: N_3  and  C_7
REMARK    2  A    between atoms: C_8  and  C_16
REMARK    3  A    between atoms: C_17  and  C_20
REMARK                            x       y       z     vdW  Elec       q    Type
REMARK                         _______ _______ _______ _____ _____    ______ ____
ROOT
ATOM      3  N   UNL     1      17.514   6.973  21.197  0.00  0.00    -0.299 NA
ATOM      8  C   UNL     1      15.509   6.541  20.060  0.00  0.00    +0.070 C 
ATOM      9  C   UNL     1      16.182   7.548  21.003  0.00  0.00    +0.096 C 
ATOM     10  C   UNL     1      17.931   6.528  19.867  0.00  0.00    +0.085 C 
ATOM     11  C   UNL     1      16.675   5.857  19.325  0.00  0.00    +0.028 C 
ENDROOT
BRANCH   8  16
ATOM      1  F   UNL     1      11.877   9.999  14.804  0.00  0.00    -0.205 F 
ATOM      5  N   UNL     1      14.839   7.818  18.006  0.00  0.00    -0.341 N 
ATOM      6  N   UNL     1      13.176   7.197  19.343  0.00  0.00    -0.232 NA
ATOM     16  C   UNL     1      14.477   7.176  19.157  0.00  0.00    +0.113 A 
ATOM     18  C   UNL     1      13.696   8.284  17.408  0.00  0.00    +0.069 A 
ATOM     19  C   UNL     1      12.671   7.884  18.262  0.00  0.00    +0.089 A 
ATOM     21  C   UNL     1      13.476   8.999  16.231  0.00  0.00    +0.066 A 
ATOM     22  C   UNL     1      11.343   8.207  17.938  0.00  0.00    +0.032 A 
ATOM     23  C   UNL     1      12.148   9.312  15.923  0.00  0.00    +0.125 A 
ATOM     24  C   UNL     1      11.099   8.925  16.760  0.00  0.00    +0.040 A 
ATOM     25  H   UNL     1      15.781   7.931  17.654  0.00  0.00    +0.167 HD
ENDBRANCH   8  16
BRANCH   3   7
ATOM      2  O   UNL     1      20.649  12.235  20.647  0.00  0.00    -0.276 OA
ATOM      4  N   UNL     1      20.356  10.089  21.488  0.00  0.00    -0.302 N 
ATOM      7  C   UNL     1      18.453   7.926  21.784  0.00  0.00    +0.060 C 
ATOM     12  C   UNL     1      18.000   9.362  21.490  0.00  0.00    +0.038 C 
ATOM     13  C   UNL     1      19.863   7.685  21.228  0.00  0.00    +0.038 C 
ATOM     14  C   UNL     1      19.018  10.372  22.013  0.00  0.00    +0.109 C 
ATOM     15  C   UNL     1      20.845   8.731  21.756  0.00  0.00    +0.109 C 
ATOM     17  C   UNL     1      21.069  11.089  20.829  0.00  0.00    +0.212 C 
ATOM     20  C   UNL     1      22.437  10.716  20.315  0.00  0.00    +0.109 C 
ENDBRANCH   3   7
TORSDOF 2
ENDMDL
