MODEL 1
REMARK VINA RESULT:      -7.3      0.000      0.000
REMARK  Name = 38026621
REMARK  12 active torsions:
REMARK  status: ('A' for Active; 'I' for Inactive)
REMARK    1  A    between atoms: O_5  and  C_13
REMARK    2  A    between atoms: O_6  and  C_16
REMARK    3  A    between atoms: N_8  and  C_11
REMARK    4  A    between atoms: N_8  and  C_17
REMARK    5  A    between atoms: N_8  and  C_18
REMARK    6  A    between atoms: N_9  and  C_15
REMARK    7  A    between atoms: C_12  and  C_15
REMARK    8  A    between atoms: C_14  and  C_16
REMARK    9  A    between atoms: C_17  and  C_19
REMARK   10  A    between atoms: C_19  and  C_20
REMARK   11  A    between atoms: C_21  and  C_22
REMARK   12  A    between atoms: C_31  and  C_32
REMARK                            x       y       z     vdW  Elec       q    Type
REMARK                         _______ _______ _______ _____ _____    ______ ____
ROOT
ATOM      4  O   UNL     1     -17.116   5.017  23.291  0.00  0.00    -0.365 OA
ATOM     11  C   UNL     1     -17.458   3.249  24.848  0.00  0.00    +0.118 C 
ATOM     12  C   UNL     1     -16.608   4.487  24.535  0.00  0.00    +0.155 C 
ATOM     13  C   UNL     1     -17.932   2.802  23.475  0.00  0.00    +0.165 C 
ATOM     14  C   UNL     1     -18.160   4.151  22.802  0.00  0.00    +0.174 C 
ENDROOT
BRANCH  13   5
ATOM      5  O   UNL     1     -16.923   2.070  22.789  0.00  0.00    -0.388 OA
ATOM     33  H   UNL     1     -16.365   2.712  22.317  0.00  0.00    +0.210 HD
ENDBRANCH  13   5
BRANCH  11   8
ATOM      8  N   UNL     1     -16.821   2.219  25.650  0.00  0.00    -0.297 NA
ATOM     18  C   UNL     1     -17.662   1.020  25.723  0.00  0.00    +0.105 C 
BRANCH   8  17
ATOM     17  C   UNL     1     -16.532   2.713  27.001  0.00  0.00    +0.090 C 
BRANCH  17  19
ATOM     19  C   UNL     1     -16.870   1.657  28.054  0.00  0.00    +0.071 C 
BRANCH  19  20
ATOM     10  N   UNL     1     -15.328   0.075  29.079  0.00  0.00    -0.260 NA
ATOM     20  C   UNL     1     -15.690   1.371  28.949  0.00  0.00    +0.042 A 
ATOM     23  C   UNL     1     -15.048   2.423  29.581  0.00  0.00    +0.023 A 
ATOM     26  C   UNL     1     -13.964   2.126  30.398  0.00  0.00    +0.003 A 
ATOM     27  C   UNL     1     -14.270  -0.175  29.882  0.00  0.00    +0.111 A 
ATOM     28  C   UNL     1     -13.560   0.805  30.557  0.00  0.00    +0.020 A 
ENDBRANCH  19  20
ENDBRANCH  17  19
ENDBRANCH   8  17
ENDBRANCH  11   8
BRANCH  12  15
ATOM     15  C   UNL     1     -15.111   4.259  24.350  0.00  0.00    +0.137 C 
BRANCH  15   9
ATOM      7  O   UNL     1     -14.171   4.298  21.637  0.00  0.00    -0.270 OA
ATOM      9  N   UNL     1     -14.501   5.363  23.671  0.00  0.00    -0.309 N 
ATOM     21  C   UNL     1     -14.072   5.294  22.349  0.00  0.00    +0.244 C 
ATOM     34  H   UNL     1     -14.327   6.196  24.225  0.00  0.00    +0.149 HD
BRANCH  21  22
ATOM     22  C   UNL     1     -13.436   6.518  21.798  0.00  0.00    +0.037 A 
ATOM     24  C   UNL     1     -14.051   7.760  21.964  0.00  0.00    +0.013 A 
ATOM     25  C   UNL     1     -12.223   6.426  21.117  0.00  0.00    +0.013 A 
ATOM     29  C   UNL     1     -13.453   8.909  21.446  0.00  0.00    +0.013 A 
ATOM     30  C   UNL     1     -11.624   7.576  20.600  0.00  0.00    +0.013 A 
ATOM     31  C   UNL     1     -12.239   8.817  20.764  0.00  0.00    +0.055 A 
BRANCH  31  32
ATOM      1  F   UNL     1     -12.187  10.499  19.063  0.00  0.00    -0.166 F 
ATOM      2  F   UNL     1     -10.285   9.861  19.903  0.00  0.00    -0.166 F 
ATOM      3  F   UNL     1     -11.630  11.110  21.069  0.00  0.00    -0.166 F 
ATOM     32  C   UNL     1     -11.601  10.046  20.212  0.00  0.00    +0.417 C 
ENDBRANCH  31  32
ENDBRANCH  21  22
ENDBRANCH  15   9
ENDBRANCH  12  15
BRANCH  14  16
ATOM     16  C   UNL     1     -18.130   4.138  21.285  0.00  0.00    +0.190 C 
BRANCH  16   6
ATOM      6  O   UNL     1     -16.816   4.441  20.849  0.00  0.00    -0.392 OA
ATOM     35  H   UNL     1     -16.855   4.568  19.886  0.00  0.00    +0.210 HD
ENDBRANCH  16   6
ENDBRANCH  14  16
TORSDOF 11
ENDMDL
MODEL 2
REMARK VINA RESULT:      -6.7      5.079      9.114
REMARK  Name = 38026621
REMARK  12 active torsions:
REMARK  status: ('A' for Active; 'I' for Inactive)
REMARK    1  A    between atoms: O_5  and  C_13
REMARK    2  A    between atoms: O_6  and  C_16
REMARK    3  A    between atoms: N_8  and  C_11
REMARK    4  A    between atoms: N_8  and  C_17
REMARK    5  A    between atoms: N_8  and  C_18
REMARK    6  A    between atoms: N_9  and  C_15
REMARK    7  A    between atoms: C_12  and  C_15
REMARK    8  A    between atoms: C_14  and  C_16
REMARK    9  A    between atoms: C_17  and  C_19
REMARK   10  A    between atoms: C_19  and  C_20
REMARK   11  A    between atoms: C_21  and  C_22
REMARK   12  A    between atoms: C_31  and  C_32
REMARK                            x       y       z     vdW  Elec       q    Type
REMARK                         _______ _______ _______ _____ _____    ______ ____
ROOT
ATOM      4  O   UNL     1     -16.321   2.478  23.538  0.00  0.00    -0.365 OA
ATOM     11  C   UNL     1     -17.228   4.303  22.307  0.00  0.00    +0.118 C 
ATOM     12  C   UNL     1     -16.017   3.827  23.120  0.00  0.00    +0.155 C 
ATOM     13  C   UNL     1     -18.365   3.462  22.863  0.00  0.00    +0.165 C 
ATOM     14  C   UNL     1     -17.649   2.136  23.095  0.00  0.00    +0.174 C 
ENDROOT
BRANCH  13   5
ATOM      5  O   UNL     1     -18.847   3.986  24.094  0.00  0.00    -0.388 OA
ATOM     33  H   UNL     1     -19.301   4.824  23.899  0.00  0.00    +0.210 HD
ENDBRANCH  13   5
BRANCH  11   8
ATOM      8  N   UNL     1     -17.467   5.736  22.291  0.00  0.00    -0.297 NA
ATOM     18  C   UNL     1     -18.856   6.028  21.928  0.00  0.00    +0.105 C 
BRANCH   8  17
ATOM     17  C   UNL     1     -16.553   6.407  21.359  0.00  0.00    +0.090 C 
BRANCH  17  19
ATOM     19  C   UNL     1     -15.714   7.461  22.080  0.00  0.00    +0.071 C 
BRANCH  19  20
ATOM     10  N   UNL     1     -13.726   8.606  21.263  0.00  0.00    -0.260 NA
ATOM     20  C   UNL     1     -14.275   7.427  21.630  0.00  0.00    +0.042 A 
ATOM     23  C   UNL     1     -13.598   6.217  21.613  0.00  0.00    +0.023 A 
ATOM     26  C   UNL     1     -12.273   6.219  21.194  0.00  0.00    +0.003 A 
ATOM     27  C   UNL     1     -12.436   8.569  20.862  0.00  0.00    +0.111 A 
ATOM     28  C   UNL     1     -11.673   7.413  20.810  0.00  0.00    +0.020 A 
ENDBRANCH  19  20
ENDBRANCH  17  19
ENDBRANCH   8  17
ENDBRANCH  11   8
BRANCH  12  15
ATOM     15  C   UNL     1     -15.681   4.624  24.377  0.00  0.00    +0.137 C 
BRANCH  15   9
ATOM      7  O   UNL     1     -17.398   4.459  26.672  0.00  0.00    -0.270 OA
ATOM      9  N   UNL     1     -15.518   3.759  25.508  0.00  0.00    -0.309 N 
ATOM     21  C   UNL     1     -16.402   3.745  26.582  0.00  0.00    +0.244 C 
ATOM     34  H   UNL     1     -14.676   3.193  25.528  0.00  0.00    +0.149 HD
BRANCH  21  22
ATOM     22  C   UNL     1     -16.078   2.809  27.689  0.00  0.00    +0.037 A 
ATOM     24  C   UNL     1     -15.293   3.239  28.760  0.00  0.00    +0.013 A 
ATOM     25  C   UNL     1     -16.559   1.501  27.658  0.00  0.00    +0.013 A 
ATOM     29  C   UNL     1     -14.989   2.359  29.798  0.00  0.00    +0.013 A 
ATOM     30  C   UNL     1     -16.255   0.621  28.697  0.00  0.00    +0.013 A 
ATOM     31  C   UNL     1     -15.470   1.050  29.767  0.00  0.00    +0.055 A 
BRANCH  31  32
ATOM      1  F   UNL     1     -13.927  -0.496  30.744  0.00  0.00    -0.166 F 
ATOM      2  F   UNL     1     -16.049  -0.904  30.992  0.00  0.00    -0.166 F 
ATOM      3  F   UNL     1     -15.109   0.708  32.107  0.00  0.00    -0.166 F 
ATOM     32  C   UNL     1     -15.144   0.111  30.879  0.00  0.00    +0.417 C 
ENDBRANCH  31  32
ENDBRANCH  21  22
ENDBRANCH  15   9
ENDBRANCH  12  15
BRANCH  14  16
ATOM     16  C   UNL     1     -18.294   1.214  24.113  0.00  0.00    +0.190 C 
BRANCH  16   6
ATOM      6  O   UNL     1     -17.376   0.187  24.449  0.00  0.00    -0.392 OA
ATOM     35  H   UNL     1     -17.889  -0.631  24.563  0.00  0.00    +0.210 HD
ENDBRANCH  16   6
ENDBRANCH  14  16
TORSDOF 11
ENDMDL
MODEL 3
REMARK VINA RESULT:      -6.7     20.147     21.723
REMARK  Name = 38026621
REMARK  12 active torsions:
REMARK  status: ('A' for Active; 'I' for Inactive)
REMARK    1  A    between atoms: O_5  and  C_13
REMARK    2  A    between atoms: O_6  and  C_16
REMARK    3  A    between atoms: N_8  and  C_11
REMARK    4  A    between atoms: N_8  and  C_17
REMARK    5  A    between atoms: N_8  and  C_18
REMARK    6  A    between atoms: N_9  and  C_15
REMARK    7  A    between atoms: C_12  and  C_15
REMARK    8  A    between atoms: C_14  and  C_16
REMARK    9  A    between atoms: C_17  and  C_19
REMARK   10  A    between atoms: C_19  and  C_20
REMARK   11  A    between atoms: C_21  and  C_22
REMARK   12  A    between atoms: C_31  and  C_32
REMARK                            x       y       z     vdW  Elec       q    Type
REMARK                         _______ _______ _______ _____ _____    ______ ____
ROOT
ATOM      4  O   UNL     1      -7.759  -9.926   9.727  0.00  0.00    -0.365 OA
ATOM     11  C   UNL     1      -5.412 -10.095  10.090  0.00  0.00    +0.118 C 
ATOM     12  C   UNL     1      -6.784 -10.128  10.774  0.00  0.00    +0.155 C 
ATOM     13  C   UNL     1      -5.665  -9.247   8.854  0.00  0.00    +0.165 C 
ATOM     14  C   UNL     1      -7.070  -9.706   8.480  0.00  0.00    +0.174 C 
ENDROOT
BRANCH  13   5
ATOM      5  O   UNL     1      -5.665  -7.859   9.166  0.00  0.00    -0.388 OA
ATOM     33  H   UNL     1      -4.886  -7.682   9.720  0.00  0.00    +0.210 HD
ENDBRANCH  13   5
BRANCH  11   8
ATOM      8  N   UNL     1      -4.294  -9.671  10.914  0.00  0.00    -0.297 NA
ATOM     18  C   UNL     1      -3.185  -9.192  10.083  0.00  0.00    +0.105 C 
BRANCH   8  17
ATOM     17  C   UNL     1      -3.837 -10.765  11.778  0.00  0.00    +0.090 C 
BRANCH  17  19
ATOM     19  C   UNL     1      -2.475 -10.445  12.394  0.00  0.00    +0.071 C 
BRANCH  19  20
ATOM     10  N   UNL     1      -1.351 -10.302  14.550  0.00  0.00    -0.260 NA
ATOM     20  C   UNL     1      -2.508 -10.558  13.898  0.00  0.00    +0.042 A 
ATOM     23  C   UNL     1      -3.692 -10.908  14.526  0.00  0.00    +0.023 A 
ATOM     26  C   UNL     1      -3.689 -11.002  15.913  0.00  0.00    +0.003 A 
ATOM     27  C   UNL     1      -1.387 -10.404  15.897  0.00  0.00    +0.111 A 
ATOM     28  C   UNL     1      -2.519 -10.747  16.619  0.00  0.00    +0.020 A 
ENDBRANCH  19  20
ENDBRANCH  17  19
ENDBRANCH   8  17
ENDBRANCH  11   8
BRANCH  12  15
ATOM     15  C   UNL     1      -7.043  -9.068  11.841  0.00  0.00    +0.137 C 
BRANCH  15   9
ATOM      7  O   UNL     1      -9.036  -9.724  13.801  0.00  0.00    -0.270 OA
ATOM      9  N   UNL     1      -6.812  -9.591  13.154  0.00  0.00    -0.309 N 
ATOM     21  C   UNL     1      -7.842  -9.882  14.044  0.00  0.00    +0.244 C 
ATOM     34  H   UNL     1      -5.843  -9.678  13.443  0.00  0.00    +0.149 HD
BRANCH  21  22
ATOM     22  C   UNL     1      -7.435 -10.393  15.378  0.00  0.00    +0.037 A 
ATOM     24  C   UNL     1      -7.318 -11.767  15.593  0.00  0.00    +0.013 A 
ATOM     25  C   UNL     1      -7.169  -9.499  16.415  0.00  0.00    +0.013 A 
ATOM     29  C   UNL     1      -6.936 -12.246  16.846  0.00  0.00    +0.013 A 
ATOM     30  C   UNL     1      -6.786  -9.979  17.668  0.00  0.00    +0.013 A 
ATOM     31  C   UNL     1      -6.670 -11.352  17.883  0.00  0.00    +0.055 A 
BRANCH  31  32
ATOM      1  F   UNL     1      -5.053 -12.504  19.219  0.00  0.00    -0.166 F 
ATOM      2  F   UNL     1      -7.149 -12.767  19.733  0.00  0.00    -0.166 F 
ATOM      3  F   UNL     1      -6.145 -10.889  20.171  0.00  0.00    -0.166 F 
ATOM     32  C   UNL     1      -6.261 -11.866  19.222  0.00  0.00    +0.417 C 
ENDBRANCH  31  32
ENDBRANCH  21  22
ENDBRANCH  15   9
ENDBRANCH  12  15
BRANCH  14  16
ATOM     16  C   UNL     1      -7.870  -8.736   7.630  0.00  0.00    +0.190 C 
BRANCH  16   6
ATOM      6  O   UNL     1      -7.011  -8.157   6.662  0.00  0.00    -0.392 OA
ATOM     35  H   UNL     1      -7.400  -8.335   5.789  0.00  0.00    +0.210 HD
ENDBRANCH  16   6
ENDBRANCH  14  16
TORSDOF 11
ENDMDL
MODEL 4
REMARK VINA RESULT:      -6.6     17.967     19.330
REMARK  Name = 38026621
REMARK  12 active torsions:
REMARK  status: ('A' for Active; 'I' for Inactive)
REMARK    1  A    between atoms: O_5  and  C_13
REMARK    2  A    between atoms: O_6  and  C_16
REMARK    3  A    between atoms: N_8  and  C_11
REMARK    4  A    between atoms: N_8  and  C_17
REMARK    5  A    between atoms: N_8  and  C_18
REMARK    6  A    between atoms: N_9  and  C_15
REMARK    7  A    between atoms: C_12  and  C_15
REMARK    8  A    between atoms: C_14  and  C_16
REMARK    9  A    between atoms: C_17  and  C_19
REMARK   10  A    between atoms: C_19  and  C_20
REMARK   11  A    between atoms: C_21  and  C_22
REMARK   12  A    between atoms: C_31  and  C_32
REMARK                            x       y       z     vdW  Elec       q    Type
REMARK                         _______ _______ _______ _____ _____    ______ ____
ROOT
ATOM      4  O   UNL     1      -6.086 -11.644  17.536  0.00  0.00    -0.365 OA
ATOM     11  C   UNL     1      -8.213 -11.376  18.571  0.00  0.00    +0.118 C 
ATOM     12  C   UNL     1      -7.414 -11.133  17.285  0.00  0.00    +0.155 C 
ATOM     13  C   UNL     1      -7.136 -11.402  19.644  0.00  0.00    +0.165 C 
ATOM     14  C   UNL     1      -6.011 -12.110  18.898  0.00  0.00    +0.174 C 
ENDROOT
BRANCH  13   5
ATOM      5  O   UNL     1      -6.735 -10.087  20.011  0.00  0.00    -0.388 OA
ATOM     33  H   UNL     1      -6.787 -10.023  20.980  0.00  0.00    +0.210 HD
ENDBRANCH  13   5
BRANCH  11   8
ATOM      8  N   UNL     1      -9.317 -10.466  18.823  0.00  0.00    -0.297 NA
ATOM     18  C   UNL     1     -10.034 -10.841  20.045  0.00  0.00    +0.105 C 
BRANCH   8  17
ATOM     17  C   UNL     1     -10.243 -10.442  17.685  0.00  0.00    +0.090 C 
BRANCH  17  19
ATOM     19  C   UNL     1     -11.485  -9.613  18.008  0.00  0.00    +0.071 C 
BRANCH  19  20
ATOM     10  N   UNL     1     -12.811  -8.119  16.614  0.00  0.00    -0.260 NA
ATOM     20  C   UNL     1     -11.588  -8.400  17.117  0.00  0.00    +0.042 A 
ATOM     23  C   UNL     1     -10.453  -7.647  16.864  0.00  0.00    +0.023 A 
ATOM     26  C   UNL     1     -10.581  -6.535  16.040  0.00  0.00    +0.003 A 
ATOM     27  C   UNL     1     -12.897  -7.031  15.817  0.00  0.00    +0.111 A 
ATOM     28  C   UNL     1     -11.822  -6.213  15.503  0.00  0.00    +0.020 A 
ENDBRANCH  19  20
ENDBRANCH  17  19
ENDBRANCH   8  17
ENDBRANCH  11   8
BRANCH  12  15
ATOM     15  C   UNL     1      -7.262  -9.683  16.837  0.00  0.00    +0.137 C 
BRANCH  15   9
ATOM      7  O   UNL     1      -8.285 -10.080  14.183  0.00  0.00    -0.270 OA
ATOM      9  N   UNL     1      -6.523  -9.596  15.613  0.00  0.00    -0.309 N 
ATOM     21  C   UNL     1      -7.101  -9.805  14.364  0.00  0.00    +0.244 C 
ATOM     34  H   UNL     1      -5.524  -9.440  15.697  0.00  0.00    +0.149 HD
BRANCH  21  22
ATOM     22  C   UNL     1      -6.193  -9.704  13.193  0.00  0.00    +0.037 A 
ATOM     24  C   UNL     1      -6.571  -8.954  12.078  0.00  0.00    +0.013 A 
ATOM     25  C   UNL     1      -4.962 -10.358  13.208  0.00  0.00    +0.013 A 
ATOM     29  C   UNL     1      -5.718  -8.861  10.979  0.00  0.00    +0.013 A 
ATOM     30  C   UNL     1      -4.108 -10.264  12.109  0.00  0.00    +0.013 A 
ATOM     31  C   UNL     1      -4.486  -9.515  10.994  0.00  0.00    +0.055 A 
BRANCH  31  32
ATOM      1  F   UNL     1      -2.286  -9.103  10.150  0.00  0.00    -0.166 F 
ATOM      2  F   UNL     1      -3.966  -8.454   8.931  0.00  0.00    -0.166 F 
ATOM      3  F   UNL     1      -3.487 -10.568   9.093  0.00  0.00    -0.166 F 
ATOM     32  C   UNL     1      -3.575  -9.414   9.818  0.00  0.00    +0.417 C 
ENDBRANCH  31  32
ENDBRANCH  21  22
ENDBRANCH  15   9
ENDBRANCH  12  15
BRANCH  14  16
ATOM     16  C   UNL     1      -4.614 -11.865  19.436  0.00  0.00    +0.190 C 
BRANCH  16   6
ATOM      6  O   UNL     1      -3.756 -12.896  18.974  0.00  0.00    -0.392 OA
ATOM     35  H   UNL     1      -3.188 -13.152  19.720  0.00  0.00    +0.210 HD
ENDBRANCH  16   6
ENDBRANCH  14  16
TORSDOF 11
ENDMDL
MODEL 5
REMARK VINA RESULT:      -6.6     20.077     21.533
REMARK  Name = 38026621
REMARK  12 active torsions:
REMARK  status: ('A' for Active; 'I' for Inactive)
REMARK    1  A    between atoms: O_5  and  C_13
REMARK    2  A    between atoms: O_6  and  C_16
REMARK    3  A    between atoms: N_8  and  C_11
REMARK    4  A    between atoms: N_8  and  C_17
REMARK    5  A    between atoms: N_8  and  C_18
REMARK    6  A    between atoms: N_9  and  C_15
REMARK    7  A    between atoms: C_12  and  C_15
REMARK    8  A    between atoms: C_14  and  C_16
REMARK    9  A    between atoms: C_17  and  C_19
REMARK   10  A    between atoms: C_19  and  C_20
REMARK   11  A    between atoms: C_21  and  C_22
REMARK   12  A    between atoms: C_31  and  C_32
REMARK                            x       y       z     vdW  Elec       q    Type
REMARK                         _______ _______ _______ _____ _____    ______ ____
ROOT
ATOM      4  O   UNL     1      -6.063 -10.413   9.933  0.00  0.00    -0.365 OA
ATOM     11  C   UNL     1      -4.066 -10.827  11.161  0.00  0.00    +0.118 C 
ATOM     12  C   UNL     1      -5.571 -10.557  11.284  0.00  0.00    +0.155 C 
ATOM     13  C   UNL     1      -3.709 -10.182   9.832  0.00  0.00    +0.165 C 
ATOM     14  C   UNL     1      -4.955 -10.509   9.016  0.00  0.00    +0.174 C 
ENDROOT
BRANCH  13   5
ATOM      5  O   UNL     1      -3.557  -8.774   9.961  0.00  0.00    -0.388 OA
ATOM     33  H   UNL     1      -3.765  -8.539  10.882  0.00  0.00    +0.210 HD
ENDBRANCH  13   5
BRANCH  11   8
ATOM      8  N   UNL     1      -3.247 -10.419  12.289  0.00  0.00    -0.297 NA
ATOM     18  C   UNL     1      -1.841 -10.292  11.893  0.00  0.00    +0.105 C 
BRANCH   8  17
ATOM     17  C   UNL     1      -3.372 -11.371  13.398  0.00  0.00    +0.090 C 
BRANCH  17  19
ATOM     19  C   UNL     1      -3.180 -10.672  14.744  0.00  0.00    +0.071 C 
BRANCH  19  20
ATOM     10  N   UNL     1      -4.411 -12.618  15.537  0.00  0.00    -0.260 NA
ATOM     20  C   UNL     1      -3.763 -11.480  15.875  0.00  0.00    +0.042 A 
ATOM     23  C   UNL     1      -3.612 -11.032  17.178  0.00  0.00    +0.023 A 
ATOM     26  C   UNL     1      -4.160 -11.800  18.198  0.00  0.00    +0.003 A 
ATOM     27  C   UNL     1      -4.931 -13.338  16.555  0.00  0.00    +0.111 A 
ATOM     28  C   UNL     1      -4.833 -12.977  17.890  0.00  0.00    +0.020 A 
ENDBRANCH  19  20
ENDBRANCH  17  19
ENDBRANCH   8  17
ENDBRANCH  11   8
BRANCH  12  15
ATOM     15  C   UNL     1      -5.981  -9.303  12.049  0.00  0.00    +0.137 C 
BRANCH  15   9
ATOM      7  O   UNL     1      -8.247 -10.709  13.114  0.00  0.00    -0.270 OA
ATOM      9  N   UNL     1      -6.234  -9.598  13.427  0.00  0.00    -0.309 N 
ATOM     21  C   UNL     1      -7.364 -10.288  13.858  0.00  0.00    +0.244 C 
ATOM     34  H   UNL     1      -5.577  -9.217  14.100  0.00  0.00    +0.149 HD
BRANCH  21  22
ATOM     22  C   UNL     1      -7.492 -10.492  15.323  0.00  0.00    +0.037 A 
ATOM     24  C   UNL     1      -6.963  -9.551  16.208  0.00  0.00    +0.013 A 
ATOM     25  C   UNL     1      -8.141 -11.624  15.815  0.00  0.00    +0.013 A 
ATOM     29  C   UNL     1      -7.084  -9.744  17.584  0.00  0.00    +0.013 A 
ATOM     30  C   UNL     1      -8.262 -11.816  17.192  0.00  0.00    +0.013 A 
ATOM     31  C   UNL     1      -7.733 -10.876  18.076  0.00  0.00    +0.055 A 
BRANCH  31  32
ATOM      1  F   UNL     1      -9.053 -10.648  20.059  0.00  0.00    -0.166 F 
ATOM      2  F   UNL     1      -6.899 -10.421  20.256  0.00  0.00    -0.166 F 
ATOM      3  F   UNL     1      -7.765 -12.388  19.929  0.00  0.00    -0.166 F 
ATOM     32  C   UNL     1      -7.861 -11.080  19.548  0.00  0.00    +0.417 C 
ENDBRANCH  31  32
ENDBRANCH  21  22
ENDBRANCH  15   9
ENDBRANCH  12  15
BRANCH  14  16
ATOM     16  C   UNL     1      -5.212  -9.605   7.825  0.00  0.00    +0.190 C 
BRANCH  16   6
ATOM      6  O   UNL     1      -5.946  -8.471   8.258  0.00  0.00    -0.392 OA
ATOM     35  H   UNL     1      -6.888  -8.673   8.129  0.00  0.00    +0.210 HD
ENDBRANCH  16   6
ENDBRANCH  14  16
TORSDOF 11
ENDMDL
MODEL 6
REMARK VINA RESULT:      -6.5     30.946     34.689
REMARK  Name = 38026621
REMARK  12 active torsions:
REMARK  status: ('A' for Active; 'I' for Inactive)
REMARK    1  A    between atoms: O_5  and  C_13
REMARK    2  A    between atoms: O_6  and  C_16
REMARK    3  A    between atoms: N_8  and  C_11
REMARK    4  A    between atoms: N_8  and  C_17
REMARK    5  A    between atoms: N_8  and  C_18
REMARK    6  A    between atoms: N_9  and  C_15
REMARK    7  A    between atoms: C_12  and  C_15
REMARK    8  A    between atoms: C_14  and  C_16
REMARK    9  A    between atoms: C_17  and  C_19
REMARK   10  A    between atoms: C_19  and  C_20
REMARK   11  A    between atoms: C_21  and  C_22
REMARK   12  A    between atoms: C_31  and  C_32
REMARK                            x       y       z     vdW  Elec       q    Type
REMARK                         _______ _______ _______ _____ _____    ______ ____
ROOT
ATOM      4  O   UNL     1      15.492   6.698  -0.013  0.00  0.00    -0.365 OA
ATOM     11  C   UNL     1      13.785   5.193   0.686  0.00  0.00    +0.118 C 
ATOM     12  C   UNL     1      14.401   6.577   0.926  0.00  0.00    +0.155 C 
ATOM     13  C   UNL     1      14.944   4.398   0.106  0.00  0.00    +0.165 C 
ATOM     14  C   UNL     1      15.618   5.465  -0.749  0.00  0.00    +0.174 C 
ENDROOT
BRANCH  13   5
ATOM      5  O   UNL     1      15.829   3.949   1.125  0.00  0.00    -0.388 OA
ATOM     33  H   UNL     1      15.329   3.924   1.959  0.00  0.00    +0.210 HD
ENDBRANCH  13   5
BRANCH  11   8
ATOM      8  N   UNL     1      13.120   4.580   1.822  0.00  0.00    -0.297 NA
ATOM     18  C   UNL     1      12.972   3.135   1.623  0.00  0.00    +0.105 C 
BRANCH   8  17
ATOM     17  C   UNL     1      11.807   5.192   2.052  0.00  0.00    +0.090 C 
BRANCH  17  19
ATOM     19  C   UNL     1      11.146   4.617   3.305  0.00  0.00    +0.071 C 
BRANCH  19  20
ATOM     10  N   UNL     1       9.445   5.142   4.966  0.00  0.00    -0.260 NA
ATOM     20  C   UNL     1      10.082   5.540   3.842  0.00  0.00    +0.042 A 
ATOM     23  C   UNL     1       9.812   6.725   3.176  0.00  0.00    +0.023 A 
ATOM     26  C   UNL     1       8.826   7.554   3.697  0.00  0.00    +0.003 A 
ATOM     27  C   UNL     1       8.493   5.974   5.444  0.00  0.00    +0.111 A 
ATOM     28  C   UNL     1       8.149   7.179   4.853  0.00  0.00    +0.020 A 
ENDBRANCH  19  20
ENDBRANCH  17  19
ENDBRANCH   8  17
ENDBRANCH  11   8
BRANCH  12  15
ATOM     15  C   UNL     1      14.971   6.840   2.316  0.00  0.00    +0.137 C 
BRANCH  15   9
ATOM      7  O   UNL     1      15.227   7.164   5.158  0.00  0.00    -0.270 OA
ATOM      9  N   UNL     1      13.944   7.250   3.226  0.00  0.00    -0.309 N 
ATOM     21  C   UNL     1      14.156   7.381   4.596  0.00  0.00    +0.244 C 
ATOM     34  H   UNL     1      13.016   7.377   2.836  0.00  0.00    +0.149 HD
BRANCH  21  22
ATOM     22  C   UNL     1      12.981   7.789   5.407  0.00  0.00    +0.037 A 
ATOM     24  C   UNL     1      12.400   9.044   5.214  0.00  0.00    +0.013 A 
ATOM     25  C   UNL     1      12.457   6.918   6.363  0.00  0.00    +0.013 A 
ATOM     29  C   UNL     1      11.297   9.426   5.977  0.00  0.00    +0.013 A 
ATOM     30  C   UNL     1      11.354   7.301   7.125  0.00  0.00    +0.013 A 
ATOM     31  C   UNL     1      10.774   8.555   6.933  0.00  0.00    +0.055 A 
BRANCH  31  32
ATOM      1  F   UNL     1       8.886   7.913   8.255  0.00  0.00    -0.166 F 
ATOM      2  F   UNL     1       8.694   9.703   7.034  0.00  0.00    -0.166 F 
ATOM      3  F   UNL     1       9.918   9.732   8.831  0.00  0.00    -0.166 F 
ATOM     32  C   UNL     1       9.594   8.966   7.747  0.00  0.00    +0.417 C 
ENDBRANCH  31  32
ENDBRANCH  21  22
ENDBRANCH  15   9
ENDBRANCH  12  15
BRANCH  14  16
ATOM     16  C   UNL     1      17.081   5.220  -1.068  0.00  0.00    +0.190 C 
BRANCH  16   6
ATOM      6  O   UNL     1      17.309   3.822  -1.132  0.00  0.00    -0.392 OA
ATOM     35  H   UNL     1      17.075   3.453  -0.264  0.00  0.00    +0.210 HD
ENDBRANCH  16   6
ENDBRANCH  14  16
TORSDOF 11
ENDMDL
MODEL 7
REMARK VINA RESULT:      -6.5     19.860     21.240
REMARK  Name = 38026621
REMARK  12 active torsions:
REMARK  status: ('A' for Active; 'I' for Inactive)
REMARK    1  A    between atoms: O_5  and  C_13
REMARK    2  A    between atoms: O_6  and  C_16
REMARK    3  A    between atoms: N_8  and  C_11
REMARK    4  A    between atoms: N_8  and  C_17
REMARK    5  A    between atoms: N_8  and  C_18
REMARK    6  A    between atoms: N_9  and  C_15
REMARK    7  A    between atoms: C_12  and  C_15
REMARK    8  A    between atoms: C_14  and  C_16
REMARK    9  A    between atoms: C_17  and  C_19
REMARK   10  A    between atoms: C_19  and  C_20
REMARK   11  A    between atoms: C_21  and  C_22
REMARK   12  A    between atoms: C_31  and  C_32
REMARK                            x       y       z     vdW  Elec       q    Type
REMARK                         _______ _______ _______ _____ _____    ______ ____
ROOT
ATOM      4  O   UNL     1      -8.744 -11.024  17.888  0.00  0.00    -0.365 OA
ATOM     11  C   UNL     1      -6.375 -10.876  18.063  0.00  0.00    +0.118 C 
ATOM     12  C   UNL     1      -7.555 -10.868  17.083  0.00  0.00    +0.155 C 
ATOM     13  C   UNL     1      -6.913 -11.671  19.242  0.00  0.00    +0.165 C 
ATOM     14  C   UNL     1      -8.360 -11.193  19.267  0.00  0.00    +0.174 C 
ENDROOT
BRANCH  13   5
ATOM      5  O   UNL     1      -6.858 -13.070  18.994  0.00  0.00    -0.388 OA
ATOM     33  H   UNL     1      -7.726 -13.342  18.649  0.00  0.00    +0.210 HD
ENDBRANCH  13   5
BRANCH  11   8
ATOM      8  N   UNL     1      -5.103 -11.336  17.533  0.00  0.00    -0.297 NA
ATOM     18  C   UNL     1      -4.201 -11.736  18.617  0.00  0.00    +0.105 C 
BRANCH   8  17
ATOM     17  C   UNL     1      -4.472 -10.297  16.712  0.00  0.00    +0.090 C 
BRANCH  17  19
ATOM     19  C   UNL     1      -3.035 -10.676  16.358  0.00  0.00    +0.071 C 
BRANCH  19  20
ATOM     10  N   UNL     1      -3.624 -12.108  14.479  0.00  0.00    -0.260 NA
ATOM     20  C   UNL     1      -2.902 -11.046  14.902  0.00  0.00    +0.042 A 
ATOM     23  C   UNL     1      -2.069 -10.299  14.086  0.00  0.00    +0.023 A 
ATOM     26  C   UNL     1      -1.970 -10.666  12.749  0.00  0.00    +0.003 A 
ATOM     27  C   UNL     1      -3.502 -12.435  13.173  0.00  0.00    +0.111 A 
ATOM     28  C   UNL     1      -2.697 -11.752  12.275  0.00  0.00    +0.020 A 
ENDBRANCH  19  20
ENDBRANCH  17  19
ENDBRANCH   8  17
ENDBRANCH  11   8
BRANCH  12  15
ATOM     15  C   UNL     1      -7.576 -11.971  16.029  0.00  0.00    +0.137 C 
BRANCH  15   9
ATOM      7  O   UNL     1      -8.728 -10.609  13.779  0.00  0.00    -0.270 OA
ATOM      9  N   UNL     1      -6.895 -11.559  14.838  0.00  0.00    -0.309 N 
ATOM     21  C   UNL     1      -7.534 -10.901  13.791  0.00  0.00    +0.244 C 
ATOM     34  H   UNL     1      -5.922 -11.833  14.755  0.00  0.00    +0.149 HD
BRANCH  21  22
ATOM     22  C   UNL     1      -6.693 -10.565  12.614  0.00  0.00    +0.037 A 
ATOM     24  C   UNL     1      -6.639 -11.434  11.524  0.00  0.00    +0.013 A 
ATOM     25  C   UNL     1      -5.958  -9.380  12.599  0.00  0.00    +0.013 A 
ATOM     29  C   UNL     1      -5.848 -11.118  10.419  0.00  0.00    +0.013 A 
ATOM     30  C   UNL     1      -5.168  -9.064  11.493  0.00  0.00    +0.013 A 
ATOM     31  C   UNL     1      -5.113  -9.933  10.404  0.00  0.00    +0.055 A 
BRANCH  31  32
ATOM      1  F   UNL     1      -3.010  -9.177   9.549  0.00  0.00    -0.166 F 
ATOM      2  F   UNL     1      -4.801  -8.595   8.463  0.00  0.00    -0.166 F 
ATOM      3  F   UNL     1      -4.082 -10.644   8.366  0.00  0.00    -0.166 F 
ATOM     32  C   UNL     1      -4.268  -9.596   9.222  0.00  0.00    +0.417 C 
ENDBRANCH  31  32
ENDBRANCH  21  22
ENDBRANCH  15   9
ENDBRANCH  12  15
BRANCH  14  16
ATOM     16  C   UNL     1      -9.344 -12.124  19.950  0.00  0.00    +0.190 C 
BRANCH  16   6
ATOM      6  O   UNL     1     -10.421 -11.358  20.464  0.00  0.00    -0.392 OA
ATOM     35  H   UNL     1     -10.735 -11.806  21.267  0.00  0.00    +0.210 HD
ENDBRANCH  16   6
ENDBRANCH  14  16
TORSDOF 11
ENDMDL
MODEL 8
REMARK VINA RESULT:      -6.5      6.458     12.565
REMARK  Name = 38026621
REMARK  12 active torsions:
REMARK  status: ('A' for Active; 'I' for Inactive)
REMARK    1  A    between atoms: O_5  and  C_13
REMARK    2  A    between atoms: O_6  and  C_16
REMARK    3  A    between atoms: N_8  and  C_11
REMARK    4  A    between atoms: N_8  and  C_17
REMARK    5  A    between atoms: N_8  and  C_18
REMARK    6  A    between atoms: N_9  and  C_15
REMARK    7  A    between atoms: C_12  and  C_15
REMARK    8  A    between atoms: C_14  and  C_16
REMARK    9  A    between atoms: C_17  and  C_19
REMARK   10  A    between atoms: C_19  and  C_20
REMARK   11  A    between atoms: C_21  and  C_22
REMARK   12  A    between atoms: C_31  and  C_32
REMARK                            x       y       z     vdW  Elec       q    Type
REMARK                         _______ _______ _______ _____ _____    ______ ____
ROOT
ATOM      4  O   UNL     1     -10.946   8.865  16.343  0.00  0.00    -0.365 OA
ATOM     11  C   UNL     1     -10.890  11.144  15.656  0.00  0.00    +0.118 C 
ATOM     12  C   UNL     1     -10.170  10.075  16.489  0.00  0.00    +0.155 C 
ATOM     13  C   UNL     1     -12.329  10.653  15.638  0.00  0.00    +0.165 C 
ATOM     14  C   UNL     1     -12.111   9.147  15.543  0.00  0.00    +0.174 C 
ENDROOT
BRANCH  13   5
ATOM      5  O   UNL     1     -13.006  10.980  16.846  0.00  0.00    -0.388 OA
ATOM     33  H   UNL     1     -13.648  11.680  16.642  0.00  0.00    +0.210 HD
ENDBRANCH  13   5
BRANCH  11   8
ATOM      8  N   UNL     1     -10.710  12.520  16.085  0.00  0.00    -0.297 NA
ATOM     18  C   UNL     1     -11.538  13.428  15.285  0.00  0.00    +0.105 C 
BRANCH   8  17
ATOM     17  C   UNL     1      -9.300  12.915  15.995  0.00  0.00    +0.090 C 
BRANCH  17  19
ATOM     19  C   UNL     1      -8.900  13.791  17.182  0.00  0.00    +0.071 C 
BRANCH  19  20
ATOM     10  N   UNL     1      -7.028  15.099  18.027  0.00  0.00    -0.260 NA
ATOM     20  C   UNL     1      -7.462  14.234  17.082  0.00  0.00    +0.042 A 
ATOM     23  C   UNL     1      -6.672  13.747  16.054  0.00  0.00    +0.023 A 
ATOM     26  C   UNL     1      -5.351  14.174  15.991  0.00  0.00    +0.003 A 
ATOM     27  C   UNL     1      -5.738  15.492  17.933  0.00  0.00    +0.111 A 
ATOM     28  C   UNL     1      -4.866  15.063  16.945  0.00  0.00    +0.020 A 
ENDBRANCH  19  20
ENDBRANCH  17  19
ENDBRANCH   8  17
ENDBRANCH  11   8
BRANCH  12  15
ATOM     15  C   UNL     1     -10.036  10.347  17.983  0.00  0.00    +0.137 C 
BRANCH  15   9
ATOM      7  O   UNL     1     -11.536  10.825  20.384  0.00  0.00    -0.270 OA
ATOM      9  N   UNL     1     -10.753   9.375  18.752  0.00  0.00    -0.309 N 
ATOM     21  C   UNL     1     -11.457   9.695  19.909  0.00  0.00    +0.244 C 
ATOM     34  H   UNL     1     -10.670   8.409  18.451  0.00  0.00    +0.149 HD
BRANCH  21  22
ATOM     22  C   UNL     1     -12.127   8.567  20.605  0.00  0.00    +0.037 A 
ATOM     24  C   UNL     1     -13.323   8.780  21.292  0.00  0.00    +0.013 A 
ATOM     25  C   UNL     1     -11.560   7.293  20.572  0.00  0.00    +0.013 A 
ATOM     29  C   UNL     1     -13.950   7.720  21.946  0.00  0.00    +0.013 A 
ATOM     30  C   UNL     1     -12.188   6.233  21.226  0.00  0.00    +0.013 A 
ATOM     31  C   UNL     1     -13.383   6.446  21.913  0.00  0.00    +0.055 A 
BRANCH  31  32
ATOM      1  F   UNL     1     -14.437   4.303  21.776  0.00  0.00    -0.166 F 
ATOM      2  F   UNL     1     -15.191   5.698  23.264  0.00  0.00    -0.166 F 
ATOM      3  F   UNL     1     -13.275   4.715  23.561  0.00  0.00    -0.166 F 
ATOM     32  C   UNL     1     -14.056   5.314  22.612  0.00  0.00    +0.417 C 
ENDBRANCH  31  32
ENDBRANCH  21  22
ENDBRANCH  15   9
ENDBRANCH  12  15
BRANCH  14  16
ATOM     16  C   UNL     1     -13.267   8.288  16.023  0.00  0.00    +0.190 C 
BRANCH  16   6
ATOM      6  O   UNL     1     -12.987   7.832  17.336  0.00  0.00    -0.392 OA
ATOM     35  H   UNL     1     -13.818   7.871  17.837  0.00  0.00    +0.210 HD
ENDBRANCH  16   6
ENDBRANCH  14  16
TORSDOF 11
ENDMDL
MODEL 9
REMARK VINA RESULT:      -6.4     30.000     34.265
REMARK  Name = 38026621
REMARK  12 active torsions:
REMARK  status: ('A' for Active; 'I' for Inactive)
REMARK    1  A    between atoms: O_5  and  C_13
REMARK    2  A    between atoms: O_6  and  C_16
REMARK    3  A    between atoms: N_8  and  C_11
REMARK    4  A    between atoms: N_8  and  C_17
REMARK    5  A    between atoms: N_8  and  C_18
REMARK    6  A    between atoms: N_9  and  C_15
REMARK    7  A    between atoms: C_12  and  C_15
REMARK    8  A    between atoms: C_14  and  C_16
REMARK    9  A    between atoms: C_17  and  C_19
REMARK   10  A    between atoms: C_19  and  C_20
REMARK   11  A    between atoms: C_21  and  C_22
REMARK   12  A    between atoms: C_31  and  C_32
REMARK                            x       y       z     vdW  Elec       q    Type
REMARK                         _______ _______ _______ _____ _____    ______ ____
ROOT
ATOM      4  O   UNL     1      11.141   5.403   8.356  0.00  0.00    -0.365 OA
ATOM     11  C   UNL     1      10.001   5.921   6.331  0.00  0.00    +0.118 C 
ATOM     12  C   UNL     1      11.341   6.030   7.070  0.00  0.00    +0.155 C 
ATOM     13  C   UNL     1       8.991   5.835   7.464  0.00  0.00    +0.165 C 
ATOM     14  C   UNL     1       9.764   4.989   8.468  0.00  0.00    +0.174 C 
ENDROOT
BRANCH  13   5
ATOM      5  O   UNL     1       8.710   7.119   8.010  0.00  0.00    -0.388 OA
ATOM     33  H   UNL     1       9.375   7.738   7.662  0.00  0.00    +0.210 HD
ENDBRANCH  13   5
BRANCH  11   8
ATOM      8  N   UNL     1       9.731   6.944   5.336  0.00  0.00    -0.297 NA
ATOM     18  C   UNL     1       8.309   6.966   4.982  0.00  0.00    +0.105 C 
BRANCH   8  17
ATOM     17  C   UNL     1      10.544   6.730   4.134  0.00  0.00    +0.090 C 
BRANCH  17  19
ATOM     19  C   UNL     1      10.391   5.300   3.616  0.00  0.00    +0.071 C 
BRANCH  19  20
ATOM     10  N   UNL     1      12.544   5.808   2.596  0.00  0.00    -0.260 NA
ATOM     20  C   UNL     1      11.594   4.871   2.813  0.00  0.00    +0.042 A 
ATOM     23  C   UNL     1      11.668   3.568   2.347  0.00  0.00    +0.023 A 
ATOM     26  C   UNL     1      12.789   3.204   1.611  0.00  0.00    +0.003 A 
ATOM     27  C   UNL     1      13.619   5.417   1.877  0.00  0.00    +0.111 A 
ATOM     28  C   UNL     1      13.788   4.140   1.367  0.00  0.00    +0.020 A 
ENDBRANCH  19  20
ENDBRANCH  17  19
ENDBRANCH   8  17
ENDBRANCH  11   8
BRANCH  12  15
ATOM     15  C   UNL     1      11.865   7.439   7.331  0.00  0.00    +0.137 C 
BRANCH  15   9
ATOM      7  O   UNL     1      12.790   9.114   5.191  0.00  0.00    -0.270 OA
ATOM      9  N   UNL     1      13.216   7.579   6.877  0.00  0.00    -0.309 N 
ATOM     21  C   UNL     1      13.577   8.418   5.826  0.00  0.00    +0.244 C 
ATOM     34  H   UNL     1      13.906   6.977   7.315  0.00  0.00    +0.149 HD
BRANCH  21  22
ATOM     22  C   UNL     1      15.017   8.430   5.460  0.00  0.00    +0.037 A 
ATOM     24  C   UNL     1      15.923   9.178   6.213  0.00  0.00    +0.013 A 
ATOM     25  C   UNL     1      15.462   7.694   4.362  0.00  0.00    +0.013 A 
ATOM     29  C   UNL     1      17.274   9.190   5.866  0.00  0.00    +0.013 A 
ATOM     30  C   UNL     1      16.813   7.706   4.017  0.00  0.00    +0.013 A 
ATOM     31  C   UNL     1      17.719   8.453   4.769  0.00  0.00    +0.055 A 
BRANCH  31  32
ATOM      1  F   UNL     1      19.417   9.057   3.195  0.00  0.00    -0.166 F 
ATOM      2  F   UNL     1      19.696   7.213   4.313  0.00  0.00    -0.166 F 
ATOM      3  F   UNL     1      19.951   9.135   5.296  0.00  0.00    -0.166 F 
ATOM     32  C   UNL     1      19.165   8.466   4.401  0.00  0.00    +0.417 C 
ENDBRANCH  31  32
ENDBRANCH  21  22
ENDBRANCH  15   9
ENDBRANCH  12  15
BRANCH  14  16
ATOM     16  C   UNL     1       9.319   5.120   9.913  0.00  0.00    +0.190 C 
BRANCH  16   6
ATOM      6  O   UNL     1      10.168   4.328  10.729  0.00  0.00    -0.392 OA
ATOM     35  H   UNL     1      10.299   3.482  10.269  0.00  0.00    +0.210 HD
ENDBRANCH  16   6
ENDBRANCH  14  16
TORSDOF 11
ENDMDL
MODEL 10
REMARK VINA RESULT:      -6.4     18.622     20.661
REMARK  Name = 38026621
REMARK  12 active torsions:
REMARK  status: ('A' for Active; 'I' for Inactive)
REMARK    1  A    between atoms: O_5  and  C_13
REMARK    2  A    between atoms: O_6  and  C_16
REMARK    3  A    between atoms: N_8  and  C_11
REMARK    4  A    between atoms: N_8  and  C_17
REMARK    5  A    between atoms: N_8  and  C_18
REMARK    6  A    between atoms: N_9  and  C_15
REMARK    7  A    between atoms: C_12  and  C_15
REMARK    8  A    between atoms: C_14  and  C_16
REMARK    9  A    between atoms: C_17  and  C_19
REMARK   10  A    between atoms: C_19  and  C_20
REMARK   11  A    between atoms: C_21  and  C_22
REMARK   12  A    between atoms: C_31  and  C_32
REMARK                            x       y       z     vdW  Elec       q    Type
REMARK                         _______ _______ _______ _____ _____    ______ ____
ROOT
ATOM      4  O   UNL     1      -5.129 -10.305  18.328  0.00  0.00    -0.365 OA
ATOM     11  C   UNL     1      -4.163 -11.497  16.508  0.00  0.00    +0.118 C 
ATOM     12  C   UNL     1      -4.702 -10.134  16.958  0.00  0.00    +0.155 C 
ATOM     13  C   UNL     1      -4.907 -12.474  17.405  0.00  0.00    +0.165 C 
ATOM     14  C   UNL     1      -4.949 -11.684  18.707  0.00  0.00    +0.174 C 
ENDROOT
BRANCH  13   5
ATOM      5  O   UNL     1      -6.226 -12.715  16.930  0.00  0.00    -0.388 OA
ATOM     33  H   UNL     1      -6.155 -13.021  16.009  0.00  0.00    +0.210 HD
ENDBRANCH  13   5
BRANCH  11   8
ATOM      8  N   UNL     1      -4.240 -11.780  15.085  0.00  0.00    -0.297 NA
ATOM     18  C   UNL     1      -3.918 -13.184  14.814  0.00  0.00    +0.105 C 
BRANCH   8  17
ATOM     17  C   UNL     1      -3.340 -10.903  14.328  0.00  0.00    +0.090 C 
BRANCH  17  19
ATOM     19  C   UNL     1      -3.182 -11.391  12.889  0.00  0.00    +0.071 C 
BRANCH  19  20
ATOM     10  N   UNL     1      -4.934  -9.880  12.130  0.00  0.00    -0.260 NA
ATOM     20  C   UNL     1      -3.697 -10.375  11.900  0.00  0.00    +0.042 A 
ATOM     23  C   UNL     1      -2.899 -10.005  10.830  0.00  0.00    +0.023 A 
ATOM     26  C   UNL     1      -3.403  -9.065   9.938  0.00  0.00    +0.003 A 
ATOM     27  C   UNL     1      -5.390  -8.969  11.241  0.00  0.00    +0.111 A 
ATOM     28  C   UNL     1      -4.671  -8.532  10.140  0.00  0.00    +0.020 A 
ENDBRANCH  19  20
ENDBRANCH  17  19
ENDBRANCH   8  17
ENDBRANCH  11   8
BRANCH  12  15
ATOM     15  C   UNL     1      -5.892  -9.578  16.182  0.00  0.00    +0.137 C 
BRANCH  15   9
ATOM      7  O   UNL     1      -8.576  -9.318  15.195  0.00  0.00    -0.270 OA
ATOM      9  N   UNL     1      -7.098  -9.673  16.948  0.00  0.00    -0.309 N 
ATOM     21  C   UNL     1      -8.364  -9.533  16.386  0.00  0.00    +0.244 C 
ATOM     34  H   UNL     1      -6.990  -9.780  17.952  0.00  0.00    +0.149 HD
BRANCH  21  22
ATOM     22  C   UNL     1      -9.514  -9.632  17.321  0.00  0.00    +0.037 A 
ATOM     24  C   UNL     1      -9.379 -10.328  18.523  0.00  0.00    +0.013 A 
ATOM     25  C   UNL     1     -10.729  -9.028  16.998  0.00  0.00    +0.013 A 
ATOM     29  C   UNL     1     -10.460 -10.421  19.400  0.00  0.00    +0.013 A 
ATOM     30  C   UNL     1     -11.809  -9.120  17.876  0.00  0.00    +0.013 A 
ATOM     31  C   UNL     1     -11.674  -9.817  19.077  0.00  0.00    +0.055 A 
BRANCH  31  32
ATOM      1  F   UNL     1     -13.065 -11.187  20.460  0.00  0.00    -0.166 F 
ATOM      2  F   UNL     1     -14.001  -9.501  19.454  0.00  0.00    -0.166 F 
ATOM      3  F   UNL     1     -12.679  -9.166  21.148  0.00  0.00    -0.166 F 
ATOM     32  C   UNL     1     -12.829  -9.917  20.016  0.00  0.00    +0.417 C 
ENDBRANCH  31  32
ENDBRANCH  21  22
ENDBRANCH  15   9
ENDBRANCH  12  15
BRANCH  14  16
ATOM     16  C   UNL     1      -6.044 -12.083  19.679  0.00  0.00    +0.190 C 
BRANCH  16   6
ATOM      6  O   UNL     1      -6.424 -10.945  20.435  0.00  0.00    -0.392 OA
ATOM     35  H   UNL     1      -6.770 -11.267  21.284  0.00  0.00    +0.210 HD
ENDBRANCH  16   6
ENDBRANCH  14  16
TORSDOF 11
ENDMDL
