MODEL 1
REMARK VINA RESULT:      -7.3      0.000      0.000
REMARK  Name = 7673849
REMARK  4 active torsions:
REMARK  status: ('A' for Active; 'I' for Inactive)
REMARK    1  A    between atoms: N_3  and  C_13
REMARK    2  A    between atoms: C_13  and  C_18
REMARK    3  A    between atoms: C_16  and  C_19
REMARK    4  A    between atoms: C_27  and  C_32
REMARK                            x       y       z     vdW  Elec       q    Type
REMARK                         _______ _______ _______ _____ _____    ______ ____
ROOT
ATOM      1  O   UNL     1      12.318   7.574   2.905  0.00  0.00    -0.267 OA
ATOM      3  N   UNL     1      13.369   4.521  -0.928  0.00  0.00    -0.294 NA
ATOM      4  N   UNL     1      12.888   5.468   2.078  0.00  0.00    -0.311 N 
ATOM      6  C   UNL     1      15.081   5.015   0.834  0.00  0.00    +0.024 C 
ATOM      7  C   UNL     1      13.485   3.192   1.184  0.00  0.00    +0.050 C 
ATOM      8  C   UNL     1      14.938   3.608   1.396  0.00  0.00    +0.017 C 
ATOM      9  C   UNL     1      14.722   5.024  -0.667  0.00  0.00    +0.090 C 
ATOM     10  C   UNL     1      13.164   3.194  -0.328  0.00  0.00    +0.094 C 
ATOM     11  C   UNL     1      14.203   5.968   1.656  0.00  0.00    +0.130 C 
ATOM     12  C   UNL     1      12.545   4.122   1.928  0.00  0.00    +0.026 A 
ATOM     14  C   UNL     1      11.384   3.662   2.421  0.00  0.00    +0.022 A 
ATOM     15  C   UNL     1      12.039   6.387   2.729  0.00  0.00    +0.259 A 
ATOM     16  C   UNL     1      10.732   5.846   3.239  0.00  0.00    +0.047 A 
ATOM     17  C   UNL     1      10.463   4.541   3.085  0.00  0.00    +0.015 A 
ENDROOT
BRANCH  16  19
ATOM     19  C   UNL     1       9.791   6.705   3.885  0.00  0.00    -0.011 A 
ATOM     23  C   UNL     1       9.701   6.722   5.277  0.00  0.00    +0.027 A 
ATOM     24  C   UNL     1       8.959   7.525   3.123  0.00  0.00    +0.009 A 
ATOM     27  C   UNL     1       8.780   7.560   5.907  0.00  0.00    +0.052 A 
ATOM     28  C   UNL     1       8.039   8.363   3.753  0.00  0.00    +0.002 A 
ATOM     31  C   UNL     1       7.949   8.380   5.144  0.00  0.00    +0.019 A 
BRANCH  27  32
ATOM      5  N   UNL     1       8.613   7.594   8.492  0.00  0.00    -0.191 NA
ATOM     32  C   UNL     1       8.688   7.578   7.332  0.00  0.00    +0.099 C 
ENDBRANCH  27  32
ENDBRANCH  16  19
BRANCH   3  13
ATOM     13  C   UNL     1      13.087   4.495  -2.362  0.00  0.00    +0.158 C 
BRANCH  13  18
ATOM      2  O   UNL     1      11.102   4.426  -3.712  0.00  0.00    -0.458 OA
ATOM     18  C   UNL     1      11.675   4.933  -2.604  0.00  0.00    +0.120 A 
ATOM     20  C   UNL     1      10.845   5.753  -1.913  0.00  0.00    +0.054 A 
ATOM     21  C   UNL     1       9.631   5.772  -2.649  0.00  0.00    +0.020 A 
ATOM     22  C   UNL     1       9.841   4.941  -3.745  0.00  0.00    +0.135 A 
ATOM     25  C   UNL     1       8.380   6.399  -2.511  0.00  0.00    +0.011 A 
ATOM     26  C   UNL     1       8.884   4.685  -4.725  0.00  0.00    +0.047 A 
ATOM     29  C   UNL     1       7.398   6.160  -3.482  0.00  0.00    +0.001 A 
ATOM     30  C   UNL     1       7.647   5.318  -4.568  0.00  0.00    +0.004 A 
ENDBRANCH  13  18
ENDBRANCH   3  13
TORSDOF 4
ENDMDL
MODEL 2
REMARK VINA RESULT:      -7.3      2.399      3.478
REMARK  Name = 7673849
REMARK  4 active torsions:
REMARK  status: ('A' for Active; 'I' for Inactive)
REMARK    1  A    between atoms: N_3  and  C_13
REMARK    2  A    between atoms: C_13  and  C_18
REMARK    3  A    between atoms: C_16  and  C_19
REMARK    4  A    between atoms: C_27  and  C_32
REMARK                            x       y       z     vdW  Elec       q    Type
REMARK                         _______ _______ _______ _____ _____    ______ ____
ROOT
ATOM      1  O   UNL     1      12.354   7.374   4.745  0.00  0.00    -0.267 OA
ATOM      3  N   UNL     1      12.121   6.483  -0.182  0.00  0.00    -0.294 NA
ATOM      4  N   UNL     1      12.489   5.911   2.933  0.00  0.00    -0.311 N 
ATOM      6  C   UNL     1      14.254   6.145   1.090  0.00  0.00    +0.024 C 
ATOM      7  C   UNL     1      12.618   4.328   0.980  0.00  0.00    +0.050 C 
ATOM      8  C   UNL     1      14.113   4.635   0.966  0.00  0.00    +0.017 C 
ATOM      9  C   UNL     1      13.541   6.842  -0.088  0.00  0.00    +0.090 C 
ATOM     10  C   UNL     1      11.937   5.025  -0.221  0.00  0.00    +0.094 C 
ATOM     11  C   UNL     1      13.704   6.584   2.455  0.00  0.00    +0.130 C 
ATOM     12  C   UNL     1      11.987   4.780   2.284  0.00  0.00    +0.026 A 
ATOM     14  C   UNL     1      10.942   4.113   2.800  0.00  0.00    +0.022 A 
ATOM     15  C   UNL     1      11.923   6.399   4.128  0.00  0.00    +0.259 A 
ATOM     16  C   UNL     1      10.733   5.649   4.660  0.00  0.00    +0.047 A 
ATOM     17  C   UNL     1      10.304   4.558   4.007  0.00  0.00    +0.015 A 
ENDROOT
BRANCH  16  19
ATOM     19  C   UNL     1      10.070   6.084   5.849  0.00  0.00    -0.011 A 
ATOM     23  C   UNL     1      10.277   5.409   7.052  0.00  0.00    +0.027 A 
ATOM     24  C   UNL     1       9.213   7.183   5.806  0.00  0.00    +0.009 A 
ATOM     27  C   UNL     1       9.627   5.833   8.211  0.00  0.00    +0.052 A 
ATOM     28  C   UNL     1       8.564   7.608   6.965  0.00  0.00    +0.002 A 
ATOM     31  C   UNL     1       8.770   6.933   8.167  0.00  0.00    +0.019 A 
BRANCH  27  32
ATOM      5  N   UNL     1      10.013   4.580  10.446  0.00  0.00    -0.191 NA
ATOM     32  C   UNL     1       9.840   5.143   9.444  0.00  0.00    +0.099 C 
ENDBRANCH  27  32
ENDBRANCH  16  19
BRANCH   3  13
ATOM     13  C   UNL     1      11.496   7.120  -1.339  0.00  0.00    +0.158 C 
BRANCH  13  18
ATOM      2  O   UNL     1      10.081   7.942   0.418  0.00  0.00    -0.458 OA
ATOM     18  C   UNL     1      10.237   7.810  -0.912  0.00  0.00    +0.120 A 
ATOM     20  C   UNL     1       9.205   8.339  -1.615  0.00  0.00    +0.054 A 
ATOM     21  C   UNL     1       8.308   8.854  -0.644  0.00  0.00    +0.020 A 
ATOM     22  C   UNL     1       8.892   8.586   0.591  0.00  0.00    +0.135 A 
ATOM     25  C   UNL     1       7.068   9.517  -0.669  0.00  0.00    +0.011 A 
ATOM     26  C   UNL     1       8.326   8.934   1.815  0.00  0.00    +0.047 A 
ATOM     29  C   UNL     1       6.474   9.880   0.548  0.00  0.00    +0.001 A 
ATOM     30  C   UNL     1       7.093   9.592   1.767  0.00  0.00    +0.004 A 
ENDBRANCH  13  18
ENDBRANCH   3  13
TORSDOF 4
ENDMDL
MODEL 3
REMARK VINA RESULT:      -7.2     24.062     26.828
REMARK  Name = 7673849
REMARK  4 active torsions:
REMARK  status: ('A' for Active; 'I' for Inactive)
REMARK    1  A    between atoms: N_3  and  C_13
REMARK    2  A    between atoms: C_13  and  C_18
REMARK    3  A    between atoms: C_16  and  C_19
REMARK    4  A    between atoms: C_27  and  C_32
REMARK                            x       y       z     vdW  Elec       q    Type
REMARK                         _______ _______ _______ _____ _____    ______ ____
ROOT
ATOM      1  O   UNL     1      -6.081 -11.727  10.965  0.00  0.00    -0.267 OA
ATOM      3  N   UNL     1      -3.150 -11.079  14.979  0.00  0.00    -0.294 NA
ATOM      4  N   UNL     1      -3.969 -11.661  11.952  0.00  0.00    -0.311 N 
ATOM      6  C   UNL     1      -3.250 -13.287  13.798  0.00  0.00    +0.024 C 
ATOM      7  C   UNL     1      -1.688 -11.574  13.014  0.00  0.00    +0.050 C 
ATOM      8  C   UNL     1      -1.851 -13.074  13.238  0.00  0.00    +0.017 C 
ATOM      9  C   UNL     1      -3.412 -12.515  15.125  0.00  0.00    +0.090 C 
ATOM     10  C   UNL     1      -1.838 -10.832  14.363  0.00  0.00    +0.094 C 
ATOM     11  C   UNL     1      -4.277 -12.863  12.739  0.00  0.00    +0.130 C 
ATOM     12  C   UNL     1      -2.707 -11.064  12.012  0.00  0.00    +0.026 A 
ATOM     14  C   UNL     1      -2.408 -10.035  11.203  0.00  0.00    +0.022 A 
ATOM     15  C   UNL     1      -4.968 -11.209  11.067  0.00  0.00    +0.259 A 
ATOM     16  C   UNL     1      -4.612 -10.034  10.199  0.00  0.00    +0.047 A 
ATOM     17  C   UNL     1      -3.379  -9.512  10.283  0.00  0.00    +0.015 A 
ENDROOT
BRANCH  16  19
ATOM     19  C   UNL     1      -5.567  -9.483   9.291  0.00  0.00    -0.011 A 
ATOM     23  C   UNL     1      -5.653  -9.970   7.987  0.00  0.00    +0.027 A 
ATOM     24  C   UNL     1      -6.413  -8.456   9.709  0.00  0.00    +0.009 A 
ATOM     27  C   UNL     1      -6.585  -9.429   7.100  0.00  0.00    +0.052 A 
ATOM     28  C   UNL     1      -7.345  -7.916   8.823  0.00  0.00    +0.002 A 
ATOM     31  C   UNL     1      -7.431  -8.402   7.519  0.00  0.00    +0.019 A 
BRANCH  27  32
ATOM      5  N   UNL     1      -6.748 -10.333   4.678  0.00  0.00    -0.191 NA
ATOM     32  C   UNL     1      -6.675  -9.928   5.764  0.00  0.00    +0.099 C 
ENDBRANCH  27  32
ENDBRANCH  16  19
BRANCH   3  13
ATOM     13  C   UNL     1      -3.261 -10.393  16.265  0.00  0.00    +0.158 C 
BRANCH  13  18
ATOM      2  O   UNL     1      -5.064 -10.864  17.779  0.00  0.00    -0.458 OA
ATOM     18  C   UNL     1      -4.706 -10.253  16.635  0.00  0.00    +0.120 A 
ATOM     20  C   UNL     1      -5.742  -9.618  16.033  0.00  0.00    +0.054 A 
ATOM     21  C   UNL     1      -6.866  -9.847  16.870  0.00  0.00    +0.020 A 
ATOM     22  C   UNL     1      -6.396 -10.618  17.930  0.00  0.00    +0.135 A 
ATOM     25  C   UNL     1      -8.225  -9.489  16.851  0.00  0.00    +0.011 A 
ATOM     26  C   UNL     1      -7.191 -11.063  18.984  0.00  0.00    +0.047 A 
ATOM     29  C   UNL     1      -9.049  -9.923  17.899  0.00  0.00    +0.001 A 
ATOM     30  C   UNL     1      -8.540 -10.696  18.945  0.00  0.00    +0.004 A 
ENDBRANCH  13  18
ENDBRANCH   3  13
TORSDOF 4
ENDMDL
MODEL 4
REMARK VINA RESULT:      -7.1      2.964      8.660
REMARK  Name = 7673849
REMARK  4 active torsions:
REMARK  status: ('A' for Active; 'I' for Inactive)
REMARK    1  A    between atoms: N_3  and  C_13
REMARK    2  A    between atoms: C_13  and  C_18
REMARK    3  A    between atoms: C_16  and  C_19
REMARK    4  A    between atoms: C_27  and  C_32
REMARK                            x       y       z     vdW  Elec       q    Type
REMARK                         _______ _______ _______ _____ _____    ______ ____
ROOT
ATOM      1  O   UNL     1      10.427   6.813   1.060  0.00  0.00    -0.267 OA
ATOM      3  N   UNL     1      10.705   7.706   5.985  0.00  0.00    -0.294 NA
ATOM      4  N   UNL     1       9.853   6.287   3.259  0.00  0.00    -0.311 N 
ATOM      6  C   UNL     1       8.524   7.879   4.764  0.00  0.00    +0.024 C 
ATOM      7  C   UNL     1       9.246   5.709   5.633  0.00  0.00    +0.050 C 
ATOM      8  C   UNL     1       8.027   6.603   5.427  0.00  0.00    +0.017 C 
ATOM      9  C   UNL     1       9.566   8.574   5.665  0.00  0.00    +0.090 C 
ATOM     10  C   UNL     1      10.262   6.425   6.554  0.00  0.00    +0.094 C 
ATOM     11  C   UNL     1       9.082   7.532   3.377  0.00  0.00    +0.130 C 
ATOM     12  C   UNL     1       9.890   5.359   4.304  0.00  0.00    +0.026 A 
ATOM     14  C   UNL     1      10.506   4.178   4.137  0.00  0.00    +0.022 A 
ATOM     15  C   UNL     1      10.462   6.033   2.014  0.00  0.00    +0.259 A 
ATOM     16  C   UNL     1      11.173   4.716   1.872  0.00  0.00    +0.047 A 
ATOM     17  C   UNL     1      11.160   3.854   2.901  0.00  0.00    +0.015 A 
ENDROOT
BRANCH  16  19
ATOM     19  C   UNL     1      11.848   4.379   0.659  0.00  0.00    -0.011 A 
ATOM     23  C   UNL     1      13.240   4.423   0.598  0.00  0.00    +0.027 A 
ATOM     24  C   UNL     1      11.112   4.006  -0.467  0.00  0.00    +0.009 A 
ATOM     27  C   UNL     1      13.898   4.095  -0.588  0.00  0.00    +0.052 A 
ATOM     28  C   UNL     1      11.770   3.678  -1.652  0.00  0.00    +0.002 A 
ATOM     31  C   UNL     1      13.162   3.724  -1.713  0.00  0.00    +0.019 A 
BRANCH  27  32
ATOM      5  N   UNL     1      16.485   4.177  -0.702  0.00  0.00    -0.191 NA
ATOM     32  C   UNL     1      15.324   4.140  -0.651  0.00  0.00    +0.099 C 
ENDBRANCH  27  32
ENDBRANCH  16  19
BRANCH   3  13
ATOM     13  C   UNL     1      11.642   8.381   6.881  0.00  0.00    +0.158 C 
BRANCH  13  18
ATOM      2  O   UNL     1      13.845   9.318   6.704  0.00  0.00    -0.458 OA
ATOM     18  C   UNL     1      13.019   8.339   6.292  0.00  0.00    +0.120 A 
ATOM     20  C   UNL     1      13.607   7.493   5.410  0.00  0.00    +0.054 A 
ATOM     21  C   UNL     1      14.930   7.979   5.243  0.00  0.00    +0.020 A 
ATOM     22  C   UNL     1      15.027   9.102   6.060  0.00  0.00    +0.135 A 
ATOM     25  C   UNL     1      16.056   7.594   4.494  0.00  0.00    +0.011 A 
ATOM     26  C   UNL     1      16.176   9.879   6.186  0.00  0.00    +0.047 A 
ATOM     29  C   UNL     1      17.227   8.357   4.601  0.00  0.00    +0.001 A 
ATOM     30  C   UNL     1      17.284   9.479   5.432  0.00  0.00    +0.004 A 
ENDBRANCH  13  18
ENDBRANCH   3  13
TORSDOF 4
ENDMDL
MODEL 5
REMARK VINA RESULT:      -7.1     26.979     30.334
REMARK  Name = 7673849
REMARK  4 active torsions:
REMARK  status: ('A' for Active; 'I' for Inactive)
REMARK    1  A    between atoms: N_3  and  C_13
REMARK    2  A    between atoms: C_13  and  C_18
REMARK    3  A    between atoms: C_16  and  C_19
REMARK    4  A    between atoms: C_27  and  C_32
REMARK                            x       y       z     vdW  Elec       q    Type
REMARK                         _______ _______ _______ _____ _____    ______ ____
ROOT
ATOM      1  O   UNL     1     -14.982   9.244  19.865  0.00  0.00    -0.267 OA
ATOM      3  N   UNL     1     -11.333   9.369  16.431  0.00  0.00    -0.294 NA
ATOM      4  N   UNL     1     -12.724   9.391  19.301  0.00  0.00    -0.311 N 
ATOM      6  C   UNL     1     -11.760  11.331  17.931  0.00  0.00    +0.024 C 
ATOM      7  C   UNL     1     -10.285   9.532  18.693  0.00  0.00    +0.050 C 
ATOM      8  C   UNL     1     -10.479  11.046  18.702  0.00  0.00    +0.017 C 
ATOM      9  C   UNL     1     -11.637  10.804  16.486  0.00  0.00    +0.090 C 
ATOM     10  C   UNL     1     -10.146   9.039  17.234  0.00  0.00    +0.094 C 
ATOM     11  C   UNL     1     -12.942  10.707  18.686  0.00  0.00    +0.130 C 
ATOM     12  C   UNL     1     -11.444   8.835  19.381  0.00  0.00    +0.026 A 
ATOM     14  C   UNL     1     -11.248   7.684  20.044  0.00  0.00    +0.022 A 
ATOM     15  C   UNL     1     -13.845   8.772  19.889  0.00  0.00    +0.259 A 
ATOM     16  C   UNL     1     -13.596   7.468  20.595  0.00  0.00    +0.047 A 
ATOM     17  C   UNL     1     -12.344   6.990  20.658  0.00  0.00    +0.015 A 
ENDROOT
BRANCH  16  19
ATOM     19  C   UNL     1     -14.673   6.748  21.197  0.00  0.00    -0.011 A 
ATOM     23  C   UNL     1     -15.582   6.053  20.399  0.00  0.00    +0.027 A 
ATOM     24  C   UNL     1     -14.817   6.741  22.584  0.00  0.00    +0.009 A 
ATOM     27  C   UNL     1     -16.634   5.352  20.988  0.00  0.00    +0.052 A 
ATOM     28  C   UNL     1     -15.868   6.040  23.174  0.00  0.00    +0.002 A 
ATOM     31  C   UNL     1     -16.778   5.346  22.376  0.00  0.00    +0.019 A 
BRANCH  27  32
ATOM      5  N   UNL     1     -18.322   4.060  19.507  0.00  0.00    -0.191 NA
ATOM     32  C   UNL     1     -17.565   4.639  20.171  0.00  0.00    +0.099 C 
ENDBRANCH  27  32
ENDBRANCH  16  19
BRANCH   3  13
ATOM     13  C   UNL     1     -11.171   8.921  15.049  0.00  0.00    +0.158 C 
BRANCH  13  18
ATOM      2  O   UNL     1     -13.422   8.212  15.496  0.00  0.00    -0.458 OA
ATOM     18  C   UNL     1     -12.420   8.227  14.597  0.00  0.00    +0.120 A 
ATOM     20  C   UNL     1     -12.746   7.602  13.439  0.00  0.00    +0.054 A 
ATOM     21  C   UNL     1     -14.078   7.144  13.616  0.00  0.00    +0.020 A 
ATOM     22  C   UNL     1     -14.448   7.545  14.897  0.00  0.00    +0.135 A 
ATOM     25  C   UNL     1     -15.011   6.437  12.838  0.00  0.00    +0.011 A 
ATOM     26  C   UNL     1     -15.694   7.290  15.465  0.00  0.00    +0.047 A 
ATOM     29  C   UNL     1     -16.274   6.166  13.384  0.00  0.00    +0.001 A 
ATOM     30  C   UNL     1     -16.607   6.585  14.674  0.00  0.00    +0.004 A 
ENDBRANCH  13  18
ENDBRANCH   3  13
TORSDOF 4
ENDMDL
MODEL 6
REMARK VINA RESULT:      -7.0     27.127     33.090
REMARK  Name = 7673849
REMARK  4 active torsions:
REMARK  status: ('A' for Active; 'I' for Inactive)
REMARK    1  A    between atoms: N_3  and  C_13
REMARK    2  A    between atoms: C_13  and  C_18
REMARK    3  A    between atoms: C_16  and  C_19
REMARK    4  A    between atoms: C_27  and  C_32
REMARK                            x       y       z     vdW  Elec       q    Type
REMARK                         _______ _______ _______ _____ _____    ______ ____
ROOT
ATOM      1  O   UNL     1     -14.573   8.311  18.560  0.00  0.00    -0.267 OA
ATOM      3  N   UNL     1     -16.586   7.578  23.091  0.00  0.00    -0.294 NA
ATOM      4  N   UNL     1     -15.030   6.930  20.384  0.00  0.00    -0.311 N 
ATOM      6  C   UNL     1     -17.414   6.313  21.092  0.00  0.00    +0.024 C 
ATOM      7  C   UNL     1     -15.508   5.445  22.360  0.00  0.00    +0.050 C 
ATOM      8  C   UNL     1     -16.771   5.034  21.609  0.00  0.00    +0.017 C 
ATOM      9  C   UNL     1     -17.757   7.248  22.271  0.00  0.00    +0.090 C 
ATOM     10  C   UNL     1     -15.888   6.365  23.544  0.00  0.00    +0.094 C 
ATOM     11  C   UNL     1     -16.466   6.968  20.078  0.00  0.00    +0.130 C 
ATOM     12  C   UNL     1     -14.535   6.149  21.432  0.00  0.00    +0.026 A 
ATOM     14  C   UNL     1     -13.211   6.040  21.627  0.00  0.00    +0.022 A 
ATOM     15  C   UNL     1     -14.176   7.635  19.511  0.00  0.00    +0.259 A 
ATOM     16  C   UNL     1     -12.701   7.518  19.778  0.00  0.00    +0.047 A 
ATOM     17  C   UNL     1     -12.281   6.739  20.786  0.00  0.00    +0.015 A 
ENDROOT
BRANCH  16  19
ATOM     19  C   UNL     1     -11.757   8.220  18.967  0.00  0.00    -0.011 A 
ATOM     23  C   UNL     1     -11.607   7.887  17.621  0.00  0.00    +0.027 A 
ATOM     24  C   UNL     1     -10.982   9.238  19.524  0.00  0.00    +0.009 A 
ATOM     27  C   UNL     1     -10.683   8.572  16.832  0.00  0.00    +0.052 A 
ATOM     28  C   UNL     1     -10.059   9.923  18.734  0.00  0.00    +0.002 A 
ATOM     31  C   UNL     1      -9.908   9.590  17.389  0.00  0.00    +0.019 A 
BRANCH  27  32
ATOM      5  N   UNL     1     -10.404   7.954  14.331  0.00  0.00    -0.191 NA
ATOM     32  C   UNL     1     -10.529   8.232  15.453  0.00  0.00    +0.099 C 
ENDBRANCH  27  32
ENDBRANCH  16  19
BRANCH   3  13
ATOM     13  C   UNL     1     -16.962   8.419  24.225  0.00  0.00    +0.158 C 
BRANCH  13  18
ATOM      2  O   UNL     1     -14.836   9.375  23.648  0.00  0.00    -0.458 OA
ATOM     18  C   UNL     1     -15.843   9.364  24.541  0.00  0.00    +0.120 A 
ATOM     20  C   UNL     1     -15.642  10.226  25.568  0.00  0.00    +0.054 A 
ATOM     21  C   UNL     1     -14.390  10.843  25.307  0.00  0.00    +0.020 A 
ATOM     22  C   UNL     1     -13.936  10.286  24.115  0.00  0.00    +0.135 A 
ATOM     25  C   UNL     1     -13.592  11.809  25.943  0.00  0.00    +0.011 A 
ATOM     26  C   UNL     1     -12.731  10.625  23.504  0.00  0.00    +0.047 A 
ATOM     29  C   UNL     1     -12.374  12.171  25.352  0.00  0.00    +0.001 A 
ATOM     30  C   UNL     1     -11.952  11.588  24.154  0.00  0.00    +0.004 A 
ENDBRANCH  13  18
ENDBRANCH   3  13
TORSDOF 4
ENDMDL
MODEL 7
REMARK VINA RESULT:      -7.0      1.226      1.691
REMARK  Name = 7673849
REMARK  4 active torsions:
REMARK  status: ('A' for Active; 'I' for Inactive)
REMARK    1  A    between atoms: N_3  and  C_13
REMARK    2  A    between atoms: C_13  and  C_18
REMARK    3  A    between atoms: C_16  and  C_19
REMARK    4  A    between atoms: C_27  and  C_32
REMARK                            x       y       z     vdW  Elec       q    Type
REMARK                         _______ _______ _______ _____ _____    ______ ____
ROOT
ATOM      1  O   UNL     1      12.294   7.563   3.126  0.00  0.00    -0.267 OA
ATOM      3  N   UNL     1      13.286   4.560  -0.763  0.00  0.00    -0.294 NA
ATOM      4  N   UNL     1      12.826   5.462   2.261  0.00  0.00    -0.311 N 
ATOM      6  C   UNL     1      15.010   4.994   1.004  0.00  0.00    +0.024 C 
ATOM      7  C   UNL     1      13.384   3.193   1.327  0.00  0.00    +0.050 C 
ATOM      8  C   UNL     1      14.844   3.580   1.542  0.00  0.00    +0.017 C 
ATOM      9  C   UNL     1      14.648   5.036  -0.496  0.00  0.00    +0.090 C 
ATOM     10  C   UNL     1      13.059   3.226  -0.185  0.00  0.00    +0.094 C 
ATOM     11  C   UNL     1      14.149   5.948   1.845  0.00  0.00    +0.130 C 
ATOM     12  C   UNL     1      12.461   4.125   2.089  0.00  0.00    +0.026 A 
ATOM     14  C   UNL     1      11.293   3.676   2.576  0.00  0.00    +0.022 A 
ATOM     15  C   UNL     1      11.994   6.384   2.930  0.00  0.00    +0.259 A 
ATOM     16  C   UNL     1      10.680   5.856   3.433  0.00  0.00    +0.047 A 
ATOM     17  C   UNL     1      10.388   4.558   3.258  0.00  0.00    +0.015 A 
ENDROOT
BRANCH  16  19
ATOM     19  C   UNL     1       9.754   6.719   4.097  0.00  0.00    -0.011 A 
ATOM     23  C   UNL     1       8.922   7.556   3.353  0.00  0.00    +0.027 A 
ATOM     24  C   UNL     1       9.684   6.725   5.489  0.00  0.00    +0.009 A 
ATOM     27  C   UNL     1       8.020   8.399   4.002  0.00  0.00    +0.052 A 
ATOM     28  C   UNL     1       8.781   7.568   6.139  0.00  0.00    +0.002 A 
ATOM     31  C   UNL     1       7.950   8.405   5.395  0.00  0.00    +0.019 A 
BRANCH  27  32
ATOM      5  N   UNL     1       6.475   9.953   2.621  0.00  0.00    -0.191 NA
ATOM     32  C   UNL     1       7.168   9.256   3.240  0.00  0.00    +0.099 C 
ENDBRANCH  27  32
ENDBRANCH  16  19
BRANCH   3  13
ATOM     13  C   UNL     1      13.001   4.564  -2.196  0.00  0.00    +0.158 C 
BRANCH  13  18
ATOM      2  O   UNL     1      10.967   4.476  -3.469  0.00  0.00    -0.458 OA
ATOM     18  C   UNL     1      11.601   5.045  -2.428  0.00  0.00    +0.120 A 
ATOM     20  C   UNL     1      10.834   5.958  -1.783  0.00  0.00    +0.054 A 
ATOM     21  C   UNL     1       9.596   5.973  -2.478  0.00  0.00    +0.020 A 
ATOM     22  C   UNL     1       9.729   5.044  -3.506  0.00  0.00    +0.135 A 
ATOM     25  C   UNL     1       8.380   6.666  -2.352  0.00  0.00    +0.011 A 
ATOM     26  C   UNL     1       8.727   4.752  -4.429  0.00  0.00    +0.047 A 
ATOM     29  C   UNL     1       7.353   6.394  -3.267  0.00  0.00    +0.001 A 
ATOM     30  C   UNL     1       7.525   5.454  -4.286  0.00  0.00    +0.004 A 
ENDBRANCH  13  18
ENDBRANCH   3  13
TORSDOF 4
ENDMDL
MODEL 8
REMARK VINA RESULT:      -7.0      2.596      7.425
REMARK  Name = 7673849
REMARK  4 active torsions:
REMARK  status: ('A' for Active; 'I' for Inactive)
REMARK    1  A    between atoms: N_3  and  C_13
REMARK    2  A    between atoms: C_13  and  C_18
REMARK    3  A    between atoms: C_16  and  C_19
REMARK    4  A    between atoms: C_27  and  C_32
REMARK                            x       y       z     vdW  Elec       q    Type
REMARK                         _______ _______ _______ _____ _____    ______ ____
ROOT
ATOM      1  O   UNL     1      10.247   3.968   3.326  0.00  0.00    -0.267 OA
ATOM      3  N   UNL     1       9.357   8.111   6.004  0.00  0.00    -0.294 NA
ATOM      4  N   UNL     1      10.964   5.640   4.786  0.00  0.00    -0.311 N 
ATOM      6  C   UNL     1       9.971   5.956   7.127  0.00  0.00    +0.024 C 
ATOM      7  C   UNL     1      11.743   7.455   6.348  0.00  0.00    +0.050 C 
ATOM      8  C   UNL     1      11.347   6.506   7.476  0.00  0.00    +0.017 C 
ATOM      9  C   UNL     1       8.955   7.111   7.000  0.00  0.00    +0.090 C 
ATOM     10  C   UNL     1      10.717   8.608   6.259  0.00  0.00    +0.094 C 
ATOM     11  C   UNL     1      10.082   5.125   5.841  0.00  0.00    +0.130 C 
ATOM     12  C   UNL     1      11.825   6.715   5.026  0.00  0.00    +0.026 A 
ATOM     14  C   UNL     1      12.703   7.099   4.085  0.00  0.00    +0.022 A 
ATOM     15  C   UNL     1      10.970   4.937   3.565  0.00  0.00    +0.259 A 
ATOM     16  C   UNL     1      11.941   5.415   2.521  0.00  0.00    +0.047 A 
ATOM     17  C   UNL     1      12.758   6.439   2.811  0.00  0.00    +0.015 A 
ENDROOT
BRANCH  16  19
ATOM     19  C   UNL     1      12.001   4.787   1.239  0.00  0.00    -0.011 A 
ATOM     23  C   UNL     1      11.062   5.106   0.259  0.00  0.00    +0.027 A 
ATOM     24  C   UNL     1      13.000   3.852   0.968  0.00  0.00    +0.009 A 
ATOM     27  C   UNL     1      11.121   4.491  -0.991  0.00  0.00    +0.052 A 
ATOM     28  C   UNL     1      13.060   3.237  -0.282  0.00  0.00    +0.002 A 
ATOM     31  C   UNL     1      12.119   3.555  -1.261  0.00  0.00    +0.019 A 
BRANCH  27  32
ATOM      5  N   UNL     1       9.376   5.085  -2.812  0.00  0.00    -0.191 NA
ATOM     32  C   UNL     1      10.159   4.818  -1.995  0.00  0.00    +0.099 C 
ENDBRANCH  27  32
ENDBRANCH  16  19
BRANCH   3  13
ATOM     13  C   UNL     1       8.398   9.212   5.952  0.00  0.00    +0.158 C 
BRANCH  13  18
ATOM      2  O   UNL     1       6.576   9.777   4.494  0.00  0.00    -0.458 OA
ATOM     18  C   UNL     1       7.843   9.330   4.566  0.00  0.00    +0.120 A 
ATOM     20  C   UNL     1       8.376   9.069   3.346  0.00  0.00    +0.054 A 
ATOM     21  C   UNL     1       7.354   9.378   2.411  0.00  0.00    +0.020 A 
ATOM     22  C   UNL     1       6.268   9.809   3.167  0.00  0.00    +0.135 A 
ATOM     25  C   UNL     1       7.226   9.342   1.012  0.00  0.00    +0.011 A 
ATOM     26  C   UNL     1       5.050  10.212   2.624  0.00  0.00    +0.047 A 
ATOM     29  C   UNL     1       6.011   9.742   0.437  0.00  0.00    +0.001 A 
ATOM     30  C   UNL     1       4.944  10.168   1.230  0.00  0.00    +0.004 A 
ENDBRANCH  13  18
ENDBRANCH   3  13
TORSDOF 4
ENDMDL
MODEL 9
REMARK VINA RESULT:      -7.0     13.709     16.749
REMARK  Name = 7673849
REMARK  4 active torsions:
REMARK  status: ('A' for Active; 'I' for Inactive)
REMARK    1  A    between atoms: N_3  and  C_13
REMARK    2  A    between atoms: C_13  and  C_18
REMARK    3  A    between atoms: C_16  and  C_19
REMARK    4  A    between atoms: C_27  and  C_32
REMARK                            x       y       z     vdW  Elec       q    Type
REMARK                         _______ _______ _______ _____ _____    ______ ____
ROOT
ATOM      1  O   UNL     1      -6.574   9.662   5.239  0.00  0.00    -0.267 OA
ATOM      3  N   UNL     1      -1.833  10.446   3.811  0.00  0.00    -0.294 NA
ATOM      4  N   UNL     1      -4.284   9.296   5.497  0.00  0.00    -0.311 N 
ATOM      6  C   UNL     1      -2.637  11.174   6.070  0.00  0.00    +0.024 C 
ATOM      7  C   UNL     1      -1.814   8.889   5.764  0.00  0.00    +0.050 C 
ATOM      8  C   UNL     1      -1.833  10.065   6.736  0.00  0.00    +0.017 C 
ATOM      9  C   UNL     1      -1.978  11.577   4.734  0.00  0.00    +0.090 C 
ATOM     10  C   UNL     1      -1.132   9.320   4.445  0.00  0.00    +0.094 C 
ATOM     11  C   UNL     1      -4.085  10.697   5.893  0.00  0.00    +0.130 C 
ATOM     12  C   UNL     1      -3.222   8.389   5.496  0.00  0.00    +0.026 A 
ATOM     14  C   UNL     1      -3.444   7.090   5.239  0.00  0.00    +0.022 A 
ATOM     15  C   UNL     1      -5.607   8.897   5.220  0.00  0.00    +0.259 A 
ATOM     16  C   UNL     1      -5.816   7.443   4.904  0.00  0.00    +0.047 A 
ATOM     17  C   UNL     1      -4.763   6.611   4.936  0.00  0.00    +0.015 A 
ENDROOT
BRANCH  16  19
ATOM     19  C   UNL     1      -7.116   6.946   4.579  0.00  0.00    -0.011 A 
ATOM     23  C   UNL     1      -7.799   7.447   3.471  0.00  0.00    +0.027 A 
ATOM     24  C   UNL     1      -7.703   5.961   5.373  0.00  0.00    +0.009 A 
ATOM     27  C   UNL     1      -9.069   6.962   3.157  0.00  0.00    +0.052 A 
ATOM     28  C   UNL     1      -8.972   5.476   5.059  0.00  0.00    +0.002 A 
ATOM     31  C   UNL     1      -9.656   5.978   3.952  0.00  0.00    +0.019 A 
BRANCH  27  32
ATOM      5  N   UNL     1     -10.337   7.891   1.097  0.00  0.00    -0.191 NA
ATOM     32  C   UNL     1      -9.769   7.474   2.021  0.00  0.00    +0.099 C 
ENDBRANCH  27  32
ENDBRANCH  16  19
BRANCH   3  13
ATOM     13  C   UNL     1      -1.158  10.857   2.582  0.00  0.00    +0.158 C 
BRANCH  13  18
ATOM      2  O   UNL     1      -1.511  10.863   0.206  0.00  0.00    -0.458 OA
ATOM     18  C   UNL     1      -2.065  10.631   1.411  0.00  0.00    +0.120 A 
ATOM     20  C   UNL     1      -3.358  10.230   1.325  0.00  0.00    +0.054 A 
ATOM     21  C   UNL     1      -3.656  10.205  -0.063  0.00  0.00    +0.020 A 
ATOM     22  C   UNL     1      -2.489  10.602  -0.707  0.00  0.00    +0.135 A 
ATOM     25  C   UNL     1      -4.781   9.892  -0.845  0.00  0.00    +0.011 A 
ATOM     26  C   UNL     1      -2.358  10.711  -2.090  0.00  0.00    +0.047 A 
ATOM     29  C   UNL     1      -4.680   9.992  -2.239  0.00  0.00    +0.001 A 
ATOM     30  C   UNL     1      -3.490  10.395  -2.849  0.00  0.00    +0.004 A 
ENDBRANCH  13  18
ENDBRANCH   3  13
TORSDOF 4
ENDMDL
MODEL 10
REMARK VINA RESULT:      -6.9     25.693     28.245
REMARK  Name = 7673849
REMARK  4 active torsions:
REMARK  status: ('A' for Active; 'I' for Inactive)
REMARK    1  A    between atoms: N_3  and  C_13
REMARK    2  A    between atoms: C_13  and  C_18
REMARK    3  A    between atoms: C_16  and  C_19
REMARK    4  A    between atoms: C_27  and  C_32
REMARK                            x       y       z     vdW  Elec       q    Type
REMARK                         _______ _______ _______ _____ _____    ______ ____
ROOT
ATOM      1  O   UNL     1      -7.852  -8.855  17.311  0.00  0.00    -0.267 OA
ATOM      3  N   UNL     1      -4.352 -12.080  15.738  0.00  0.00    -0.294 NA
ATOM      4  N   UNL     1      -6.828 -10.950  17.398  0.00  0.00    -0.311 N 
ATOM      6  C   UNL     1      -4.388 -11.272  18.110  0.00  0.00    +0.024 C 
ATOM      7  C   UNL     1      -5.735 -13.216  17.481  0.00  0.00    +0.050 C 
ATOM      8  C   UNL     1      -4.861 -12.636  18.589  0.00  0.00    +0.017 C 
ATOM      9  C   UNL     1      -3.585 -11.420  16.800  0.00  0.00    +0.090 C 
ATOM     10  C   UNL     1      -4.898 -13.369  16.190  0.00  0.00    +0.094 C 
ATOM     11  C   UNL     1      -5.607 -10.352  17.952  0.00  0.00    +0.130 C 
ATOM     12  C   UNL     1      -6.943 -12.332  17.229  0.00  0.00    +0.026 A 
ATOM     14  C   UNL     1      -8.106 -12.870  16.827  0.00  0.00    +0.022 A 
ATOM     15  C   UNL     1      -7.905 -10.075  17.146  0.00  0.00    +0.259 A 
ATOM     16  C   UNL     1      -9.182 -10.706  16.665  0.00  0.00    +0.047 A 
ATOM     17  C   UNL     1      -9.242 -12.041  16.539  0.00  0.00    +0.015 A 
ENDROOT
BRANCH  16  19
ATOM     19  C   UNL     1     -10.320  -9.901  16.353  0.00  0.00    -0.011 A 
ATOM     23  C   UNL     1     -10.553  -9.501  15.037  0.00  0.00    +0.027 A 
ATOM     24  C   UNL     1     -11.198  -9.514  17.365  0.00  0.00    +0.009 A 
ATOM     27  C   UNL     1     -11.664  -8.713  14.734  0.00  0.00    +0.052 A 
ATOM     28  C   UNL     1     -12.309  -8.727  17.062  0.00  0.00    +0.002 A 
ATOM     31  C   UNL     1     -12.541  -8.326  15.747  0.00  0.00    +0.019 A 
BRANCH  27  32
ATOM      5  N   UNL     1     -12.098  -7.970  12.290  0.00  0.00    -0.191 NA
ATOM     32  C   UNL     1     -11.903  -8.303  13.386  0.00  0.00    +0.099 C 
ENDBRANCH  27  32
ENDBRANCH  16  19
BRANCH   3  13
ATOM     13  C   UNL     1      -3.541 -12.250  14.534  0.00  0.00    +0.158 C 
BRANCH  13  18
ATOM      2  O   UNL     1      -3.151 -11.130  12.445  0.00  0.00    -0.458 OA
ATOM     18  C   UNL     1      -3.995 -11.283  13.483  0.00  0.00    +0.120 A 
ATOM     20  C   UNL     1      -5.109 -10.519  13.369  0.00  0.00    +0.054 A 
ATOM     21  C   UNL     1      -4.962  -9.813  12.147  0.00  0.00    +0.020 A 
ATOM     22  C   UNL     1      -3.742 -10.223  11.617  0.00  0.00    +0.135 A 
ATOM     25  C   UNL     1      -5.722  -8.873  11.429  0.00  0.00    +0.011 A 
ATOM     26  C   UNL     1      -3.219  -9.762  10.412  0.00  0.00    +0.047 A 
ATOM     29  C   UNL     1      -5.221  -8.390  10.212  0.00  0.00    +0.001 A 
ATOM     30  C   UNL     1      -3.992  -8.828   9.714  0.00  0.00    +0.004 A 
ENDBRANCH  13  18
ENDBRANCH   3  13
TORSDOF 4
ENDMDL
