MODEL 1
REMARK VINA RESULT:      -7.6      0.000      0.000
REMARK  Name = 11942956
REMARK  9 active torsions:
REMARK  status: ('A' for Active; 'I' for Inactive)
REMARK    1  A    between atoms: O_2  and  C_18
REMARK    2  A    between atoms: O_3  and  C_27
REMARK    3  A    between atoms: O_3  and  C_32
REMARK    4  A    between atoms: N_5  and  C_16
REMARK    5  A    between atoms: N_6  and  C_25
REMARK    6  A    between atoms: C_10  and  C_16
REMARK    7  A    between atoms: C_11  and  C_17
REMARK    8  A    between atoms: C_18  and  C_21
REMARK    9  A    between atoms: C_25  and  C_26
REMARK                            x       y       z     vdW  Elec       q    Type
REMARK                         _______ _______ _______ _____ _____    ______ ____
ROOT
ATOM      4  N   UNL     1      14.480   8.866  18.789  0.00  0.00    -0.297 NA
ATOM      9  C   UNL     1      11.966   8.316  18.407  0.00  0.00    +0.005 C 
ATOM     10  C   UNL     1      14.241   7.413  18.999  0.00  0.00    +0.078 C 
ATOM     11  C   UNL     1      12.137   9.476  19.407  0.00  0.00    +0.092 C 
ATOM     12  C   UNL     1      12.734   7.085  18.929  0.00  0.00    +0.025 C 
ATOM     13  C   UNL     1      12.642   8.756  17.096  0.00  0.00    +0.020 C 
ATOM     14  C   UNL     1      13.634   9.665  19.710  0.00  0.00    +0.097 C 
ATOM     15  C   UNL     1      14.087   9.195  17.396  0.00  0.00    +0.085 C 
ENDROOT
BRANCH  11  17
ATOM      1  O   UNL     1      10.586   8.275  20.768  0.00  0.00    -0.275 OA
ATOM      6  N   UNL     1      11.554  10.219  21.608  0.00  0.00    -0.311 N 
ATOM     17  C   UNL     1      11.343   9.237  20.655  0.00  0.00    +0.218 C 
ATOM     33  H   UNL     1      12.237  10.949  21.435  0.00  0.00    +0.149 HD
BRANCH   6  25
ATOM     25  C   UNL     1      10.889  10.231  22.891  0.00  0.00    +0.143 C 
BRANCH  25  26
ATOM     26  C   UNL     1      11.419  11.312  23.787  0.00  0.00    +0.011 A 
ATOM     27  C   UNL     1      12.793  11.523  23.916  0.00  0.00    +0.125 A 
ATOM     28  C   UNL     1      10.522  12.110  24.497  0.00  0.00    +0.009 A 
ATOM     29  C   UNL     1      13.268  12.532  24.753  0.00  0.00    +0.046 A 
ATOM     30  C   UNL     1      10.997  13.119  25.335  0.00  0.00    +0.001 A 
ATOM     31  C   UNL     1      12.371  13.330  25.463  0.00  0.00    +0.004 A 
BRANCH  27   3
ATOM      3  O   UNL     1      13.683  10.752  23.231  0.00  0.00    -0.495 OA
ATOM     32  C   UNL     1      15.055  11.131  23.300  0.00  0.00    +0.277 C 
ENDBRANCH  27   3
ENDBRANCH  25  26
ENDBRANCH   6  25
ENDBRANCH  11  17
BRANCH  10  16
ATOM     16  C   UNL     1      14.875   6.899  20.293  0.00  0.00    +0.164 C 
BRANCH  16   5
ATOM      5  N   UNL     1      16.253   6.482  20.092  0.00  0.00    -0.250 N 
ATOM      7  N   UNL     1      16.656   5.854  18.992  0.00  0.00    -0.065 NA
ATOM      8  N   UNL     1      17.970   5.616  19.127  0.00  0.00    -0.132 NA
ATOM     21  C   UNL     1      18.445   6.083  20.313  0.00  0.00    +0.114 A 
ATOM     22  C   UNL     1      17.337   6.630  20.911  0.00  0.00    +0.136 A 
BRANCH  21  18
ATOM     18  C   UNL     1      19.889   5.964  20.756  0.00  0.00    +0.111 C 
ATOM     19  C   UNL     1      20.488   4.565  20.526  0.00  0.00    +0.041 C 
ATOM     20  C   UNL     1      20.149   6.142  22.261  0.00  0.00    +0.041 C 
ATOM     23  C   UNL     1      21.719   4.485  21.431  0.00  0.00    +0.003 C 
ATOM     24  C   UNL     1      21.549   5.579  22.479  0.00  0.00    +0.003 C 
BRANCH  18   2
ATOM      2  O   UNL     1      20.699   6.908  20.044  0.00  0.00    -0.382 OA
ATOM     34  H   UNL     1      21.060   6.457  19.261  0.00  0.00    +0.211 HD
ENDBRANCH  18   2
ENDBRANCH  21  18
ENDBRANCH  16   5
ENDBRANCH  10  16
TORSDOF 8
ENDMDL
MODEL 2
REMARK VINA RESULT:      -7.6      1.967      2.672
REMARK  Name = 11942956
REMARK  9 active torsions:
REMARK  status: ('A' for Active; 'I' for Inactive)
REMARK    1  A    between atoms: O_2  and  C_18
REMARK    2  A    between atoms: O_3  and  C_27
REMARK    3  A    between atoms: O_3  and  C_32
REMARK    4  A    between atoms: N_5  and  C_16
REMARK    5  A    between atoms: N_6  and  C_25
REMARK    6  A    between atoms: C_10  and  C_16
REMARK    7  A    between atoms: C_11  and  C_17
REMARK    8  A    between atoms: C_18  and  C_21
REMARK    9  A    between atoms: C_25  and  C_26
REMARK                            x       y       z     vdW  Elec       q    Type
REMARK                         _______ _______ _______ _____ _____    ______ ____
ROOT
ATOM      4  N   UNL     1      12.679   6.891  19.643  0.00  0.00    -0.297 NA
ATOM      9  C   UNL     1      12.557   8.398  21.759  0.00  0.00    +0.005 C 
ATOM     10  C   UNL     1      14.041   7.083  20.207  0.00  0.00    +0.078 C 
ATOM     11  C   UNL     1      11.846   9.060  20.562  0.00  0.00    +0.092 C 
ATOM     12  C   UNL     1      14.019   8.097  21.373  0.00  0.00    +0.025 C 
ATOM     13  C   UNL     1      11.859   7.049  22.001  0.00  0.00    +0.020 C 
ATOM     14  C   UNL     1      12.071   8.202  19.305  0.00  0.00    +0.097 C 
ATOM     15  C   UNL     1      11.840   6.247  20.686  0.00  0.00    +0.085 C 
ENDROOT
BRANCH  11  17
ATOM      1  O   UNL     1      13.137  10.765  19.501  0.00  0.00    -0.275 OA
ATOM      6  N   UNL     1      11.736  11.345  21.268  0.00  0.00    -0.311 N 
ATOM     17  C   UNL     1      12.315  10.470  20.366  0.00  0.00    +0.218 C 
ATOM     33  H   UNL     1      11.030  11.009  21.915  0.00  0.00    +0.149 HD
BRANCH   6  25
ATOM     25  C   UNL     1      12.037  12.758  21.302  0.00  0.00    +0.143 C 
BRANCH  25  26
ATOM     26  C   UNL     1      11.000  13.536  22.059  0.00  0.00    +0.011 A 
ATOM     27  C   UNL     1      10.894  13.424  23.445  0.00  0.00    +0.125 A 
ATOM     28  C   UNL     1      10.135  14.377  21.359  0.00  0.00    +0.009 A 
ATOM     29  C   UNL     1       9.924  14.153  24.132  0.00  0.00    +0.046 A 
ATOM     30  C   UNL     1       9.164  15.106  22.046  0.00  0.00    +0.001 A 
ATOM     31  C   UNL     1       9.058  14.995  23.433  0.00  0.00    +0.004 A 
BRANCH  27   3
ATOM      3  O   UNL     1      11.731  12.606  24.144  0.00  0.00    -0.495 OA
ATOM     32  C   UNL     1      11.126  11.651  25.013  0.00  0.00    +0.277 C 
ENDBRANCH  27   3
ENDBRANCH  25  26
ENDBRANCH   6  25
ENDBRANCH  11  17
BRANCH  10  16
ATOM     16  C   UNL     1      15.065   7.469  19.138  0.00  0.00    +0.164 C 
BRANCH  16   5
ATOM      5  N   UNL     1      16.344   6.811  19.352  0.00  0.00    -0.250 N 
ATOM      7  N   UNL     1      16.685   5.691  18.724  0.00  0.00    -0.065 NA
ATOM      8  N   UNL     1      17.915   5.356  19.144  0.00  0.00    -0.132 NA
ATOM     21  C   UNL     1      18.395   6.250  20.050  0.00  0.00    +0.114 A 
ATOM     22  C   UNL     1      17.381   7.167  20.168  0.00  0.00    +0.136 A 
BRANCH  21  18
ATOM     18  C   UNL     1      19.756   6.144  20.707  0.00  0.00    +0.111 C 
ATOM     19  C   UNL     1      20.391   4.747  20.584  0.00  0.00    +0.041 C 
ATOM     20  C   UNL     1      19.784   6.337  22.232  0.00  0.00    +0.041 C 
ATOM     23  C   UNL     1      21.470   4.683  21.666  0.00  0.00    +0.003 C 
ATOM     24  C   UNL     1      21.138   5.784  22.666  0.00  0.00    +0.003 C 
BRANCH  18   2
ATOM      2  O   UNL     1      20.660   7.087  20.117  0.00  0.00    -0.382 OA
ATOM     34  H   UNL     1      20.133   7.838  19.791  0.00  0.00    +0.211 HD
ENDBRANCH  18   2
ENDBRANCH  21  18
ENDBRANCH  16   5
ENDBRANCH  10  16
TORSDOF 8
ENDMDL
MODEL 3
REMARK VINA RESULT:      -7.5     28.088     31.930
REMARK  Name = 11942956
REMARK  9 active torsions:
REMARK  status: ('A' for Active; 'I' for Inactive)
REMARK    1  A    between atoms: O_2  and  C_18
REMARK    2  A    between atoms: O_3  and  C_27
REMARK    3  A    between atoms: O_3  and  C_32
REMARK    4  A    between atoms: N_5  and  C_16
REMARK    5  A    between atoms: N_6  and  C_25
REMARK    6  A    between atoms: C_10  and  C_16
REMARK    7  A    between atoms: C_11  and  C_17
REMARK    8  A    between atoms: C_18  and  C_21
REMARK    9  A    between atoms: C_25  and  C_26
REMARK                            x       y       z     vdW  Elec       q    Type
REMARK                         _______ _______ _______ _____ _____    ______ ____
ROOT
ATOM      4  N   UNL     1     -17.945   3.408  25.782  0.00  0.00    -0.297 NA
ATOM      9  C   UNL     1     -18.087   0.898  26.454  0.00  0.00    +0.005 C 
ATOM     10  C   UNL     1     -16.987   2.611  24.971  0.00  0.00    +0.078 C 
ATOM     11  C   UNL     1     -17.878   1.795  27.690  0.00  0.00    +0.092 C 
ATOM     12  C   UNL     1     -16.940   1.144  25.454  0.00  0.00    +0.025 C 
ATOM     13  C   UNL     1     -19.390   1.365  25.782  0.00  0.00    +0.020 C 
ATOM     14  C   UNL     1     -17.655   3.246  27.229  0.00  0.00    +0.097 C 
ATOM     15  C   UNL     1     -19.309   2.881  25.522  0.00  0.00    +0.085 C 
ENDROOT
BRANCH  11  17
ATOM      1  O   UNL     1     -16.748   0.175  29.029  0.00  0.00    -0.275 OA
ATOM      6  N   UNL     1     -15.750   2.250  28.689  0.00  0.00    -0.311 N 
ATOM     17  C   UNL     1     -16.744   1.299  28.534  0.00  0.00    +0.218 C 
ATOM     33  H   UNL     1     -15.819   3.136  28.199  0.00  0.00    +0.149 HD
BRANCH   6  25
ATOM     25  C   UNL     1     -14.558   2.027  29.476  0.00  0.00    +0.143 C 
BRANCH  25  26
ATOM     26  C   UNL     1     -14.776   2.347  30.926  0.00  0.00    +0.011 A 
ATOM     27  C   UNL     1     -15.163   3.627  31.325  0.00  0.00    +0.125 A 
ATOM     28  C   UNL     1     -14.586   1.347  31.881  0.00  0.00    +0.009 A 
ATOM     29  C   UNL     1     -15.361   3.907  32.676  0.00  0.00    +0.046 A 
ATOM     30  C   UNL     1     -14.783   1.628  33.233  0.00  0.00    +0.001 A 
ATOM     31  C   UNL     1     -15.170   2.908  33.631  0.00  0.00    +0.004 A 
BRANCH  27   3
ATOM      3  O   UNL     1     -15.353   4.615  30.405  0.00  0.00    -0.495 OA
ATOM     32  C   UNL     1     -16.572   5.349  30.486  0.00  0.00    +0.277 C 
ENDBRANCH  27   3
ENDBRANCH  25  26
ENDBRANCH   6  25
ENDBRANCH  11  17
BRANCH  10  16
ATOM     16  C   UNL     1     -15.593   3.241  24.931  0.00  0.00    +0.164 C 
BRANCH  16   5
ATOM      5  N   UNL     1     -15.394   4.036  23.731  0.00  0.00    -0.250 N 
ATOM      7  N   UNL     1     -16.139   3.884  22.641  0.00  0.00    -0.065 NA
ATOM      8  N   UNL     1     -15.697   4.764  21.730  0.00  0.00    -0.132 NA
ATOM     21  C   UNL     1     -14.660   5.504  22.208  0.00  0.00    +0.114 A 
ATOM     22  C   UNL     1     -14.484   5.025  23.482  0.00  0.00    +0.136 A 
BRANCH  21  18
ATOM     18  C   UNL     1     -13.947   6.580  21.415  0.00  0.00    +0.111 C 
ATOM     19  C   UNL     1     -12.461   6.269  21.156  0.00  0.00    +0.041 C 
ATOM     20  C   UNL     1     -13.837   7.955  22.095  0.00  0.00    +0.041 C 
ATOM     23  C   UNL     1     -11.813   7.608  20.798  0.00  0.00    +0.003 C 
ATOM     24  C   UNL     1     -12.759   8.690  21.305  0.00  0.00    +0.003 C 
BRANCH  18   2
ATOM      2  O   UNL     1     -14.584   6.755  20.143  0.00  0.00    -0.382 OA
ATOM     34  H   UNL     1     -15.060   5.932  19.935  0.00  0.00    +0.211 HD
ENDBRANCH  18   2
ENDBRANCH  21  18
ENDBRANCH  16   5
ENDBRANCH  10  16
TORSDOF 8
ENDMDL
MODEL 4
REMARK VINA RESULT:      -7.0     28.113     29.872
REMARK  Name = 11942956
REMARK  9 active torsions:
REMARK  status: ('A' for Active; 'I' for Inactive)
REMARK    1  A    between atoms: O_2  and  C_18
REMARK    2  A    between atoms: O_3  and  C_27
REMARK    3  A    between atoms: O_3  and  C_32
REMARK    4  A    between atoms: N_5  and  C_16
REMARK    5  A    between atoms: N_6  and  C_25
REMARK    6  A    between atoms: C_10  and  C_16
REMARK    7  A    between atoms: C_11  and  C_17
REMARK    8  A    between atoms: C_18  and  C_21
REMARK    9  A    between atoms: C_25  and  C_26
REMARK                            x       y       z     vdW  Elec       q    Type
REMARK                         _______ _______ _______ _____ _____    ______ ____
ROOT
ATOM      4  N   UNL     1      -5.423 -12.510  17.274  0.00  0.00    -0.297 NA
ATOM      9  C   UNL     1      -5.988 -11.181  19.439  0.00  0.00    +0.005 C 
ATOM     10  C   UNL     1      -5.301 -11.050  17.020  0.00  0.00    +0.078 C 
ATOM     11  C   UNL     1      -7.104 -12.187  19.094  0.00  0.00    +0.092 C 
ATOM     12  C   UNL     1      -5.778 -10.234  18.241  0.00  0.00    +0.025 C 
ATOM     13  C   UNL     1      -4.694 -11.996  19.612  0.00  0.00    +0.020 C 
ATOM     14  C   UNL     1      -6.794 -12.840  17.736  0.00  0.00    +0.097 C 
ATOM     15  C   UNL     1      -4.472 -12.864  18.359  0.00  0.00    +0.085 C 
ENDROOT
BRANCH  11  17
ATOM      1  O   UNL     1      -8.888 -10.959  20.098  0.00  0.00    -0.275 OA
ATOM      6  N   UNL     1      -9.106 -11.662  17.890  0.00  0.00    -0.311 N 
ATOM     17  C   UNL     1      -8.449 -11.527  19.101  0.00  0.00    +0.218 C 
ATOM     33  H   UNL     1      -8.637 -12.111  17.110  0.00  0.00    +0.149 HD
BRANCH   6  25
ATOM     25  C   UNL     1     -10.429 -11.134  17.644  0.00  0.00    +0.143 C 
BRANCH  25  26
ATOM     26  C   UNL     1     -10.382  -9.806  16.946  0.00  0.00    +0.011 A 
ATOM     27  C   UNL     1      -9.895  -9.701  15.643  0.00  0.00    +0.125 A 
ATOM     28  C   UNL     1     -10.832  -8.668  17.616  0.00  0.00    +0.009 A 
ATOM     29  C   UNL     1      -9.860  -8.459  15.010  0.00  0.00    +0.046 A 
ATOM     30  C   UNL     1     -10.795  -7.426  16.983  0.00  0.00    +0.001 A 
ATOM     31  C   UNL     1     -10.309  -7.321  15.679  0.00  0.00    +0.004 A 
BRANCH  27   3
ATOM      3  O   UNL     1      -9.451 -10.803  14.974  0.00  0.00    -0.495 OA
ATOM     32  C   UNL     1      -9.161 -10.645  13.588  0.00  0.00    +0.277 C 
ENDBRANCH  27   3
ENDBRANCH  25  26
ENDBRANCH   6  25
ENDBRANCH  11  17
BRANCH  10  16
ATOM     16  C   UNL     1      -6.014 -10.621  15.736  0.00  0.00    +0.164 C 
BRANCH  16   5
ATOM      5  N   UNL     1      -5.096 -10.530  14.612  0.00  0.00    -0.250 N 
ATOM      7  N   UNL     1      -3.779 -10.630  14.756  0.00  0.00    -0.065 NA
ATOM      8  N   UNL     1      -3.234 -10.504  13.536  0.00  0.00    -0.132 NA
ATOM     21  C   UNL     1      -4.184 -10.320  12.579  0.00  0.00    +0.114 A 
ATOM     22  C   UNL     1      -5.361 -10.340  13.285  0.00  0.00    +0.136 A 
BRANCH  21  18
ATOM     18  C   UNL     1      -3.882 -10.145  11.105  0.00  0.00    +0.111 C 
ATOM     19  C   UNL     1      -4.471  -8.855  10.506  0.00  0.00    +0.041 C 
ATOM     20  C   UNL     1      -4.488 -11.199  10.164  0.00  0.00    +0.041 C 
ATOM     23  C   UNL     1      -4.494  -9.072   8.992  0.00  0.00    +0.003 C 
ATOM     24  C   UNL     1      -4.391 -10.577   8.775  0.00  0.00    +0.003 C 
BRANCH  18   2
ATOM      2  O   UNL     1      -2.464 -10.116  10.895  0.00  0.00    -0.382 OA
ATOM     34  H   UNL     1      -2.081 -10.886  11.351  0.00  0.00    +0.211 HD
ENDBRANCH  18   2
ENDBRANCH  21  18
ENDBRANCH  16   5
ENDBRANCH  10  16
TORSDOF 8
ENDMDL
MODEL 5
REMARK VINA RESULT:      -6.9     15.371     18.856
REMARK  Name = 11942956
REMARK  9 active torsions:
REMARK  status: ('A' for Active; 'I' for Inactive)
REMARK    1  A    between atoms: O_2  and  C_18
REMARK    2  A    between atoms: O_3  and  C_27
REMARK    3  A    between atoms: O_3  and  C_32
REMARK    4  A    between atoms: N_5  and  C_16
REMARK    5  A    between atoms: N_6  and  C_25
REMARK    6  A    between atoms: C_10  and  C_16
REMARK    7  A    between atoms: C_11  and  C_17
REMARK    8  A    between atoms: C_18  and  C_21
REMARK    9  A    between atoms: C_25  and  C_26
REMARK                            x       y       z     vdW  Elec       q    Type
REMARK                         _______ _______ _______ _____ _____    ______ ____
ROOT
ATOM      4  N   UNL     1       9.398   5.202   5.856  0.00  0.00    -0.297 NA
ATOM      9  C   UNL     1      10.218   7.144   7.381  0.00  0.00    +0.005 C 
ATOM     10  C   UNL     1      10.657   5.777   5.312  0.00  0.00    +0.078 C 
ATOM     11  C   UNL     1       8.746   7.341   6.971  0.00  0.00    +0.092 C 
ATOM     12  C   UNL     1      11.084   7.029   6.111  0.00  0.00    +0.025 C 
ATOM     13  C   UNL     1      10.298   5.794   8.115  0.00  0.00    +0.020 C 
ATOM     14  C   UNL     1       8.354   6.251   5.958  0.00  0.00    +0.097 C 
ATOM     15  C   UNL     1       9.682   4.698   7.224  0.00  0.00    +0.085 C 
ENDROOT
BRANCH  11  17
ATOM      1  O   UNL     1       9.095   9.701   6.880  0.00  0.00    -0.275 OA
ATOM      6  N   UNL     1       7.584   8.727   5.401  0.00  0.00    -0.311 N 
ATOM     17  C   UNL     1       8.515   8.718   6.425  0.00  0.00    +0.218 C 
ATOM     33  H   UNL     1       7.195   7.851   5.066  0.00  0.00    +0.149 HD
BRANCH   6  25
ATOM     25  C   UNL     1       7.168   9.933   4.722  0.00  0.00    +0.143 C 
BRANCH  25  26
ATOM     26  C   UNL     1       7.102   9.744   3.234  0.00  0.00    +0.011 A 
ATOM     27  C   UNL     1       8.234   9.367   2.511  0.00  0.00    +0.125 A 
ATOM     28  C   UNL     1       5.890   9.951   2.574  0.00  0.00    +0.009 A 
ATOM     29  C   UNL     1       8.155   9.197   1.130  0.00  0.00    +0.046 A 
ATOM     30  C   UNL     1       5.812   9.781   1.192  0.00  0.00    +0.001 A 
ATOM     31  C   UNL     1       6.944   9.404   0.469  0.00  0.00    +0.004 A 
BRANCH  27   3
ATOM      3  O   UNL     1       9.426   9.162   3.141  0.00  0.00    -0.495 OA
ATOM     32  C   UNL     1      10.485  10.063   2.829  0.00  0.00    +0.277 C 
ENDBRANCH  27   3
ENDBRANCH  25  26
ENDBRANCH   6  25
ENDBRANCH  11  17
BRANCH  10  16
ATOM     16  C   UNL     1      10.566   6.064   3.812  0.00  0.00    +0.164 C 
BRANCH  16   5
ATOM      5  N   UNL     1      11.490   5.242   3.048  0.00  0.00    -0.250 N 
ATOM      7  N   UNL     1      11.274   3.952   2.814  0.00  0.00    -0.065 NA
ATOM      8  N   UNL     1      12.308   3.500   2.087  0.00  0.00    -0.132 NA
ATOM     21  C   UNL     1      13.212   4.485   1.835  0.00  0.00    +0.114 A 
ATOM     22  C   UNL     1      12.673   5.584   2.454  0.00  0.00    +0.136 A 
BRANCH  21  18
ATOM     18  C   UNL     1      14.486   4.285   1.039  0.00  0.00    +0.111 C 
ATOM     19  C   UNL     1      15.357   5.550   0.947  0.00  0.00    +0.041 C 
ATOM     20  C   UNL     1      14.303   3.955  -0.451  0.00  0.00    +0.041 C 
ATOM     23  C   UNL     1      16.299   5.322  -0.237  0.00  0.00    +0.003 C 
ATOM     24  C   UNL     1      15.670   4.214  -1.074  0.00  0.00    +0.003 C 
BRANCH  18   2
ATOM      2  O   UNL     1      15.280   3.251   1.636  0.00  0.00    -0.382 OA
ATOM     34  H   UNL     1      14.997   3.158   2.562  0.00  0.00    +0.211 HD
ENDBRANCH  18   2
ENDBRANCH  21  18
ENDBRANCH  16   5
ENDBRANCH  10  16
TORSDOF 8
ENDMDL
MODEL 6
REMARK VINA RESULT:      -6.7      3.092     10.797
REMARK  Name = 11942956
REMARK  9 active torsions:
REMARK  status: ('A' for Active; 'I' for Inactive)
REMARK    1  A    between atoms: O_2  and  C_18
REMARK    2  A    between atoms: O_3  and  C_27
REMARK    3  A    between atoms: O_3  and  C_32
REMARK    4  A    between atoms: N_5  and  C_16
REMARK    5  A    between atoms: N_6  and  C_25
REMARK    6  A    between atoms: C_10  and  C_16
REMARK    7  A    between atoms: C_11  and  C_17
REMARK    8  A    between atoms: C_18  and  C_21
REMARK    9  A    between atoms: C_25  and  C_26
REMARK                            x       y       z     vdW  Elec       q    Type
REMARK                         _______ _______ _______ _____ _____    ______ ____
ROOT
ATOM      4  N   UNL     1      20.205   7.804  20.730  0.00  0.00    -0.297 NA
ATOM      9  C   UNL     1      20.590   6.734  23.069  0.00  0.00    +0.005 C 
ATOM     10  C   UNL     1      18.973   7.101  21.175  0.00  0.00    +0.078 C 
ATOM     11  C   UNL     1      21.698   6.323  22.079  0.00  0.00    +0.092 C 
ATOM     12  C   UNL     1      19.221   6.328  22.489  0.00  0.00    +0.025 C 
ATOM     13  C   UNL     1      20.616   8.270  23.153  0.00  0.00    +0.020 C 
ATOM     14  C   UNL     1      21.348   6.859  20.680  0.00  0.00    +0.097 C 
ATOM     15  C   UNL     1      20.516   8.855  21.732  0.00  0.00    +0.085 C 
ENDROOT
BRANCH  11  17
ATOM      1  O   UNL     1      21.623   4.152  21.091  0.00  0.00    -0.275 OA
ATOM      6  N   UNL     1      22.383   4.369  23.281  0.00  0.00    -0.311 N 
ATOM     17  C   UNL     1      21.896   4.838  22.073  0.00  0.00    +0.218 C 
ATOM     33  H   UNL     1      22.621   5.025  24.017  0.00  0.00    +0.149 HD
BRANCH   6  25
ATOM     25  C   UNL     1      22.639   2.970  23.540  0.00  0.00    +0.143 C 
BRANCH  25  26
ATOM     26  C   UNL     1      23.974   2.536  23.008  0.00  0.00    +0.011 A 
ATOM     27  C   UNL     1      25.136   3.232  23.341  0.00  0.00    +0.125 A 
ATOM     28  C   UNL     1      24.045   1.421  22.172  0.00  0.00    +0.009 A 
ATOM     29  C   UNL     1      26.368   2.815  22.838  0.00  0.00    +0.046 A 
ATOM     30  C   UNL     1      25.277   1.004  21.669  0.00  0.00    +0.001 A 
ATOM     31  C   UNL     1      26.439   1.701  22.001  0.00  0.00    +0.004 A 
BRANCH  27   3
ATOM      3  O   UNL     1      25.085   4.323  24.157  0.00  0.00    -0.495 OA
ATOM     32  C   UNL     1      25.830   5.469  23.752  0.00  0.00    +0.277 C 
ENDBRANCH  27   3
ENDBRANCH  25  26
ENDBRANCH   6  25
ENDBRANCH  11  17
BRANCH  10  16
ATOM     16  C   UNL     1      18.392   6.197  20.085  0.00  0.00    +0.164 C 
BRANCH  16   5
ATOM      5  N   UNL     1      16.955   6.369  19.949  0.00  0.00    -0.250 N 
ATOM      7  N   UNL     1      16.305   6.088  18.824  0.00  0.00    -0.065 NA
ATOM      8  N   UNL     1      15.007   6.355  19.036  0.00  0.00    -0.132 NA
ATOM     21  C   UNL     1      14.789   6.813  20.299  0.00  0.00    +0.114 A 
ATOM     22  C   UNL     1      16.041   6.814  20.862  0.00  0.00    +0.136 A 
BRANCH  21  18
ATOM     18  C   UNL     1      13.428   7.200  20.838  0.00  0.00    +0.111 C 
ATOM     19  C   UNL     1      12.493   7.802  19.772  0.00  0.00    +0.041 C 
ATOM     20  C   UNL     1      13.414   8.318  21.893  0.00  0.00    +0.041 C 
ATOM     23  C   UNL     1      11.407   8.550  20.546  0.00  0.00    +0.003 C 
ATOM     24  C   UNL     1      11.962   8.781  21.947  0.00  0.00    +0.003 C 
BRANCH  18   2
ATOM      2  O   UNL     1      12.774   6.050  21.392  0.00  0.00    -0.382 OA
ATOM     34  H   UNL     1      11.920   6.342  21.756  0.00  0.00    +0.211 HD
ENDBRANCH  18   2
ENDBRANCH  21  18
ENDBRANCH  16   5
ENDBRANCH  10  16
TORSDOF 8
ENDMDL
MODEL 7
REMARK VINA RESULT:      -6.7     13.250     18.176
REMARK  Name = 11942956
REMARK  9 active torsions:
REMARK  status: ('A' for Active; 'I' for Inactive)
REMARK    1  A    between atoms: O_2  and  C_18
REMARK    2  A    between atoms: O_3  and  C_27
REMARK    3  A    between atoms: O_3  and  C_32
REMARK    4  A    between atoms: N_5  and  C_16
REMARK    5  A    between atoms: N_6  and  C_25
REMARK    6  A    between atoms: C_10  and  C_16
REMARK    7  A    between atoms: C_11  and  C_17
REMARK    8  A    between atoms: C_18  and  C_21
REMARK    9  A    between atoms: C_25  and  C_26
REMARK                            x       y       z     vdW  Elec       q    Type
REMARK                         _______ _______ _______ _____ _____    ______ ____
ROOT
ATOM      4  N   UNL     1      10.757   7.159   7.767  0.00  0.00    -0.297 NA
ATOM      9  C   UNL     1       9.369   5.548   6.267  0.00  0.00    +0.005 C 
ATOM     10  C   UNL     1       9.422   7.750   7.488  0.00  0.00    +0.078 C 
ATOM     11  C   UNL     1      10.756   5.825   5.654  0.00  0.00    +0.092 C 
ATOM     12  C   UNL     1       8.635   6.887   6.477  0.00  0.00    +0.025 C 
ATOM     13  C   UNL     1       9.613   4.937   7.658  0.00  0.00    +0.020 C 
ATOM     14  C   UNL     1      11.477   6.890   6.497  0.00  0.00    +0.097 C 
ATOM     15  C   UNL     1      10.545   5.863   8.461  0.00  0.00    +0.085 C 
ENDROOT
BRANCH  11  17
ATOM      1  O   UNL     1      10.787   7.403   3.863  0.00  0.00    -0.275 OA
ATOM      6  N   UNL     1      10.336   5.169   3.389  0.00  0.00    -0.311 N 
ATOM     17  C   UNL     1      10.640   6.236   4.217  0.00  0.00    +0.218 C 
ATOM     33  H   UNL     1      10.281   4.232   3.775  0.00  0.00    +0.149 HD
BRANCH   6  25
ATOM     25  C   UNL     1      10.149   5.304   1.963  0.00  0.00    +0.143 C 
BRANCH  25  26
ATOM     26  C   UNL     1      11.184   4.545   1.186  0.00  0.00    +0.011 A 
ATOM     27  C   UNL     1      10.999   4.267  -0.169  0.00  0.00    +0.125 A 
ATOM     28  C   UNL     1      12.343   4.115   1.834  0.00  0.00    +0.009 A 
ATOM     29  C   UNL     1      11.972   3.560  -0.875  0.00  0.00    +0.046 A 
ATOM     30  C   UNL     1      13.315   3.407   1.128  0.00  0.00    +0.001 A 
ATOM     31  C   UNL     1      13.130   3.129  -0.227  0.00  0.00    +0.004 A 
BRANCH  27   3
ATOM      3  O   UNL     1       9.873   4.679  -0.817  0.00  0.00    -0.495 OA
ATOM     32  C   UNL     1      10.054   5.486  -1.978  0.00  0.00    +0.277 C 
ENDBRANCH  27   3
ENDBRANCH  25  26
ENDBRANCH   6  25
ENDBRANCH  11  17
BRANCH  10  16
ATOM     16  C   UNL     1       9.514   9.210   7.039  0.00  0.00    +0.164 C 
BRANCH  16   5
ATOM      5  N   UNL     1      10.224  10.029   8.007  0.00  0.00    -0.250 N 
ATOM      7  N   UNL     1      11.521  10.298   7.901  0.00  0.00    -0.065 NA
ATOM      8  N   UNL     1      11.855  11.071   8.946  0.00  0.00    -0.132 NA
ATOM     21  C   UNL     1      10.785  11.319   9.749  0.00  0.00    +0.114 A 
ATOM     22  C   UNL     1       9.759  10.647   9.134  0.00  0.00    +0.136 A 
BRANCH  21  18
ATOM     18  C   UNL     1      10.845  12.160  11.007  0.00  0.00    +0.111 C 
ATOM     19  C   UNL     1       9.618  11.985  11.921  0.00  0.00    +0.041 C 
ATOM     20  C   UNL     1      10.831  13.683  10.800  0.00  0.00    +0.041 C 
ATOM     23  C   UNL     1       9.609  13.205  12.844  0.00  0.00    +0.003 C 
ATOM     24  C   UNL     1      10.485  14.256  12.170  0.00  0.00    +0.003 C 
BRANCH  18   2
ATOM      2  O   UNL     1      12.009  11.819  11.771  0.00  0.00    -0.382 OA
ATOM     34  H   UNL     1      12.011  10.853  11.893  0.00  0.00    +0.211 HD
ENDBRANCH  18   2
ENDBRANCH  21  18
ENDBRANCH  16   5
ENDBRANCH  10  16
TORSDOF 8
ENDMDL
MODEL 8
REMARK VINA RESULT:      -6.7     27.506     30.625
REMARK  Name = 11942956
REMARK  9 active torsions:
REMARK  status: ('A' for Active; 'I' for Inactive)
REMARK    1  A    between atoms: O_2  and  C_18
REMARK    2  A    between atoms: O_3  and  C_27
REMARK    3  A    between atoms: O_3  and  C_32
REMARK    4  A    between atoms: N_5  and  C_16
REMARK    5  A    between atoms: N_6  and  C_25
REMARK    6  A    between atoms: C_10  and  C_16
REMARK    7  A    between atoms: C_11  and  C_17
REMARK    8  A    between atoms: C_18  and  C_21
REMARK    9  A    between atoms: C_25  and  C_26
REMARK                            x       y       z     vdW  Elec       q    Type
REMARK                         _______ _______ _______ _____ _____    ______ ____
ROOT
ATOM      4  N   UNL     1      -6.800 -10.277  17.976  0.00  0.00    -0.297 NA
ATOM      9  C   UNL     1      -5.372 -12.449  18.096  0.00  0.00    +0.005 C 
ATOM     10  C   UNL     1      -7.686 -11.471  17.925  0.00  0.00    +0.078 C 
ATOM     11  C   UNL     1      -4.864 -11.508  16.986  0.00  0.00    +0.092 C 
ATOM     12  C   UNL     1      -6.857 -12.771  17.841  0.00  0.00    +0.025 C 
ATOM     13  C   UNL     1      -5.294 -11.661  19.416  0.00  0.00    +0.020 C 
ATOM     14  C   UNL     1      -5.824 -10.313  16.859  0.00  0.00    +0.097 C 
ATOM     15  C   UNL     1      -6.043 -10.326  19.253  0.00  0.00    +0.085 C 
ENDROOT
BRANCH  11  17
ATOM      1  O   UNL     1      -4.374 -13.419  15.643  0.00  0.00    -0.275 OA
ATOM      6  N   UNL     1      -4.957 -11.424  14.595  0.00  0.00    -0.311 N 
ATOM     17  C   UNL     1      -4.707 -12.238  15.687  0.00  0.00    +0.218 C 
ATOM     33  H   UNL     1      -5.272 -10.470  14.739  0.00  0.00    +0.149 HD
BRANCH   6  25
ATOM     25  C   UNL     1      -4.853 -11.882  13.228  0.00  0.00    +0.143 C 
BRANCH  25  26
ATOM     26  C   UNL     1      -3.900 -11.044  12.427  0.00  0.00    +0.011 A 
ATOM     27  C   UNL     1      -2.548 -10.976  12.766  0.00  0.00    +0.125 A 
ATOM     28  C   UNL     1      -4.380 -10.326  11.330  0.00  0.00    +0.009 A 
ATOM     29  C   UNL     1      -1.677 -10.193  12.011  0.00  0.00    +0.046 A 
ATOM     30  C   UNL     1      -3.508  -9.542  10.575  0.00  0.00    +0.001 A 
ATOM     31  C   UNL     1      -2.156  -9.475  10.915  0.00  0.00    +0.004 A 
BRANCH  27   3
ATOM      3  O   UNL     1      -2.063 -11.671  13.835  0.00  0.00    -0.495 OA
ATOM     32  C   UNL     1      -1.452 -12.929  13.564  0.00  0.00    +0.277 C 
ENDBRANCH  27   3
ENDBRANCH  25  26
ENDBRANCH   6  25
ENDBRANCH  11  17
BRANCH  10  16
ATOM     16  C   UNL     1      -8.720 -11.381  16.801  0.00  0.00    +0.164 C 
BRANCH  16   5
ATOM      5  N   UNL     1      -9.590 -10.227  16.958  0.00  0.00    -0.250 N 
ATOM      7  N   UNL     1     -10.268  -9.990  18.077  0.00  0.00    -0.065 NA
ATOM      8  N   UNL     1     -10.964  -8.859  17.889  0.00  0.00    -0.132 NA
ATOM     21  C   UNL     1     -10.753  -8.340  16.649  0.00  0.00    +0.114 A 
ATOM     22  C   UNL     1      -9.877  -9.225  16.074  0.00  0.00    +0.136 A 
BRANCH  21  18
ATOM     18  C   UNL     1     -11.399  -7.068  16.140  0.00  0.00    +0.111 C 
ATOM     19  C   UNL     1     -12.933  -7.155  16.041  0.00  0.00    +0.041 C 
ATOM     20  C   UNL     1     -11.043  -6.661  14.700  0.00  0.00    +0.041 C 
ATOM     23  C   UNL     1     -13.354  -6.028  15.096  0.00  0.00    +0.003 C 
ATOM     24  C   UNL     1     -12.105  -5.637  14.315  0.00  0.00    +0.003 C 
BRANCH  18   2
ATOM      2  O   UNL     1     -11.080  -5.973  17.009  0.00  0.00    -0.382 OA
ATOM     34  H   UNL     1     -10.343  -5.481  16.606  0.00  0.00    +0.211 HD
ENDBRANCH  18   2
ENDBRANCH  21  18
ENDBRANCH  16   5
ENDBRANCH  10  16
TORSDOF 8
ENDMDL
MODEL 9
REMARK VINA RESULT:      -6.6     28.249     30.559
REMARK  Name = 11942956
REMARK  9 active torsions:
REMARK  status: ('A' for Active; 'I' for Inactive)
REMARK    1  A    between atoms: O_2  and  C_18
REMARK    2  A    between atoms: O_3  and  C_27
REMARK    3  A    between atoms: O_3  and  C_32
REMARK    4  A    between atoms: N_5  and  C_16
REMARK    5  A    between atoms: N_6  and  C_25
REMARK    6  A    between atoms: C_10  and  C_16
REMARK    7  A    between atoms: C_11  and  C_17
REMARK    8  A    between atoms: C_18  and  C_21
REMARK    9  A    between atoms: C_25  and  C_26
REMARK                            x       y       z     vdW  Elec       q    Type
REMARK                         _______ _______ _______ _____ _____    ______ ____
ROOT
ATOM      4  N   UNL     1      -5.557 -10.838   9.549  0.00  0.00    -0.297 NA
ATOM      9  C   UNL     1      -4.707  -9.424  11.561  0.00  0.00    +0.005 C 
ATOM     10  C   UNL     1      -6.206  -9.500   9.539  0.00  0.00    +0.078 C 
ATOM     11  C   UNL     1      -5.218 -10.802  12.025  0.00  0.00    +0.092 C 
ATOM     12  C   UNL     1      -5.836  -8.697  10.805  0.00  0.00    +0.025 C 
ATOM     13  C   UNL     1      -3.575  -9.687  10.552  0.00  0.00    +0.020 C 
ATOM     14  C   UNL     1      -5.841 -11.539  10.826  0.00  0.00    +0.097 C 
ATOM     15  C   UNL     1      -4.089 -10.633   9.451  0.00  0.00    +0.085 C 
ENDROOT
BRANCH  11  17
ATOM      1  O   UNL     1      -7.339 -11.086  13.082  0.00  0.00    -0.275 OA
ATOM      6  N   UNL     1      -5.633 -10.014  14.247  0.00  0.00    -0.311 N 
ATOM     17  C   UNL     1      -6.187 -10.667  13.160  0.00  0.00    +0.218 C 
ATOM     33  H   UNL     1      -4.654  -9.747  14.230  0.00  0.00    +0.149 HD
BRANCH   6  25
ATOM     25  C   UNL     1      -6.367  -9.737  15.461  0.00  0.00    +0.143 C 
BRANCH  25  26
ATOM     26  C   UNL     1      -5.710 -10.345  16.665  0.00  0.00    +0.011 A 
ATOM     27  C   UNL     1      -6.378 -10.408  17.889  0.00  0.00    +0.125 A 
ATOM     28  C   UNL     1      -4.414 -10.851  16.552  0.00  0.00    +0.009 A 
ATOM     29  C   UNL     1      -5.752 -10.976  18.997  0.00  0.00    +0.046 A 
ATOM     30  C   UNL     1      -3.788 -11.419  17.661  0.00  0.00    +0.001 A 
ATOM     31  C   UNL     1      -4.457 -11.482  18.885  0.00  0.00    +0.004 A 
BRANCH  27   3
ATOM      3  O   UNL     1      -7.644  -9.917  18.016  0.00  0.00    -0.495 OA
ATOM     32  C   UNL     1      -8.607 -10.768  18.632  0.00  0.00    +0.277 C 
ENDBRANCH  27   3
ENDBRANCH  25  26
ENDBRANCH   6  25
ENDBRANCH  11  17
BRANCH  10  16
ATOM     16  C   UNL     1      -7.720  -9.589   9.344  0.00  0.00    +0.164 C 
BRANCH  16   5
ATOM      5  N   UNL     1      -8.296  -8.302   8.988  0.00  0.00    -0.250 N 
ATOM      7  N   UNL     1      -7.674  -7.434   8.198  0.00  0.00    -0.065 NA
ATOM      8  N   UNL     1      -8.472  -6.363   8.074  0.00  0.00    -0.132 NA
ATOM     21  C   UNL     1      -9.626  -6.513   8.780  0.00  0.00    +0.114 A 
ATOM     22  C   UNL     1      -9.493  -7.753   9.354  0.00  0.00    +0.136 A 
BRANCH  21  18
ATOM     18  C   UNL     1     -10.727  -5.474   8.839  0.00  0.00    +0.111 C 
ATOM     19  C   UNL     1     -10.205  -4.026   8.838  0.00  0.00    +0.041 C 
ATOM     20  C   UNL     1     -11.580  -5.469  10.118  0.00  0.00    +0.041 C 
ATOM     23  C   UNL     1     -11.354  -3.169   9.371  0.00  0.00    +0.003 C 
ATOM     24  C   UNL     1     -12.295  -4.122  10.098  0.00  0.00    +0.003 C 
BRANCH  18   2
ATOM      2  O   UNL     1     -11.602  -5.623   7.713  0.00  0.00    -0.382 OA
ATOM     34  H   UNL     1     -11.089  -5.423   6.911  0.00  0.00    +0.211 HD
ENDBRANCH  18   2
ENDBRANCH  21  18
ENDBRANCH  16   5
ENDBRANCH  10  16
TORSDOF 8
ENDMDL
MODEL 10
REMARK VINA RESULT:      -6.6     27.303     30.654
REMARK  Name = 11942956
REMARK  9 active torsions:
REMARK  status: ('A' for Active; 'I' for Inactive)
REMARK    1  A    between atoms: O_2  and  C_18
REMARK    2  A    between atoms: O_3  and  C_27
REMARK    3  A    between atoms: O_3  and  C_32
REMARK    4  A    between atoms: N_5  and  C_16
REMARK    5  A    between atoms: N_6  and  C_25
REMARK    6  A    between atoms: C_10  and  C_16
REMARK    7  A    between atoms: C_11  and  C_17
REMARK    8  A    between atoms: C_18  and  C_21
REMARK    9  A    between atoms: C_25  and  C_26
REMARK                            x       y       z     vdW  Elec       q    Type
REMARK                         _______ _______ _______ _____ _____    ______ ____
ROOT
ATOM      4  N   UNL     1      -5.149 -11.950  17.273  0.00  0.00    -0.297 NA
ATOM      9  C   UNL     1      -4.354 -12.791  14.942  0.00  0.00    +0.005 C 
ATOM     10  C   UNL     1      -6.097 -11.499  16.221  0.00  0.00    +0.078 C 
ATOM     11  C   UNL     1      -3.224 -12.049  15.682  0.00  0.00    +0.092 C 
ATOM     12  C   UNL     1      -5.570 -11.852  14.812  0.00  0.00    +0.025 C 
ATOM     13  C   UNL     1      -4.777 -13.967  15.840  0.00  0.00    +0.020 C 
ATOM     14  C   UNL     1      -3.782 -11.449  16.984  0.00  0.00    +0.097 C 
ATOM     15  C   UNL     1      -5.111 -13.435  17.246  0.00  0.00    +0.085 C 
ENDROOT
BRANCH  11  17
ATOM      1  O   UNL     1      -2.271  -9.904  15.249  0.00  0.00    -0.275 OA
ATOM      6  N   UNL     1      -2.472 -11.424  13.497  0.00  0.00    -0.311 N 
ATOM     17  C   UNL     1      -2.599 -11.004  14.809  0.00  0.00    +0.218 C 
ATOM     33  H   UNL     1      -2.731 -12.372  13.244  0.00  0.00    +0.149 HD
BRANCH   6  25
ATOM     25  C   UNL     1      -1.920 -10.593  12.451  0.00  0.00    +0.143 C 
BRANCH  25  26
ATOM     26  C   UNL     1      -2.813 -10.541  11.245  0.00  0.00    +0.011 A 
ATOM     27  C   UNL     1      -3.377 -11.706  10.724  0.00  0.00    +0.125 A 
ATOM     28  C   UNL     1      -3.075  -9.310  10.645  0.00  0.00    +0.009 A 
ATOM     29  C   UNL     1      -4.205 -11.639   9.604  0.00  0.00    +0.046 A 
ATOM     30  C   UNL     1      -3.902  -9.243   9.524  0.00  0.00    +0.001 A 
ATOM     31  C   UNL     1      -4.467 -10.408   9.002  0.00  0.00    +0.004 A 
BRANCH  27   3
ATOM      3  O   UNL     1      -3.130 -12.917  11.298  0.00  0.00    -0.495 OA
ATOM     32  C   UNL     1      -4.203 -13.855  11.315  0.00  0.00    +0.277 C 
ENDBRANCH  27   3
ENDBRANCH  25  26
ENDBRANCH   6  25
ENDBRANCH  11  17
BRANCH  10  16
ATOM     16  C   UNL     1      -6.438 -10.013  16.343  0.00  0.00    +0.164 C 
BRANCH  16   5
ATOM      5  N   UNL     1      -7.710  -9.803  17.017  0.00  0.00    -0.250 N 
ATOM      7  N   UNL     1      -8.533  -8.811  16.696  0.00  0.00    -0.065 NA
ATOM      8  N   UNL     1      -9.604  -8.906  17.500  0.00  0.00    -0.132 NA
ATOM     21  C   UNL     1      -9.497  -9.958  18.356  0.00  0.00    +0.114 A 
ATOM     22  C   UNL     1      -8.285 -10.515  18.032  0.00  0.00    +0.136 A 
BRANCH  21  18
ATOM     18  C   UNL     1     -10.545 -10.325  19.386  0.00  0.00    +0.111 C 
ATOM     19  C   UNL     1     -10.948 -11.811  19.350  0.00  0.00    +0.041 C 
ATOM     20  C   UNL     1     -11.918  -9.654  19.217  0.00  0.00    +0.041 C 
ATOM     23  C   UNL     1     -12.293 -11.895  20.073  0.00  0.00    +0.003 C 
ATOM     24  C   UNL     1     -12.861 -10.481  20.084  0.00  0.00    +0.003 C 
BRANCH  18   2
ATOM      2  O   UNL     1     -10.061 -10.036  20.704  0.00  0.00    -0.382 OA
ATOM     34  H   UNL     1     -10.201 -10.829  21.250  0.00  0.00    +0.211 HD
ENDBRANCH  18   2
ENDBRANCH  21  18
ENDBRANCH  16   5
ENDBRANCH  10  16
TORSDOF 8
ENDMDL
