REMARK  Name = 56775457
REMARK  9 active torsions:
REMARK  status: ('A' for Active; 'I' for Inactive)
REMARK    1  A    between atoms: N_4  and  C_6
REMARK    2  A    between atoms: N_4  and  C_11
REMARK    3  A    between atoms: C_6  and  C_9
REMARK    4  A    between atoms: C_9  and  C_10
REMARK    5  A    between atoms: C_11  and  C_15
REMARK    6  A    between atoms: C_12  and  C_14
REMARK    7  A    between atoms: C_12  and  C_16
REMARK    8  A    between atoms: C_12  and  C_17
REMARK    9  A    between atoms: C_12  and  C_18
REMARK                            x       y       z     vdW  Elec       q    Type
REMARK                         _______ _______ _______ _____ _____    ______ ____
ROOT
ATOM      2  O   UNL     1       0.447   4.030  -1.135  0.00  0.00    -0.376 OA
ATOM      6  C   UNL     1       0.118   2.229  -0.037  0.00  0.00    +0.072 C 
ATOM      7  C   UNL     1       1.032   3.446   0.052  0.00  0.00    +0.184 C 
ATOM      8  C   UNL     1      -0.382   2.862  -1.331  0.00  0.00    +0.184 C 
ENDROOT
BRANCH   6   4
ATOM      4  N   UNL     1       0.923   1.061  -0.366  0.00  0.00    -0.302 NA
ATOM     24  H   UNL     1       0.412   0.292  -0.798  0.00  0.00    +0.123 HD
BRANCH   4  11
ATOM     11  C   UNL     1       1.617   0.587   0.828  0.00  0.00    +0.117 C 
BRANCH  11  15
ATOM      1 CL   UNL     1       3.818  -3.813  -0.891  0.00  0.00    -0.084 Cl
ATOM     15  C   UNL     1       2.867  -0.179   0.484  0.00  0.00    -0.032 A 
ATOM     19  C   UNL     1       2.774  -1.488   0.011  0.00  0.00    +0.025 A 
ATOM     20  C   UNL     1       4.117   0.420   0.637  0.00  0.00    +0.005 A 
ATOM     21  C   UNL     1       3.932  -2.198  -0.309  0.00  0.00    +0.041 A 
ATOM     22  C   UNL     1       5.274  -0.289   0.317  0.00  0.00    +0.002 A 
ATOM     23  C   UNL     1       5.182  -1.598  -0.156  0.00  0.00    +0.020 A 
ENDBRANCH  11  15
ENDBRANCH   4  11
ENDBRANCH   6   4
BRANCH   6   9
ATOM      9  C   UNL     1      -0.881   1.966   1.097  0.00  0.00    +0.085 C 
BRANCH   9  10
ATOM      3  O   UNL     1      -3.878   0.507  -0.184  0.00  0.00    -0.359 OA
ATOM      5  N   UNL     1      -3.078   1.601   0.122  0.00  0.00    -0.083 NA
ATOM     10  C   UNL     1      -1.968   1.079   0.653  0.00  0.00    +0.086 A 
ATOM     13  C   UNL     1      -2.011  -0.325   0.707  0.00  0.00    +0.071 A 
ATOM     14  C   UNL     1      -3.233  -0.634   0.169  0.00  0.00    +0.143 A 
BRANCH  14  12
ATOM     12  C   UNL     1      -3.975  -1.954  -0.098  0.00  0.00    +0.023 C 
ATOM     16  C   UNL     1      -5.368  -1.768  -0.742  0.00  0.00    +0.019 C 
ATOM     17  C   UNL     1      -4.184  -2.711   1.231  0.00  0.00    +0.019 C 
ATOM     18  C   UNL     1      -3.143  -2.833  -1.058  0.00  0.00    +0.019 C 
ENDBRANCH  14  12
ENDBRANCH   9  10
ENDBRANCH   6   9
TORSDOF 6
