MODEL 1
REMARK VINA RESULT:      -7.1      0.000      0.000
REMARK  Name = 51137779
REMARK  6 active torsions:
REMARK  status: ('A' for Active; 'I' for Inactive)
REMARK    1  A    between atoms: N_7  and  C_21
REMARK    2  A    between atoms: N_7  and  C_26
REMARK    3  A    between atoms: N_7  and  C_27
REMARK    4  A    between atoms: C_8  and  C_12
REMARK    5  A    between atoms: C_13  and  C_14
REMARK    6  A    between atoms: C_15  and  C_16
REMARK                            x       y       z     vdW  Elec       q    Type
REMARK                         _______ _______ _______ _____ _____    ______ ____
ROOT
ATOM      1  O   UNL     1      18.669   7.307  21.217  0.00  0.00    -0.420 OA
ATOM      4  N   UNL     1      16.919   6.767  19.933  0.00  0.00    -0.112 NA
ATOM      5  N   UNL     1      17.957   5.908  19.623  0.00  0.00    -0.107 NA
ATOM     12  C   UNL     1      17.379   7.565  20.867  0.00  0.00    +0.222 A 
ATOM     15  C   UNL     1      18.958   6.260  20.397  0.00  0.00    +0.248 A 
ENDROOT
BRANCH  12   8
ATOM      2  O   UNL     1      13.078   9.906  18.903  0.00  0.00    -0.270 OA
ATOM      3  N   UNL     1      14.681   9.372  20.496  0.00  0.00    -0.297 N 
ATOM      8  C   UNL     1      16.688   8.707  21.591  0.00  0.00    +0.095 C 
ATOM      9  C   UNL     1      16.910  10.049  20.873  0.00  0.00    +0.033 C 
ATOM     10  C   UNL     1      15.156   8.642  21.673  0.00  0.00    +0.121 C 
ATOM     11  C   UNL     1      15.761  10.126  19.878  0.00  0.00    +0.109 C 
ATOM     13  C   UNL     1      13.413   9.332  19.937  0.00  0.00    +0.248 C 
BRANCH  13  14
ATOM      6  N   UNL     1      11.285   6.399  20.913  0.00  0.00    -0.263 NA
ATOM     14  C   UNL     1      12.392   8.529  20.627  0.00  0.00    +0.055 A 
ATOM     17  C   UNL     1      11.588   9.088  21.614  0.00  0.00    +0.016 A 
ATOM     18  C   UNL     1      12.203   7.192  20.317  0.00  0.00    +0.123 A 
ATOM     22  C   UNL     1      10.632   8.304  22.251  0.00  0.00    +0.020 A 
ATOM     25  C   UNL     1      10.521   6.977  21.867  0.00  0.00    +0.111 A 
ENDBRANCH  13  14
ENDBRANCH  12   8
BRANCH  15  16
ATOM     16  C   UNL     1      20.282   5.722  20.508  0.00  0.00    +0.039 A 
ATOM     19  C   UNL     1      21.386   6.573  20.474  0.00  0.00    +0.015 A 
ATOM     20  C   UNL     1      20.466   4.346  20.651  0.00  0.00    +0.015 A 
ATOM     21  C   UNL     1      22.858   4.674  20.726  0.00  0.00    +0.029 A 
ATOM     23  C   UNL     1      22.674   6.049  20.582  0.00  0.00    +0.024 A 
ATOM     24  C   UNL     1      21.755   3.822  20.759  0.00  0.00    +0.024 A 
BRANCH  21   7
ATOM      7  N   UNL     1      24.161   4.145  20.834  0.00  0.00    -0.336 N 
ATOM     26  C   UNL     1      25.013   4.048  19.665  0.00  0.00    +0.129 C 
ATOM     27  C   UNL     1      24.665   3.687  22.114  0.00  0.00    +0.129 C 
ENDBRANCH  21   7
ENDBRANCH  15  16
TORSDOF 4
ENDMDL
MODEL 2
REMARK VINA RESULT:      -7.0      2.088      2.854
REMARK  Name = 51137779
REMARK  6 active torsions:
REMARK  status: ('A' for Active; 'I' for Inactive)
REMARK    1  A    between atoms: N_7  and  C_21
REMARK    2  A    between atoms: N_7  and  C_26
REMARK    3  A    between atoms: N_7  and  C_27
REMARK    4  A    between atoms: C_8  and  C_12
REMARK    5  A    between atoms: C_13  and  C_14
REMARK    6  A    between atoms: C_15  and  C_16
REMARK                            x       y       z     vdW  Elec       q    Type
REMARK                         _______ _______ _______ _____ _____    ______ ____
ROOT
ATOM      1  O   UNL     1      17.114   7.711  20.124  0.00  0.00    -0.420 OA
ATOM      4  N   UNL     1      15.200   6.870  20.920  0.00  0.00    -0.112 NA
ATOM      5  N   UNL     1      16.241   6.109  21.417  0.00  0.00    -0.107 NA
ATOM     12  C   UNL     1      15.756   7.793  20.171  0.00  0.00    +0.222 A 
ATOM     15  C   UNL     1      17.338   6.635  20.927  0.00  0.00    +0.248 A 
ENDROOT
BRANCH  12   8
ATOM      2  O   UNL     1      10.520   8.420  20.002  0.00  0.00    -0.270 OA
ATOM      3  N   UNL     1      12.751   8.986  19.692  0.00  0.00    -0.297 N 
ATOM      8  C   UNL     1      15.108   8.909  19.371  0.00  0.00    +0.095 C 
ATOM      9  C   UNL     1      14.397   8.369  18.119  0.00  0.00    +0.033 C 
ATOM     10  C   UNL     1      13.981   9.687  20.063  0.00  0.00    +0.121 C 
ATOM     11  C   UNL     1      12.992   8.048  18.606  0.00  0.00    +0.109 C 
ATOM     13  C   UNL     1      11.509   9.085  20.301  0.00  0.00    +0.248 C 
BRANCH  13  14
ATOM      6  N   UNL     1      10.829  10.476  23.720  0.00  0.00    -0.263 NA
ATOM     14  C   UNL     1      11.369  10.050  21.402  0.00  0.00    +0.055 A 
ATOM     17  C   UNL     1      11.629  11.402  21.206  0.00  0.00    +0.016 A 
ATOM     18  C   UNL     1      10.976   9.642  22.667  0.00  0.00    +0.123 A 
ATOM     22  C   UNL     1      11.489  12.292  22.266  0.00  0.00    +0.020 A 
ATOM     25  C   UNL     1      11.090  11.783  23.492  0.00  0.00    +0.111 A 
ENDBRANCH  13  14
ENDBRANCH  12   8
BRANCH  15  16
ATOM     16  C   UNL     1      18.711   6.260  21.104  0.00  0.00    +0.039 A 
ATOM     19  C   UNL     1      19.438   6.761  22.182  0.00  0.00    +0.015 A 
ATOM     20  C   UNL     1      19.319   5.393  20.195  0.00  0.00    +0.015 A 
ATOM     21  C   UNL     1      21.381   5.528  21.446  0.00  0.00    +0.029 A 
ATOM     23  C   UNL     1      20.774   6.396  22.353  0.00  0.00    +0.024 A 
ATOM     24  C   UNL     1      20.655   5.027  20.366  0.00  0.00    +0.024 A 
BRANCH  21   7
ATOM      7  N   UNL     1      22.732   5.160  21.619  0.00  0.00    -0.336 N 
ATOM     26  C   UNL     1      23.395   5.384  22.889  0.00  0.00    +0.129 C 
ATOM     27  C   UNL     1      23.477   4.561  20.531  0.00  0.00    +0.129 C 
ENDBRANCH  21   7
ENDBRANCH  15  16
TORSDOF 4
ENDMDL
MODEL 3
REMARK VINA RESULT:      -6.9      2.729      4.760
REMARK  Name = 51137779
REMARK  6 active torsions:
REMARK  status: ('A' for Active; 'I' for Inactive)
REMARK    1  A    between atoms: N_7  and  C_21
REMARK    2  A    between atoms: N_7  and  C_26
REMARK    3  A    between atoms: N_7  and  C_27
REMARK    4  A    between atoms: C_8  and  C_12
REMARK    5  A    between atoms: C_13  and  C_14
REMARK    6  A    between atoms: C_15  and  C_16
REMARK                            x       y       z     vdW  Elec       q    Type
REMARK                         _______ _______ _______ _____ _____    ______ ____
ROOT
ATOM      1  O   UNL     1      14.559   8.472  19.486  0.00  0.00    -0.420 OA
ATOM      4  N   UNL     1      13.824   7.444  17.639  0.00  0.00    -0.112 NA
ATOM      5  N   UNL     1      15.026   6.866  18.000  0.00  0.00    -0.107 NA
ATOM     12  C   UNL     1      13.590   8.375  18.534  0.00  0.00    +0.222 A 
ATOM     15  C   UNL     1      15.419   7.496  19.082  0.00  0.00    +0.248 A 
ENDROOT
BRANCH  12   8
ATOM      2  O   UNL     1      11.053   9.142  23.096  0.00  0.00    -0.270 OA
ATOM      3  N   UNL     1      11.662   9.557  20.894  0.00  0.00    -0.297 N 
ATOM      8  C   UNL     1      12.419   9.336  18.648  0.00  0.00    +0.095 C 
ATOM      9  C   UNL     1      11.087   8.586  18.822  0.00  0.00    +0.033 C 
ATOM     10  C   UNL     1      12.415  10.274  19.863  0.00  0.00    +0.121 C 
ATOM     11  C   UNL     1      10.957   8.417  20.328  0.00  0.00    +0.109 C 
ATOM     13  C   UNL     1      11.643   9.816  22.256  0.00  0.00    +0.248 C 
BRANCH  13  14
ATOM      6  N   UNL     1      14.490  11.907  23.526  0.00  0.00    -0.263 NA
ATOM     14  C   UNL     1      12.401  10.983  22.734  0.00  0.00    +0.055 A 
ATOM     17  C   UNL     1      11.797  12.230  22.850  0.00  0.00    +0.016 A 
ATOM     18  C   UNL     1      13.738  10.876  23.081  0.00  0.00    +0.123 A 
ATOM     22  C   UNL     1      12.538  13.316  23.304  0.00  0.00    +0.020 A 
ATOM     25  C   UNL     1      13.869  13.103  23.626  0.00  0.00    +0.111 A 
ENDBRANCH  13  14
ENDBRANCH  12   8
BRANCH  15  16
ATOM     16  C   UNL     1      16.591   7.320  19.890  0.00  0.00    +0.039 A 
ATOM     19  C   UNL     1      16.901   8.250  20.881  0.00  0.00    +0.015 A 
ATOM     20  C   UNL     1      17.421   6.218  19.682  0.00  0.00    +0.015 A 
ATOM     21  C   UNL     1      18.870   6.975  21.460  0.00  0.00    +0.029 A 
ATOM     23  C   UNL     1      18.041   8.077  21.666  0.00  0.00    +0.024 A 
ATOM     24  C   UNL     1      18.561   6.045  20.468  0.00  0.00    +0.024 A 
BRANCH  21   7
ATOM      7  N   UNL     1      20.023   6.803  22.254  0.00  0.00    -0.336 N 
ATOM     26  C   UNL     1      20.963   5.739  21.960  0.00  0.00    +0.129 C 
ATOM     27  C   UNL     1      20.281   7.682  23.377  0.00  0.00    +0.129 C 
ENDBRANCH  21   7
ENDBRANCH  15  16
TORSDOF 4
ENDMDL
MODEL 4
REMARK VINA RESULT:      -6.8      2.059      9.700
REMARK  Name = 51137779
REMARK  6 active torsions:
REMARK  status: ('A' for Active; 'I' for Inactive)
REMARK    1  A    between atoms: N_7  and  C_21
REMARK    2  A    between atoms: N_7  and  C_26
REMARK    3  A    between atoms: N_7  and  C_27
REMARK    4  A    between atoms: C_8  and  C_12
REMARK    5  A    between atoms: C_13  and  C_14
REMARK    6  A    between atoms: C_15  and  C_16
REMARK                            x       y       z     vdW  Elec       q    Type
REMARK                         _______ _______ _______ _____ _____    ______ ____
ROOT
ATOM      1  O   UNL     1      18.138   7.256  20.875  0.00  0.00    -0.420 OA
ATOM      4  N   UNL     1      19.168   5.630  19.734  0.00  0.00    -0.112 NA
ATOM      5  N   UNL     1      17.807   5.497  19.533  0.00  0.00    -0.107 NA
ATOM     12  C   UNL     1      19.315   6.668  20.523  0.00  0.00    +0.222 A 
ATOM     15  C   UNL     1      17.245   6.467  20.217  0.00  0.00    +0.248 A 
ENDROOT
BRANCH  12   8
ATOM      2  O   UNL     1      22.199   4.242  24.215  0.00  0.00    -0.270 OA
ATOM      3  N   UNL     1      21.708   5.816  22.580  0.00  0.00    -0.297 N 
ATOM      8  C   UNL     1      20.584   7.286  21.082  0.00  0.00    +0.095 C 
ATOM      9  C   UNL     1      20.389   7.772  22.528  0.00  0.00    +0.033 C 
ATOM     10  C   UNL     1      21.798   6.357  21.222  0.00  0.00    +0.121 C 
ATOM     11  C   UNL     1      20.736   6.555  23.373  0.00  0.00    +0.109 C 
ATOM     13  C   UNL     1      22.361   4.704  23.087  0.00  0.00    +0.248 C 
BRANCH  13  14
ATOM      6  N   UNL     1      25.528   3.898  21.242  0.00  0.00    -0.263 NA
ATOM     14  C   UNL     1      23.313   4.014  22.203  0.00  0.00    +0.055 A 
ATOM     17  C   UNL     1      22.944   2.866  21.510  0.00  0.00    +0.016 A 
ATOM     18  C   UNL     1      24.606   4.484  22.037  0.00  0.00    +0.123 A 
ATOM     22  C   UNL     1      23.865   2.234  20.683  0.00  0.00    +0.020 A 
ATOM     25  C   UNL     1      25.133   2.785  20.584  0.00  0.00    +0.111 A 
ENDBRANCH  13  14
ENDBRANCH  12   8
BRANCH  15  16
ATOM     16  C   UNL     1      15.863   6.817  20.375  0.00  0.00    +0.039 A 
ATOM     19  C   UNL     1      14.988   6.706  19.295  0.00  0.00    +0.015 A 
ATOM     20  C   UNL     1      15.395   7.268  21.609  0.00  0.00    +0.015 A 
ATOM     21  C   UNL     1      13.176   7.497  20.683  0.00  0.00    +0.029 A 
ATOM     23  C   UNL     1      13.644   7.046  19.449  0.00  0.00    +0.024 A 
ATOM     24  C   UNL     1      14.051   7.608  21.763  0.00  0.00    +0.024 A 
BRANCH  21   7
ATOM      7  N   UNL     1      11.817   7.842  20.837  0.00  0.00    -0.336 N 
ATOM     26  C   UNL     1      11.245   8.930  20.068  0.00  0.00    +0.129 C 
ATOM     27  C   UNL     1      10.976   7.118  21.769  0.00  0.00    +0.129 C 
ENDBRANCH  21   7
ENDBRANCH  15  16
TORSDOF 4
ENDMDL
MODEL 5
REMARK VINA RESULT:      -6.7     28.842     31.756
REMARK  Name = 51137779
REMARK  6 active torsions:
REMARK  status: ('A' for Active; 'I' for Inactive)
REMARK    1  A    between atoms: N_7  and  C_21
REMARK    2  A    between atoms: N_7  and  C_26
REMARK    3  A    between atoms: N_7  and  C_27
REMARK    4  A    between atoms: C_8  and  C_12
REMARK    5  A    between atoms: C_13  and  C_14
REMARK    6  A    between atoms: C_15  and  C_16
REMARK                            x       y       z     vdW  Elec       q    Type
REMARK                         _______ _______ _______ _____ _____    ______ ____
ROOT
ATOM      1  O   UNL     1      -7.528  -9.725  18.001  0.00  0.00    -0.420 OA
ATOM      4  N   UNL     1      -7.635 -11.298  19.588  0.00  0.00    -0.112 NA
ATOM      5  N   UNL     1      -8.923 -10.876  19.318  0.00  0.00    -0.107 NA
ATOM     12  C   UNL     1      -6.855 -10.599  18.797  0.00  0.00    +0.222 A 
ATOM     15  C   UNL     1      -8.813  -9.958  18.386  0.00  0.00    +0.248 A 
ENDROOT
BRANCH  12   8
ATOM      2  O   UNL     1      -4.442 -13.952  15.514  0.00  0.00    -0.270 OA
ATOM      3  N   UNL     1      -4.641 -12.134  16.946  0.00  0.00    -0.297 N 
ATOM      8  C   UNL     1      -5.343 -10.633  18.654  0.00  0.00    +0.095 C 
ATOM      9  C   UNL     1      -4.741 -11.896  19.291  0.00  0.00    +0.033 C 
ATOM     10  C   UNL     1      -4.789 -10.705  17.224  0.00  0.00    +0.121 C 
ATOM     11  C   UNL     1      -4.763 -12.919  18.165  0.00  0.00    +0.109 C 
ATOM     13  C   UNL     1      -4.489 -12.739  15.708  0.00  0.00    +0.248 C 
BRANCH  13  14
ATOM      6  N   UNL     1      -5.500 -10.688  12.731  0.00  0.00    -0.263 NA
ATOM     14  C   UNL     1      -4.391 -11.861  14.532  0.00  0.00    +0.055 A 
ATOM     17  C   UNL     1      -3.162 -11.374  14.102  0.00  0.00    +0.016 A 
ATOM     18  C   UNL     1      -5.520 -11.491  13.818  0.00  0.00    +0.123 A 
ATOM     22  C   UNL     1      -3.100 -10.545  12.988  0.00  0.00    +0.020 A 
ATOM     25  C   UNL     1      -4.287 -10.235  12.343  0.00  0.00    +0.111 A 
ENDBRANCH  13  14
ENDBRANCH  12   8
BRANCH  15  16
ATOM     16  C   UNL     1      -9.818  -9.178  17.724  0.00  0.00    +0.039 A 
ATOM     19  C   UNL     1     -11.162  -9.528  17.841  0.00  0.00    +0.015 A 
ATOM     20  C   UNL     1      -9.450  -8.069  16.961  0.00  0.00    +0.015 A 
ATOM     21  C   UNL     1     -11.772  -7.661  16.435  0.00  0.00    +0.029 A 
ATOM     23  C   UNL     1     -12.140  -8.770  17.197  0.00  0.00    +0.024 A 
ATOM     24  C   UNL     1     -10.427  -7.311  16.316  0.00  0.00    +0.024 A 
BRANCH  21   7
ATOM      7  N   UNL     1     -12.761  -6.895  15.783  0.00  0.00    -0.336 N 
ATOM     26  C   UNL     1     -12.383  -5.834  14.871  0.00  0.00    +0.129 C 
ATOM     27  C   UNL     1     -14.167  -7.154  16.021  0.00  0.00    +0.129 C 
ENDBRANCH  21   7
ENDBRANCH  15  16
TORSDOF 4
ENDMDL
MODEL 6
REMARK VINA RESULT:      -6.5     27.353     30.127
REMARK  Name = 51137779
REMARK  6 active torsions:
REMARK  status: ('A' for Active; 'I' for Inactive)
REMARK    1  A    between atoms: N_7  and  C_21
REMARK    2  A    between atoms: N_7  and  C_26
REMARK    3  A    between atoms: N_7  and  C_27
REMARK    4  A    between atoms: C_8  and  C_12
REMARK    5  A    between atoms: C_13  and  C_14
REMARK    6  A    between atoms: C_15  and  C_16
REMARK                            x       y       z     vdW  Elec       q    Type
REMARK                         _______ _______ _______ _____ _____    ______ ____
ROOT
ATOM      1  O   UNL     1      -4.185 -10.306  16.048  0.00  0.00    -0.420 OA
ATOM      4  N   UNL     1      -2.827 -11.478  17.385  0.00  0.00    -0.112 NA
ATOM      5  N   UNL     1      -4.065 -11.403  17.993  0.00  0.00    -0.107 NA
ATOM     12  C   UNL     1      -2.943 -10.824  16.253  0.00  0.00    +0.222 A 
ATOM     15  C   UNL     1      -4.826 -10.711  17.178  0.00  0.00    +0.248 A 
ENDROOT
BRANCH  12   8
ATOM      2  O   UNL     1      -3.422 -12.870  11.413  0.00  0.00    -0.270 OA
ATOM      3  N   UNL     1      -2.563 -11.497  13.077  0.00  0.00    -0.297 N 
ATOM      8  C   UNL     1      -1.907 -10.573  15.170  0.00  0.00    +0.095 C 
ATOM      9  C   UNL     1      -1.076 -11.833  14.878  0.00  0.00    +0.033 C 
ATOM     10  C   UNL     1      -2.443 -10.216  13.777  0.00  0.00    +0.121 C 
ATOM     11  C   UNL     1      -1.872 -12.554  13.799  0.00  0.00    +0.109 C 
ATOM     13  C   UNL     1      -3.290 -11.762  11.926  0.00  0.00    +0.248 C 
BRANCH  13  14
ATOM      6  N   UNL     1      -5.907  -9.195  11.121  0.00  0.00    -0.263 NA
ATOM     14  C   UNL     1      -3.967 -10.629  11.276  0.00  0.00    +0.055 A 
ATOM     17  C   UNL     1      -3.356  -9.928  10.242  0.00  0.00    +0.016 A 
ATOM     18  C   UNL     1      -5.231 -10.226  11.675  0.00  0.00    +0.123 A 
ATOM     22  C   UNL     1      -4.020  -8.860   9.647  0.00  0.00    +0.020 A 
ATOM     25  C   UNL     1      -5.283  -8.537  10.119  0.00  0.00    +0.111 A 
ENDBRANCH  13  14
ENDBRANCH  12   8
BRANCH  15  16
ATOM     16  C   UNL     1      -6.202 -10.323  17.292  0.00  0.00    +0.039 A 
ATOM     19  C   UNL     1      -6.778  -9.504  16.322  0.00  0.00    +0.015 A 
ATOM     20  C   UNL     1      -6.964 -10.766  18.374  0.00  0.00    +0.015 A 
ATOM     21  C   UNL     1      -8.879  -9.570  17.514  0.00  0.00    +0.029 A 
ATOM     23  C   UNL     1      -8.117  -9.127  16.433  0.00  0.00    +0.024 A 
ATOM     24  C   UNL     1      -8.303 -10.389  18.485  0.00  0.00    +0.024 A 
BRANCH  21   7
ATOM      7  N   UNL     1     -10.231  -9.187  17.626  0.00  0.00    -0.336 N 
ATOM     26  C   UNL     1     -10.664  -7.883  17.163  0.00  0.00    +0.129 C 
ATOM     27  C   UNL     1     -11.205 -10.087  18.210  0.00  0.00    +0.129 C 
ENDBRANCH  21   7
ENDBRANCH  15  16
TORSDOF 4
ENDMDL
MODEL 7
REMARK VINA RESULT:      -6.3     27.866     30.335
REMARK  Name = 51137779
REMARK  6 active torsions:
REMARK  status: ('A' for Active; 'I' for Inactive)
REMARK    1  A    between atoms: N_7  and  C_21
REMARK    2  A    between atoms: N_7  and  C_26
REMARK    3  A    between atoms: N_7  and  C_27
REMARK    4  A    between atoms: C_8  and  C_12
REMARK    5  A    between atoms: C_13  and  C_14
REMARK    6  A    between atoms: C_15  and  C_16
REMARK                            x       y       z     vdW  Elec       q    Type
REMARK                         _______ _______ _______ _____ _____    ______ ____
ROOT
ATOM      1  O   UNL     1      -4.492 -11.149  10.949  0.00  0.00    -0.420 OA
ATOM      4  N   UNL     1      -2.421 -10.464  11.442  0.00  0.00    -0.112 NA
ATOM      5  N   UNL     1      -2.919  -9.639  10.451  0.00  0.00    -0.107 NA
ATOM     12  C   UNL     1      -3.372 -11.329  11.702  0.00  0.00    +0.222 A 
ATOM     15  C   UNL     1      -4.129 -10.076  10.194  0.00  0.00    +0.248 A 
ENDROOT
BRANCH  12   8
ATOM      2  O   UNL     1      -1.812 -10.694  16.702  0.00  0.00    -0.270 OA
ATOM      3  N   UNL     1      -2.803 -11.759  14.891  0.00  0.00    -0.297 N 
ATOM      8  C   UNL     1      -3.393 -12.474  12.699  0.00  0.00    +0.095 C 
ATOM      9  C   UNL     1      -1.973 -12.957  13.036  0.00  0.00    +0.033 C 
ATOM     10  C   UNL     1      -3.960 -12.163  14.091  0.00  0.00    +0.121 C 
ATOM     11  C   UNL     1      -1.558 -12.083  14.211  0.00  0.00    +0.109 C 
ATOM     13  C   UNL     1      -2.812 -11.079  16.099  0.00  0.00    +0.248 C 
BRANCH  13  14
ATOM      6  N   UNL     1      -6.210  -9.569  16.608  0.00  0.00    -0.263 NA
ATOM     14  C   UNL     1      -4.121 -10.782  16.701  0.00  0.00    +0.055 A 
ATOM     17  C   UNL     1      -4.521 -11.396  17.883  0.00  0.00    +0.016 A 
ATOM     18  C   UNL     1      -4.995  -9.884  16.108  0.00  0.00    +0.123 A 
ATOM     22  C   UNL     1      -5.765 -11.097  18.428  0.00  0.00    +0.020 A 
ATOM     25  C   UNL     1      -6.565 -10.184  17.757  0.00  0.00    +0.111 A 
ENDBRANCH  13  14
ENDBRANCH  12   8
BRANCH  15  16
ATOM     16  C   UNL     1      -5.111  -9.606   9.260  0.00  0.00    +0.039 A 
ATOM     19  C   UNL     1      -6.024  -8.624   9.642  0.00  0.00    +0.015 A 
ATOM     20  C   UNL     1      -5.152 -10.132   7.968  0.00  0.00    +0.015 A 
ATOM     21  C   UNL     1      -7.018  -8.692   7.441  0.00  0.00    +0.029 A 
ATOM     23  C   UNL     1      -6.978  -8.167   8.733  0.00  0.00    +0.024 A 
ATOM     24  C   UNL     1      -6.106  -9.675   7.059  0.00  0.00    +0.024 A 
BRANCH  21   7
ATOM      7  N   UNL     1      -7.984  -8.230   6.523  0.00  0.00    -0.336 N 
ATOM     26  C   UNL     1      -8.669  -6.973   6.751  0.00  0.00    +0.129 C 
ATOM     27  C   UNL     1      -8.311  -9.008   5.345  0.00  0.00    +0.129 C 
ENDBRANCH  21   7
ENDBRANCH  15  16
TORSDOF 4
ENDMDL
MODEL 8
REMARK VINA RESULT:      -6.3     28.979     31.391
REMARK  Name = 51137779
REMARK  6 active torsions:
REMARK  status: ('A' for Active; 'I' for Inactive)
REMARK    1  A    between atoms: N_7  and  C_21
REMARK    2  A    between atoms: N_7  and  C_26
REMARK    3  A    between atoms: N_7  and  C_27
REMARK    4  A    between atoms: C_8  and  C_12
REMARK    5  A    between atoms: C_13  and  C_14
REMARK    6  A    between atoms: C_15  and  C_16
REMARK                            x       y       z     vdW  Elec       q    Type
REMARK                         _______ _______ _______ _____ _____    ______ ____
ROOT
ATOM      1  O   UNL     1      -6.888  -9.467  16.464  0.00  0.00    -0.420 OA
ATOM      4  N   UNL     1      -6.696 -10.756  18.282  0.00  0.00    -0.112 NA
ATOM      5  N   UNL     1      -7.989 -10.269  18.238  0.00  0.00    -0.107 NA
ATOM     12  C   UNL     1      -6.091 -10.263  17.228  0.00  0.00    +0.222 A 
ATOM     15  C   UNL     1      -8.056  -9.522  17.161  0.00  0.00    +0.248 A 
ENDROOT
BRANCH  12   8
ATOM      2  O   UNL     1      -4.927 -13.055  12.905  0.00  0.00    -0.270 OA
ATOM      3  N   UNL     1      -4.549 -11.602  14.676  0.00  0.00    -0.297 N 
ATOM      8  C   UNL     1      -4.659 -10.453  16.757  0.00  0.00    +0.095 C 
ATOM      9  C   UNL     1      -4.174 -11.893  16.987  0.00  0.00    +0.033 C 
ATOM     10  C   UNL     1      -4.398 -10.266  15.256  0.00  0.00    +0.121 C 
ATOM     11  C   UNL     1      -4.575 -12.622  15.713  0.00  0.00    +0.109 C 
ATOM     13  C   UNL     1      -4.732 -11.923  13.340  0.00  0.00    +0.248 C 
BRANCH  13  14
ATOM      6  N   UNL     1      -5.853  -8.983  11.294  0.00  0.00    -0.263 NA
ATOM     14  C   UNL     1      -4.704 -10.819  12.367  0.00  0.00    +0.055 A 
ATOM     17  C   UNL     1      -3.563 -10.553  11.619  0.00  0.00    +0.016 A 
ATOM     18  C   UNL     1      -5.813 -10.011  12.169  0.00  0.00    +0.123 A 
ATOM     22  C   UNL     1      -3.566  -9.502  10.708  0.00  0.00    +0.020 A 
ATOM     25  C   UNL     1      -4.726  -8.754  10.584  0.00  0.00    +0.111 A 
ENDBRANCH  13  14
ENDBRANCH  12   8
BRANCH  15  16
ATOM     16  C   UNL     1      -9.149  -8.769  16.616  0.00  0.00    +0.039 A 
ATOM     19  C   UNL     1      -9.536  -8.963  15.291  0.00  0.00    +0.015 A 
ATOM     20  C   UNL     1      -9.823  -7.842  17.412  0.00  0.00    +0.015 A 
ATOM     21  C   UNL     1     -11.273  -7.305  15.557  0.00  0.00    +0.029 A 
ATOM     23  C   UNL     1     -10.599  -8.231  14.761  0.00  0.00    +0.024 A 
ATOM     24  C   UNL     1     -10.885  -7.110  16.882  0.00  0.00    +0.024 A 
BRANCH  21   7
ATOM      7  N   UNL     1     -12.347  -6.565  15.020  0.00  0.00    -0.336 N 
ATOM     26  C   UNL     1     -12.118  -5.614  13.949  0.00  0.00    +0.129 C 
ATOM     27  C   UNL     1     -13.690  -6.738  15.534  0.00  0.00    +0.129 C 
ENDBRANCH  21   7
ENDBRANCH  15  16
TORSDOF 4
ENDMDL
MODEL 9
REMARK VINA RESULT:      -6.2     27.771     32.422
REMARK  Name = 51137779
REMARK  6 active torsions:
REMARK  status: ('A' for Active; 'I' for Inactive)
REMARK    1  A    between atoms: N_7  and  C_21
REMARK    2  A    between atoms: N_7  and  C_26
REMARK    3  A    between atoms: N_7  and  C_27
REMARK    4  A    between atoms: C_8  and  C_12
REMARK    5  A    between atoms: C_13  and  C_14
REMARK    6  A    between atoms: C_15  and  C_16
REMARK                            x       y       z     vdW  Elec       q    Type
REMARK                         _______ _______ _______ _____ _____    ______ ____
ROOT
ATOM      1  O   UNL     1      -8.383 -10.265  18.095  0.00  0.00    -0.420 OA
ATOM      4  N   UNL     1      -8.774 -11.213  20.084  0.00  0.00    -0.112 NA
ATOM      5  N   UNL     1      -7.460 -11.470  19.739  0.00  0.00    -0.107 NA
ATOM     12  C   UNL     1      -9.273 -10.508  19.096  0.00  0.00    +0.222 A 
ATOM     15  C   UNL     1      -7.276 -10.899  18.572  0.00  0.00    +0.248 A 
ENDROOT
BRANCH  12   8
ATOM      2  O   UNL     1     -13.538 -13.612  18.980  0.00  0.00    -0.270 OA
ATOM      3  N   UNL     1     -12.345 -11.624  19.112  0.00  0.00    -0.297 N 
ATOM      8  C   UNL     1     -10.672  -9.942  18.922  0.00  0.00    +0.095 C 
ATOM      9  C   UNL     1     -11.243 -10.262  17.531  0.00  0.00    +0.033 C 
ATOM     10  C   UNL     1     -11.760 -10.502  19.849  0.00  0.00    +0.121 C 
ATOM     11  C   UNL     1     -11.928 -11.609  17.718  0.00  0.00    +0.109 C 
ATOM     13  C   UNL     1     -13.128 -12.648  19.623  0.00  0.00    +0.248 C 
BRANCH  13  14
ATOM      6  N   UNL     1     -12.980 -13.190  23.334  0.00  0.00    -0.263 NA
ATOM     14  C   UNL     1     -13.485 -12.583  21.048  0.00  0.00    +0.055 A 
ATOM     17  C   UNL     1     -14.611 -11.887  21.474  0.00  0.00    +0.016 A 
ATOM     18  C   UNL     1     -12.709 -13.211  22.010  0.00  0.00    +0.123 A 
ATOM     22  C   UNL     1     -14.922 -11.841  22.828  0.00  0.00    +0.020 A 
ATOM     25  C   UNL     1     -14.083 -12.504  23.710  0.00  0.00    +0.111 A 
ENDBRANCH  13  14
ENDBRANCH  12   8
BRANCH  15  16
ATOM     16  C   UNL     1      -6.111 -10.839  17.737  0.00  0.00    +0.039 A 
ATOM     19  C   UNL     1      -4.867 -11.207  18.249  0.00  0.00    +0.015 A 
ATOM     20  C   UNL     1      -6.222 -10.411  16.414  0.00  0.00    +0.015 A 
ATOM     21  C   UNL     1      -3.846 -10.722  16.113  0.00  0.00    +0.029 A 
ATOM     23  C   UNL     1      -3.734 -11.149  17.437  0.00  0.00    +0.024 A 
ATOM     24  C   UNL     1      -5.089 -10.353  15.602  0.00  0.00    +0.024 A 
BRANCH  21   7
ATOM      7  N   UNL     1      -2.700 -10.663  15.294  0.00  0.00    -0.336 N 
ATOM     26  C   UNL     1      -1.375 -10.724  15.881  0.00  0.00    +0.129 C 
ATOM     27  C   UNL     1      -2.829 -10.533  13.856  0.00  0.00    +0.129 C 
ENDBRANCH  21   7
ENDBRANCH  15  16
TORSDOF 4
ENDMDL
MODEL 10
REMARK VINA RESULT:      -6.1     27.864     30.229
REMARK  Name = 51137779
REMARK  6 active torsions:
REMARK  status: ('A' for Active; 'I' for Inactive)
REMARK    1  A    between atoms: N_7  and  C_21
REMARK    2  A    between atoms: N_7  and  C_26
REMARK    3  A    between atoms: N_7  and  C_27
REMARK    4  A    between atoms: C_8  and  C_12
REMARK    5  A    between atoms: C_13  and  C_14
REMARK    6  A    between atoms: C_15  and  C_16
REMARK                            x       y       z     vdW  Elec       q    Type
REMARK                         _______ _______ _______ _____ _____    ______ ____
ROOT
ATOM      1  O   UNL     1      -3.310 -11.969  15.218  0.00  0.00    -0.420 OA
ATOM      4  N   UNL     1      -1.352 -10.999  15.701  0.00  0.00    -0.112 NA
ATOM      5  N   UNL     1      -2.185 -10.846  16.793  0.00  0.00    -0.107 NA
ATOM     12  C   UNL     1      -2.050 -11.659  14.807  0.00  0.00    +0.222 A 
ATOM     15  C   UNL     1      -3.316 -11.427  16.467  0.00  0.00    +0.248 A 
ENDROOT
BRANCH  12   8
ATOM      2  O   UNL     1      -5.649 -12.926  11.162  0.00  0.00    -0.270 OA
ATOM      3  N   UNL     1      -3.545 -12.408  11.998  0.00  0.00    -0.297 N 
ATOM      8  C   UNL     1      -1.653 -12.112  13.412  0.00  0.00    +0.095 C 
ATOM      9  C   UNL     1      -1.917 -13.613  13.208  0.00  0.00    +0.033 C 
ATOM     10  C   UNL     1      -2.429 -11.492  12.242  0.00  0.00    +0.121 C 
ATOM     11  C   UNL     1      -3.351 -13.667  12.701  0.00  0.00    +0.109 C 
ATOM     13  C   UNL     1      -4.703 -12.151  11.280  0.00  0.00    +0.248 C 
BRANCH  13  14
ATOM      6  N   UNL     1      -5.492  -8.524  10.723  0.00  0.00    -0.263 NA
ATOM     14  C   UNL     1      -4.814 -10.842  10.617  0.00  0.00    +0.055 A 
ATOM     17  C   UNL     1      -4.368 -10.660   9.312  0.00  0.00    +0.016 A 
ATOM     18  C   UNL     1      -5.362  -9.752  11.273  0.00  0.00    +0.123 A 
ATOM     22  C   UNL     1      -4.484  -9.411   8.713  0.00  0.00    +0.020 A 
ATOM     25  C   UNL     1      -5.048  -8.385   9.454  0.00  0.00    +0.111 A 
ENDBRANCH  13  14
ENDBRANCH  12   8
BRANCH  15  16
ATOM     16  C   UNL     1      -4.535 -11.577  17.210  0.00  0.00    +0.039 A 
ATOM     19  C   UNL     1      -4.548 -11.337  18.583  0.00  0.00    +0.015 A 
ATOM     20  C   UNL     1      -5.706 -11.962  16.557  0.00  0.00    +0.015 A 
ATOM     21  C   UNL     1      -6.904 -11.867  18.652  0.00  0.00    +0.029 A 
ATOM     23  C   UNL     1      -5.733 -11.483  19.305  0.00  0.00    +0.024 A 
ATOM     24  C   UNL     1      -6.891 -12.108  17.279  0.00  0.00    +0.024 A 
BRANCH  21   7
ATOM      7  N   UNL     1      -8.101 -12.015  19.383  0.00  0.00    -0.336 N 
ATOM     26  C   UNL     1      -9.057 -10.927  19.452  0.00  0.00    +0.129 C 
ATOM     27  C   UNL     1      -8.388 -13.252  20.081  0.00  0.00    +0.129 C 
ENDBRANCH  21   7
ENDBRANCH  15  16
TORSDOF 4
ENDMDL
