MODEL 1
REMARK VINA RESULT:      -7.1      0.000      0.000
REMARK  Name = 25389414
REMARK  5 active torsions:
REMARK  status: ('A' for Active; 'I' for Inactive)
REMARK    1  A    between atoms: N_5  and  C_14
REMARK    2  A    between atoms: N_7  and  C_21
REMARK    3  A    between atoms: C_9  and  C_14
REMARK    4  A    between atoms: C_11  and  C_21
REMARK    5  A    between atoms: C_28  and  C_29
REMARK                            x       y       z     vdW  Elec       q    Type
REMARK                         _______ _______ _______ _____ _____    ______ ____
ROOT
ATOM      4  N   UNL     1      10.646  10.610   5.099  0.00  0.00    -0.298 NA
ATOM      8  C   UNL     1      12.569   8.874   4.871  0.00  0.00    -0.003 C 
ATOM      9  C   UNL     1      11.347   8.459   4.022  0.00  0.00    +0.020 C 
ATOM     10  C   UNL     1      12.138   9.034   6.341  0.00  0.00    +0.024 C 
ATOM     11  C   UNL     1      11.101  10.174   6.448  0.00  0.00    +0.074 C 
ATOM     12  C   UNL     1      10.191   9.442   4.308  0.00  0.00    +0.089 C 
ATOM     13  C   UNL     1      13.010  10.264   4.371  0.00  0.00    +0.019 C 
ATOM     15  C   UNL     1      11.803  11.219   4.401  0.00  0.00    +0.085 C 
ENDROOT
BRANCH   9  14
ATOM     14  C   UNL     1      10.926   7.020   4.245  0.00  0.00    +0.089 C 
BRANCH  14   5
ATOM      1  O   UNL     1      14.162   6.318  -0.942  0.00  0.00    -0.268 OA
ATOM      5  N   UNL     1      11.105   6.218   3.038  0.00  0.00    -0.301 NA
ATOM      6  N   UNL     1      12.724   5.163   0.499  0.00  0.00    -0.312 N 
ATOM     16  C   UNL     1      10.234   5.712   0.742  0.00  0.00    +0.024 C 
ATOM     17  C   UNL     1      11.216   3.912   2.081  0.00  0.00    +0.050 C 
ATOM     18  C   UNL     1      10.115   6.577   2.015  0.00  0.00    +0.089 C 
ATOM     19  C   UNL     1      11.059   4.780   3.350  0.00  0.00    +0.094 C 
ATOM     20  C   UNL     1      10.094   4.238   1.098  0.00  0.00    +0.017 C 
ATOM     22  C   UNL     1      11.566   5.922   0.009  0.00  0.00    +0.130 C 
ATOM     23  C   UNL     1      12.574   4.142   1.444  0.00  0.00    +0.026 A 
ATOM     24  C   UNL     1      13.629   3.387   1.796  0.00  0.00    +0.022 A 
ATOM     25  C   UNL     1      13.967   5.446  -0.096  0.00  0.00    +0.251 A 
ATOM     26  C   UNL     1      14.925   3.626   1.228  0.00  0.00    +0.007 A 
ATOM     27  C   UNL     1      15.116   4.602   0.337  0.00  0.00    +0.070 A 
ENDBRANCH  14   5
ENDBRANCH   9  14
BRANCH  11  21
ATOM     21  C   UNL     1       9.934   9.797   7.363  0.00  0.00    +0.123 C 
BRANCH  21   7
ATOM      2  O   UNL     1       7.958   7.745   7.001  0.00  0.00    -0.267 OA
ATOM      7  N   UNL     1      10.034   8.431   7.779  0.00  0.00    -0.307 N 
ATOM     28  C   UNL     1       9.022   7.497   7.563  0.00  0.00    +0.279 C 
ATOM     33  H   UNL     1      10.879   8.137   8.261  0.00  0.00    +0.149 HD
BRANCH  28  29
ATOM      3  O   UNL     1       8.909   5.856   9.362  0.00  0.00    -0.458 OA
ATOM     29  C   UNL     1       9.268   6.127   8.079  0.00  0.00    +0.189 A 
ATOM     30  C   UNL     1       9.817   5.014   7.486  0.00  0.00    +0.054 A 
ATOM     31  C   UNL     1       9.794   3.994   8.467  0.00  0.00    +0.042 A 
ATOM     32  C   UNL     1       9.232   4.556   9.590  0.00  0.00    +0.196 A 
ENDBRANCH  28  29
ENDBRANCH  21   7
ENDBRANCH  11  21
TORSDOF 5
ENDMDL
MODEL 2
REMARK VINA RESULT:      -6.9     15.305     18.906
REMARK  Name = 25389414
REMARK  5 active torsions:
REMARK  status: ('A' for Active; 'I' for Inactive)
REMARK    1  A    between atoms: N_5  and  C_14
REMARK    2  A    between atoms: N_7  and  C_21
REMARK    3  A    between atoms: C_9  and  C_14
REMARK    4  A    between atoms: C_11  and  C_21
REMARK    5  A    between atoms: C_28  and  C_29
REMARK                            x       y       z     vdW  Elec       q    Type
REMARK                         _______ _______ _______ _____ _____    ______ ____
ROOT
ATOM      4  N   UNL     1      10.670  12.893  23.083  0.00  0.00    -0.298 NA
ATOM      8  C   UNL     1      13.012  12.725  21.962  0.00  0.00    -0.003 C 
ATOM      9  C   UNL     1      12.254  11.382  21.862  0.00  0.00    +0.020 C 
ATOM     10  C   UNL     1      13.134  13.132  23.442  0.00  0.00    +0.024 C 
ATOM     11  C   UNL     1      11.722  13.362  24.027  0.00  0.00    +0.074 C 
ATOM     12  C   UNL     1      10.940  11.496  22.665  0.00  0.00    +0.089 C 
ATOM     13  C   UNL     1      12.136  13.786  21.268  0.00  0.00    +0.019 C 
ATOM     15  C   UNL     1      10.723  13.754  21.878  0.00  0.00    +0.085 C 
ENDROOT
BRANCH   9  14
ATOM     14  C   UNL     1      13.081  10.195  22.308  0.00  0.00    +0.089 C 
BRANCH  14   5
ATOM      1  O   UNL     1      10.992   7.674  17.098  0.00  0.00    -0.268 OA
ATOM      5  N   UNL     1      13.396   9.310  21.189  0.00  0.00    -0.301 NA
ATOM      6  N   UNL     1      12.975   8.117  18.260  0.00  0.00    -0.312 N 
ATOM     16  C   UNL     1      13.628   6.931  20.434  0.00  0.00    +0.024 C 
ATOM     17  C   UNL     1      15.106   8.642  19.494  0.00  0.00    +0.050 C 
ATOM     18  C   UNL     1      13.251   7.901  21.574  0.00  0.00    +0.089 C 
ATOM     19  C   UNL     1      14.741   9.588  20.661  0.00  0.00    +0.094 C 
ATOM     20  C   UNL     1      15.056   7.194  19.976  0.00  0.00    +0.017 C 
ATOM     22  C   UNL     1      12.689   7.048  19.226  0.00  0.00    +0.130 C 
ATOM     23  C   UNL     1      14.163   8.853  18.324  0.00  0.00    +0.026 A 
ATOM     24  C   UNL     1      14.454   9.750  17.366  0.00  0.00    +0.022 A 
ATOM     25  C   UNL     1      12.046   8.298  17.220  0.00  0.00    +0.251 A 
ATOM     26  C   UNL     1      13.547   9.984  16.279  0.00  0.00    +0.007 A 
ATOM     27  C   UNL     1      12.394   9.318  16.190  0.00  0.00    +0.070 A 
ENDBRANCH  14   5
ENDBRANCH   9  14
BRANCH  11  21
ATOM     21  C   UNL     1      11.576  12.740  25.418  0.00  0.00    +0.123 C 
BRANCH  21   7
ATOM      2  O   UNL     1      13.251  14.301  27.152  0.00  0.00    -0.267 OA
ATOM      7  N   UNL     1      12.851  12.360  25.943  0.00  0.00    -0.307 N 
ATOM     28  C   UNL     1      13.602  13.183  26.782  0.00  0.00    +0.279 C 
ATOM     33  H   UNL     1      13.226  11.452  25.683  0.00  0.00    +0.149 HD
BRANCH  28  29
ATOM      3  O   UNL     1      14.991  11.342  27.571  0.00  0.00    -0.458 OA
ATOM     29  C   UNL     1      14.918  12.652  27.220  0.00  0.00    +0.189 A 
ATOM     30  C   UNL     1      16.148  13.256  27.347  0.00  0.00    +0.054 A 
ATOM     31  C   UNL     1      17.033  12.251  27.805  0.00  0.00    +0.042 A 
ATOM     32  C   UNL     1      16.281  11.105  27.926  0.00  0.00    +0.196 A 
ENDBRANCH  28  29
ENDBRANCH  21   7
ENDBRANCH  11  21
TORSDOF 5
ENDMDL
MODEL 3
REMARK VINA RESULT:      -6.8      2.413      4.371
REMARK  Name = 25389414
REMARK  5 active torsions:
REMARK  status: ('A' for Active; 'I' for Inactive)
REMARK    1  A    between atoms: N_5  and  C_14
REMARK    2  A    between atoms: N_7  and  C_21
REMARK    3  A    between atoms: C_9  and  C_14
REMARK    4  A    between atoms: C_11  and  C_21
REMARK    5  A    between atoms: C_28  and  C_29
REMARK                            x       y       z     vdW  Elec       q    Type
REMARK                         _______ _______ _______ _____ _____    ______ ____
ROOT
ATOM      4  N   UNL     1      10.331   7.129   6.617  0.00  0.00    -0.298 NA
ATOM      8  C   UNL     1       9.129   5.416   5.071  0.00  0.00    -0.003 C 
ATOM      9  C   UNL     1      10.231   6.177   4.300  0.00  0.00    +0.020 C 
ATOM     10  C   UNL     1       8.129   6.427   5.661  0.00  0.00    +0.024 C 
ATOM     11  C   UNL     1       8.857   7.330   6.682  0.00  0.00    +0.074 C 
ATOM     12  C   UNL     1      10.808   7.274   5.221  0.00  0.00    +0.089 C 
ATOM     13  C   UNL     1       9.818   4.711   6.256  0.00  0.00    +0.019 C 
ATOM     15  C   UNL     1      10.623   5.746   7.063  0.00  0.00    +0.085 C 
ENDROOT
BRANCH   9  14
ATOM     14  C   UNL     1       9.752   6.748   2.981  0.00  0.00    +0.089 C 
BRANCH  14   5
ATOM      1  O   UNL     1      15.111   6.607  -0.040  0.00  0.00    -0.268 OA
ATOM      5  N   UNL     1      10.482   6.176   1.853  0.00  0.00    -0.301 NA
ATOM      6  N   UNL     1      13.116   5.411   0.223  0.00  0.00    -0.312 N 
ATOM     16  C   UNL     1      10.850   6.250  -0.625  0.00  0.00    +0.024 C 
ATOM     17  C   UNL     1      10.988   4.105   0.549  0.00  0.00    +0.050 C 
ATOM     18  C   UNL     1      10.140   6.861   0.601  0.00  0.00    +0.089 C 
ATOM     19  C   UNL     1      10.247   4.726   1.755  0.00  0.00    +0.094 C 
ATOM     20  C   UNL     1      10.511   4.770  -0.740  0.00  0.00    +0.017 C 
ATOM     22  C   UNL     1      12.375   6.407  -0.563  0.00  0.00    +0.130 C 
ATOM     23  C   UNL     1      12.489   4.259   0.710  0.00  0.00    +0.026 A 
ATOM     24  C   UNL     1      13.210   3.309   1.331  0.00  0.00    +0.022 A 
ATOM     25  C   UNL     1      14.498   5.625   0.378  0.00  0.00    +0.251 A 
ATOM     26  C   UNL     1      14.623   3.468   1.524  0.00  0.00    +0.007 A 
ATOM     27  C   UNL     1      15.257   4.560   1.091  0.00  0.00    +0.070 A 
ENDBRANCH  14   5
ENDBRANCH   9  14
BRANCH  11  21
ATOM     21  C   UNL     1       8.462   8.800   6.523  0.00  0.00    +0.123 C 
BRANCH  21   7
ATOM      2  O   UNL     1       9.019  10.167   4.060  0.00  0.00    -0.267 OA
ATOM      7  N   UNL     1       7.567   8.971   5.419  0.00  0.00    -0.307 N 
ATOM     28  C   UNL     1       7.921   9.652   4.256  0.00  0.00    +0.279 C 
ATOM     33  H   UNL     1       6.631   8.583   5.496  0.00  0.00    +0.149 HD
BRANCH  28  29
ATOM      3  O   UNL     1       5.602  10.046   3.616  0.00  0.00    -0.458 OA
ATOM     29  C   UNL     1       6.869   9.766   3.213  0.00  0.00    +0.189 A 
ATOM     30  C   UNL     1       6.924   9.638   1.844  0.00  0.00    +0.054 A 
ATOM     31  C   UNL     1       5.606   9.854   1.377  0.00  0.00    +0.042 A 
ATOM     32  C   UNL     1       4.839  10.098   2.493  0.00  0.00    +0.196 A 
ENDBRANCH  28  29
ENDBRANCH  21   7
ENDBRANCH  11  21
TORSDOF 5
ENDMDL
MODEL 4
REMARK VINA RESULT:      -6.8     14.206     17.641
REMARK  Name = 25389414
REMARK  5 active torsions:
REMARK  status: ('A' for Active; 'I' for Inactive)
REMARK    1  A    between atoms: N_5  and  C_14
REMARK    2  A    between atoms: N_7  and  C_21
REMARK    3  A    between atoms: C_9  and  C_14
REMARK    4  A    between atoms: C_11  and  C_21
REMARK    5  A    between atoms: C_28  and  C_29
REMARK                            x       y       z     vdW  Elec       q    Type
REMARK                         _______ _______ _______ _____ _____    ______ ____
ROOT
ATOM      4  N   UNL     1      15.313  13.214  21.554  0.00  0.00    -0.298 NA
ATOM      8  C   UNL     1      13.745  11.547  20.317  0.00  0.00    -0.003 C 
ATOM      9  C   UNL     1      13.154  11.947  21.687  0.00  0.00    +0.020 C 
ATOM     10  C   UNL     1      15.145  10.941  20.523  0.00  0.00    +0.024 C 
ATOM     11  C   UNL     1      16.081  12.012  21.127  0.00  0.00    +0.074 C 
ATOM     12  C   UNL     1      14.187  12.817  22.435  0.00  0.00    +0.089 C 
ATOM     13  C   UNL     1      13.925  12.847  19.510  0.00  0.00    +0.019 C 
ATOM     15  C   UNL     1      14.747  13.849  20.341  0.00  0.00    +0.085 C 
ENDROOT
BRANCH   9  14
ATOM     14  C   UNL     1      12.717  10.759  22.519  0.00  0.00    +0.089 C 
BRANCH  14   5
ATOM      1  O   UNL     1      12.134   8.683  16.755  0.00  0.00    -0.268 OA
ATOM      5  N   UNL     1      12.425   9.598  21.683  0.00  0.00    -0.301 NA
ATOM      6  N   UNL     1      12.438   7.942  18.955  0.00  0.00    -0.312 N 
ATOM     16  C   UNL     1      10.629   8.111  20.760  0.00  0.00    +0.024 C 
ATOM     17  C   UNL     1      12.814   7.156  21.318  0.00  0.00    +0.050 C 
ATOM     18  C   UNL     1      10.978   9.364  21.592  0.00  0.00    +0.089 C 
ATOM     19  C   UNL     1      13.133   8.404  22.172  0.00  0.00    +0.094 C 
ATOM     20  C   UNL     1      11.312   6.886  21.352  0.00  0.00    +0.017 C 
ATOM     22  C   UNL     1      11.040   8.248  19.288  0.00  0.00    +0.130 C 
ATOM     23  C   UNL     1      13.294   7.352  19.891  0.00  0.00    +0.026 A 
ATOM     24  C   UNL     1      14.535   6.980  19.532  0.00  0.00    +0.022 A 
ATOM     25  C   UNL     1      12.842   8.182  17.629  0.00  0.00    +0.251 A 
ATOM     26  C   UNL     1      15.009   7.200  18.196  0.00  0.00    +0.007 A 
ATOM     27  C   UNL     1      14.232   7.777  17.276  0.00  0.00    +0.070 A 
ENDBRANCH  14   5
ENDBRANCH   9  14
BRANCH  11  21
ATOM     21  C   UNL     1      16.945  11.442  22.254  0.00  0.00    +0.123 C 
BRANCH  21   7
ATOM      2  O   UNL     1      19.553  10.537  21.461  0.00  0.00    -0.267 OA
ATOM      7  N   UNL     1      17.331  10.094  21.968  0.00  0.00    -0.307 N 
ATOM     28  C   UNL     1      18.625   9.741  21.587  0.00  0.00    +0.279 C 
ATOM     33  H   UNL     1      16.625   9.367  22.038  0.00  0.00    +0.149 HD
BRANCH  28  29
ATOM      3  O   UNL     1      17.799   7.556  20.890  0.00  0.00    -0.458 OA
ATOM     29  C   UNL     1      18.858   8.303  21.300  0.00  0.00    +0.189 A 
ATOM     30  C   UNL     1      19.996   7.532  21.367  0.00  0.00    +0.054 A 
ATOM     31  C   UNL     1      19.611   6.228  20.974  0.00  0.00    +0.042 A 
ATOM     32  C   UNL     1      18.265   6.295  20.694  0.00  0.00    +0.196 A 
ENDBRANCH  28  29
ENDBRANCH  21   7
ENDBRANCH  11  21
TORSDOF 5
ENDMDL
MODEL 5
REMARK VINA RESULT:      -6.8      2.463      6.189
REMARK  Name = 25389414
REMARK  5 active torsions:
REMARK  status: ('A' for Active; 'I' for Inactive)
REMARK    1  A    between atoms: N_5  and  C_14
REMARK    2  A    between atoms: N_7  and  C_21
REMARK    3  A    between atoms: C_9  and  C_14
REMARK    4  A    between atoms: C_11  and  C_21
REMARK    5  A    between atoms: C_28  and  C_29
REMARK                            x       y       z     vdW  Elec       q    Type
REMARK                         _______ _______ _______ _____ _____    ______ ____
ROOT
ATOM      4  N   UNL     1      15.419   8.364   5.597  0.00  0.00    -0.298 NA
ATOM      8  C   UNL     1      12.896   8.924   5.897  0.00  0.00    -0.003 C 
ATOM      9  C   UNL     1      13.342   7.834   6.897  0.00  0.00    +0.020 C 
ATOM     10  C   UNL     1      13.192   8.451   4.462  0.00  0.00    +0.024 C 
ATOM     11  C   UNL     1      14.717   8.271   4.288  0.00  0.00    +0.074 C 
ATOM     12  C   UNL     1      14.801   7.440   6.578  0.00  0.00    +0.089 C 
ATOM     13  C   UNL     1      13.777  10.161   6.161  0.00  0.00    +0.019 C 
ATOM     15  C   UNL     1      15.259   9.748   6.103  0.00  0.00    +0.085 C 
ENDROOT
BRANCH   9  14
ATOM     14  C   UNL     1      12.427   6.626   6.911  0.00  0.00    +0.089 C 
BRANCH  14   5
ATOM      1  O   UNL     1       8.872  11.035   4.504  0.00  0.00    -0.268 OA
ATOM      5  N   UNL     1      11.102   6.952   6.388  0.00  0.00    -0.301 NA
ATOM      6  N   UNL     1       9.016   8.710   4.733  0.00  0.00    -0.312 N 
ATOM     16  C   UNL     1       8.725   7.495   6.969  0.00  0.00    +0.024 C 
ATOM     17  C   UNL     1       9.205   6.207   4.942  0.00  0.00    +0.050 C 
ATOM     18  C   UNL     1      10.152   7.201   7.479  0.00  0.00    +0.089 C 
ATOM     19  C   UNL     1      10.619   5.897   5.484  0.00  0.00    +0.094 C 
ATOM     20  C   UNL     1       8.230   6.340   6.109  0.00  0.00    +0.017 C 
ATOM     22  C   UNL     1       8.646   8.792   6.153  0.00  0.00    +0.130 C 
ATOM     23  C   UNL     1       9.223   7.475   4.108  0.00  0.00    +0.026 A 
ATOM     24  C   UNL     1       9.452   7.418   2.784  0.00  0.00    +0.022 A 
ATOM     25  C   UNL     1       9.059   9.920   4.017  0.00  0.00    +0.251 A 
ATOM     26  C   UNL     1       9.510   8.617   1.997  0.00  0.00    +0.007 A 
ATOM     27  C   UNL     1       9.338   9.816   2.557  0.00  0.00    +0.070 A 
ENDBRANCH  14   5
ENDBRANCH   9  14
BRANCH  11  21
ATOM     21  C   UNL     1      15.054   6.981   3.537  0.00  0.00    +0.123 C 
BRANCH  21   7
ATOM      2  O   UNL     1      14.349   6.144   0.881  0.00  0.00    -0.267 OA
ATOM      7  N   UNL     1      13.862   6.292   3.146  0.00  0.00    -0.307 N 
ATOM     28  C   UNL     1      13.598   5.922   1.828  0.00  0.00    +0.279 C 
ATOM     33  H   UNL     1      13.176   6.073   3.863  0.00  0.00    +0.149 HD
BRANCH  28  29
ATOM      3  O   UNL     1      11.653   5.503   0.419  0.00  0.00    -0.458 OA
ATOM     29  C   UNL     1      12.303   5.237   1.583  0.00  0.00    +0.189 A 
ATOM     30  C   UNL     1      11.591   4.335   2.339  0.00  0.00    +0.054 A 
ATOM     31  C   UNL     1      10.429   4.027   1.593  0.00  0.00    +0.042 A 
ATOM     32  C   UNL     1      10.513   4.763   0.433  0.00  0.00    +0.196 A 
ENDBRANCH  28  29
ENDBRANCH  21   7
ENDBRANCH  11  21
TORSDOF 5
ENDMDL
MODEL 6
REMARK VINA RESULT:      -6.8     16.521     20.194
REMARK  Name = 25389414
REMARK  5 active torsions:
REMARK  status: ('A' for Active; 'I' for Inactive)
REMARK    1  A    between atoms: N_5  and  C_14
REMARK    2  A    between atoms: N_7  and  C_21
REMARK    3  A    between atoms: C_9  and  C_14
REMARK    4  A    between atoms: C_11  and  C_21
REMARK    5  A    between atoms: C_28  and  C_29
REMARK                            x       y       z     vdW  Elec       q    Type
REMARK                         _______ _______ _______ _____ _____    ______ ____
ROOT
ATOM      4  N   UNL     1      11.815  12.446  25.564  0.00  0.00    -0.298 NA
ATOM      8  C   UNL     1      11.801  13.225  23.082  0.00  0.00    -0.003 C 
ATOM      9  C   UNL     1      11.945  11.689  23.178  0.00  0.00    +0.020 C 
ATOM     10  C   UNL     1      12.945  13.894  23.866  0.00  0.00    +0.024 C 
ATOM     11  C   UNL     1      12.827  13.518  25.360  0.00  0.00    +0.074 C 
ATOM     12  C   UNL     1      12.093  11.300  24.665  0.00  0.00    +0.089 C 
ATOM     13  C   UNL     1      10.484  13.596  23.791  0.00  0.00    +0.019 C 
ATOM     15  C   UNL     1      10.487  12.999  25.210  0.00  0.00    +0.085 C 
ENDROOT
BRANCH   9  14
ATOM     14  C   UNL     1      13.083  11.142  22.341  0.00  0.00    +0.089 C 
BRANCH  14   5
ATOM      1  O   UNL     1      11.995   8.593  16.846  0.00  0.00    -0.268 OA
ATOM      5  N   UNL     1      12.691   9.924  21.636  0.00  0.00    -0.301 NA
ATOM      6  N   UNL     1      12.442   8.037  19.075  0.00  0.00    -0.312 N 
ATOM     16  C   UNL     1      10.783   8.433  20.986  0.00  0.00    +0.024 C 
ATOM     17  C   UNL     1      12.972   7.447  21.465  0.00  0.00    +0.050 C 
ATOM     18  C   UNL     1      11.235   9.740  21.673  0.00  0.00    +0.089 C 
ATOM     19  C   UNL     1      13.395   8.751  22.178  0.00  0.00    +0.094 C 
ATOM     20  C   UNL     1      11.469   7.238  21.633  0.00  0.00    +0.017 C 
ATOM     22  C   UNL     1      11.084   8.424  19.481  0.00  0.00    +0.130 C 
ATOM     23  C   UNL     1      13.348   7.498  19.996  0.00  0.00    +0.026 A 
ATOM     24  C   UNL     1      14.545   7.048  19.582  0.00  0.00    +0.022 A 
ATOM     25  C   UNL     1      12.751   8.144  17.707  0.00  0.00    +0.251 A 
ATOM     26  C   UNL     1      14.923   7.132  18.200  0.00  0.00    +0.007 A 
ATOM     27  C   UNL     1      14.096   7.656  17.291  0.00  0.00    +0.070 A 
ENDBRANCH  14   5
ENDBRANCH   9  14
BRANCH  11  21
ATOM     21  C   UNL     1      14.187  13.159  25.964  0.00  0.00    +0.123 C 
BRANCH  21   7
ATOM      2  O   UNL     1      16.280  12.231  27.698  0.00  0.00    -0.267 OA
ATOM      7  N   UNL     1      14.044  12.730  27.322  0.00  0.00    -0.307 N 
ATOM     28  C   UNL     1      15.119  12.292  28.095  0.00  0.00    +0.279 C 
ATOM     33  H   UNL     1      13.116  12.739  27.733  0.00  0.00    +0.149 HD
BRANCH  28  29
ATOM      3  O   UNL     1      14.978  10.543  29.787  0.00  0.00    -0.458 OA
ATOM     29  C   UNL     1      14.801  11.855  29.478  0.00  0.00    +0.189 A 
ATOM     30  C   UNL     1      14.337  12.551  30.571  0.00  0.00    +0.054 A 
ATOM     31  C   UNL     1      14.223  11.606  31.618  0.00  0.00    +0.042 A 
ATOM     32  C   UNL     1      14.624  10.400  31.091  0.00  0.00    +0.196 A 
ENDBRANCH  28  29
ENDBRANCH  21   7
ENDBRANCH  11  21
TORSDOF 5
ENDMDL
MODEL 7
REMARK VINA RESULT:      -6.7     23.081     26.242
REMARK  Name = 25389414
REMARK  5 active torsions:
REMARK  status: ('A' for Active; 'I' for Inactive)
REMARK    1  A    between atoms: N_5  and  C_14
REMARK    2  A    between atoms: N_7  and  C_21
REMARK    3  A    between atoms: C_9  and  C_14
REMARK    4  A    between atoms: C_11  and  C_21
REMARK    5  A    between atoms: C_28  and  C_29
REMARK                            x       y       z     vdW  Elec       q    Type
REMARK                         _______ _______ _______ _____ _____    ______ ____
ROOT
ATOM      4  N   UNL     1      -5.416  -9.306   9.847  0.00  0.00    -0.298 NA
ATOM      8  C   UNL     1      -3.629 -10.571  11.251  0.00  0.00    -0.003 C 
ATOM      9  C   UNL     1      -4.328 -11.527  10.259  0.00  0.00    +0.020 C 
ATOM     10  C   UNL     1      -4.686  -9.916  12.160  0.00  0.00    +0.024 C 
ATOM     11  C   UNL     1      -5.639  -9.058  11.298  0.00  0.00    +0.074 C 
ATOM     12  C   UNL     1      -5.472 -10.760   9.559  0.00  0.00    +0.089 C 
ATOM     13  C   UNL     1      -2.988  -9.447  10.413  0.00  0.00    +0.019 C 
ATOM     15  C   UNL     1      -4.059  -8.819   9.504  0.00  0.00    +0.085 C 
ENDROOT
BRANCH   9  14
ATOM     14  C   UNL     1      -4.826 -12.802  10.907  0.00  0.00    +0.089 C 
BRANCH  14   5
ATOM      1  O   UNL     1      -0.935 -10.604  15.139  0.00  0.00    -0.268 OA
ATOM      5  N   UNL     1      -4.099 -13.094  12.141  0.00  0.00    -0.301 NA
ATOM      6  N   UNL     1      -2.494 -12.314  14.786  0.00  0.00    -0.312 N 
ATOM     16  C   UNL     1      -2.116 -14.249  13.150  0.00  0.00    +0.024 C 
ATOM     17  C   UNL     1      -4.209 -14.121  14.416  0.00  0.00    +0.050 C 
ATOM     18  C   UNL     1      -2.885 -13.872  11.866  0.00  0.00    +0.089 C 
ATOM     19  C   UNL     1      -4.967 -13.776  13.114  0.00  0.00    +0.094 C 
ATOM     20  C   UNL     1      -3.024 -15.028  14.092  0.00  0.00    +0.017 C 
ATOM     22  C   UNL     1      -1.568 -13.021  13.891  0.00  0.00    +0.130 C 
ATOM     23  C   UNL     1      -3.743 -12.855  15.112  0.00  0.00    +0.026 A 
ATOM     24  C   UNL     1      -4.528 -12.246  16.017  0.00  0.00    +0.022 A 
ATOM     25  C   UNL     1      -2.027 -11.123  15.370  0.00  0.00    +0.251 A 
ATOM     26  C   UNL     1      -4.111 -11.026  16.647  0.00  0.00    +0.007 A 
ATOM     27  C   UNL     1      -2.935 -10.466  16.352  0.00  0.00    +0.070 A 
ENDBRANCH  14   5
ENDBRANCH   9  14
BRANCH  11  21
ATOM     21  C   UNL     1      -7.101  -9.253  11.704  0.00  0.00    +0.123 C 
BRANCH  21   7
ATOM      2  O   UNL     1      -9.430  -9.995  13.213  0.00  0.00    -0.267 OA
ATOM      7  N   UNL     1      -7.243  -9.219  13.128  0.00  0.00    -0.307 N 
ATOM     28  C   UNL     1      -8.415  -9.598  13.782  0.00  0.00    +0.279 C 
ATOM     33  H   UNL     1      -6.455  -8.896  13.682  0.00  0.00    +0.149 HD
BRANCH  28  29
ATOM      3  O   UNL     1      -9.539  -9.023  15.867  0.00  0.00    -0.458 OA
ATOM     29  C   UNL     1      -8.411  -9.480  15.262  0.00  0.00    +0.189 A 
ATOM     30  C   UNL     1      -7.440  -9.757  16.196  0.00  0.00    +0.054 A 
ATOM     31  C   UNL     1      -8.008  -9.451  17.456  0.00  0.00    +0.042 A 
ATOM     32  C   UNL     1      -9.286  -9.008  17.202  0.00  0.00    +0.196 A 
ENDBRANCH  28  29
ENDBRANCH  21   7
ENDBRANCH  11  21
TORSDOF 5
ENDMDL
MODEL 8
REMARK VINA RESULT:      -6.7     23.626     27.370
REMARK  Name = 25389414
REMARK  5 active torsions:
REMARK  status: ('A' for Active; 'I' for Inactive)
REMARK    1  A    between atoms: N_5  and  C_14
REMARK    2  A    between atoms: N_7  and  C_21
REMARK    3  A    between atoms: C_9  and  C_14
REMARK    4  A    between atoms: C_11  and  C_21
REMARK    5  A    between atoms: C_28  and  C_29
REMARK                            x       y       z     vdW  Elec       q    Type
REMARK                         _______ _______ _______ _____ _____    ______ ____
ROOT
ATOM      4  N   UNL     1      -5.201 -10.630  18.180  0.00  0.00    -0.298 NA
ATOM      8  C   UNL     1      -5.787 -12.737  16.772  0.00  0.00    -0.003 C 
ATOM      9  C   UNL     1      -4.974 -11.724  15.936  0.00  0.00    +0.020 C 
ATOM     10  C   UNL     1      -7.061 -12.054  17.303  0.00  0.00    +0.024 C 
ATOM     11  C   UNL     1      -6.663 -10.899  18.250  0.00  0.00    +0.074 C 
ATOM     12  C   UNL     1      -4.780 -10.439  16.771  0.00  0.00    +0.089 C 
ATOM     13  C   UNL     1      -4.923 -13.106  17.994  0.00  0.00    +0.019 C 
ATOM     15  C   UNL     1      -4.493 -11.816  18.717  0.00  0.00    +0.085 C 
ENDROOT
BRANCH   9  14
ATOM     14  C   UNL     1      -5.596 -11.426  14.587  0.00  0.00    +0.089 C 
BRANCH  14   5
ATOM      1  O   UNL     1      -4.802 -12.531   8.586  0.00  0.00    -0.268 OA
ATOM      5  N   UNL     1      -4.621 -11.560  13.507  0.00  0.00    -0.301 NA
ATOM      6  N   UNL     1      -3.708 -11.635  10.451  0.00  0.00    -0.312 N 
ATOM     16  C   UNL     1      -2.916 -13.051  12.434  0.00  0.00    +0.024 C 
ATOM     17  C   UNL     1      -2.557 -10.628  12.452  0.00  0.00    +0.050 C 
ATOM     18  C   UNL     1      -3.993 -12.887  13.527  0.00  0.00    +0.089 C 
ATOM     19  C   UNL     1      -3.616 -10.488  13.569  0.00  0.00    +0.094 C 
ATOM     20  C   UNL     1      -1.849 -11.975  12.587  0.00  0.00    +0.017 C 
ATOM     22  C   UNL     1      -3.498 -12.975  11.016  0.00  0.00    +0.130 C 
ATOM     23  C   UNL     1      -3.204 -10.494  11.086  0.00  0.00    +0.026 A 
ATOM     24  C   UNL     1      -3.312  -9.291  10.497  0.00  0.00    +0.022 A 
ATOM     25  C   UNL     1      -4.351 -11.566   9.202  0.00  0.00    +0.251 A 
ATOM     26  C   UNL     1      -3.960  -9.151   9.224  0.00  0.00    +0.007 A 
ATOM     27  C   UNL     1      -4.471 -10.212   8.593  0.00  0.00    +0.070 A 
ENDBRANCH  14   5
ENDBRANCH   9  14
BRANCH  11  21
ATOM     21  C   UNL     1      -7.499  -9.643  17.995  0.00  0.00    +0.123 C 
BRANCH  21   7
ATOM      2  O   UNL     1     -10.065  -9.433  16.720  0.00  0.00    -0.267 OA
ATOM      7  N   UNL     1      -8.779  -9.745  18.628  0.00  0.00    -0.307 N 
ATOM     28  C   UNL     1      -9.981  -9.630  17.930  0.00  0.00    +0.279 C 
ATOM     33  H   UNL     1      -8.807  -9.901  19.631  0.00  0.00    +0.149 HD
BRANCH  28  29
ATOM      3  O   UNL     1     -11.099  -9.984  20.067  0.00  0.00    -0.458 OA
ATOM     29  C   UNL     1     -11.223  -9.734  18.737  0.00  0.00    +0.189 A 
ATOM     30  C   UNL     1     -12.549  -9.619  18.388  0.00  0.00    +0.054 A 
ATOM     31  C   UNL     1     -13.287  -9.811  19.580  0.00  0.00    +0.042 A 
ATOM     32  C   UNL     1     -12.360 -10.029  20.573  0.00  0.00    +0.196 A 
ENDBRANCH  28  29
ENDBRANCH  21   7
ENDBRANCH  11  21
TORSDOF 5
ENDMDL
MODEL 9
REMARK VINA RESULT:      -6.6      2.458      3.953
REMARK  Name = 25389414
REMARK  5 active torsions:
REMARK  status: ('A' for Active; 'I' for Inactive)
REMARK    1  A    between atoms: N_5  and  C_14
REMARK    2  A    between atoms: N_7  and  C_21
REMARK    3  A    between atoms: C_9  and  C_14
REMARK    4  A    between atoms: C_11  and  C_21
REMARK    5  A    between atoms: C_28  and  C_29
REMARK                            x       y       z     vdW  Elec       q    Type
REMARK                         _______ _______ _______ _____ _____    ______ ____
ROOT
ATOM      4  N   UNL     1      11.023   7.292   7.061  0.00  0.00    -0.298 NA
ATOM      8  C   UNL     1       9.159   6.018   5.770  0.00  0.00    -0.003 C 
ATOM      9  C   UNL     1      10.331   6.380   4.831  0.00  0.00    +0.020 C 
ATOM     10  C   UNL     1       8.607   7.303   6.415  0.00  0.00    +0.024 C 
ATOM     11  C   UNL     1       9.706   7.948   7.288  0.00  0.00    +0.074 C 
ATOM     12  C   UNL     1      11.335   7.256   5.612  0.00  0.00    +0.089 C 
ATOM     13  C   UNL     1       9.743   5.153   6.903  0.00  0.00    +0.019 C 
ATOM     15  C   UNL     1      10.927   5.896   7.548  0.00  0.00    +0.085 C 
ENDROOT
BRANCH   9  14
ATOM     14  C   UNL     1       9.885   7.050   3.548  0.00  0.00    +0.089 C 
BRANCH  14   5
ATOM      1  O   UNL     1      14.814   6.506  -0.097  0.00  0.00    -0.268 OA
ATOM      5  N   UNL     1      10.446   6.386   2.374  0.00  0.00    -0.301 NA
ATOM      6  N   UNL     1      12.823   5.417   0.479  0.00  0.00    -0.312 N 
ATOM     16  C   UNL     1      10.502   6.311  -0.131  0.00  0.00    +0.024 C 
ATOM     17  C   UNL     1      10.705   4.228   1.141  0.00  0.00    +0.050 C 
ATOM     18  C   UNL     1       9.975   7.018   1.136  0.00  0.00    +0.089 C 
ATOM     19  C   UNL     1      10.145   4.946   2.390  0.00  0.00    +0.094 C 
ATOM     20  C   UNL     1      10.095   4.843  -0.116  0.00  0.00    +0.017 C 
ATOM     22  C   UNL     1      12.028   6.402  -0.266  0.00  0.00    +0.130 C 
ATOM     23  C   UNL     1      12.219   4.322   1.107  0.00  0.00    +0.026 A 
ATOM     24  C   UNL     1      12.975   3.375   1.689  0.00  0.00    +0.022 A 
ATOM     25  C   UNL     1      14.220   5.576   0.450  0.00  0.00    +0.251 A 
ATOM     26  C   UNL     1      14.406   3.480   1.697  0.00  0.00    +0.007 A 
ATOM     27  C   UNL     1      15.022   4.518   1.126  0.00  0.00    +0.070 A 
ENDBRANCH  14   5
ENDBRANCH   9  14
BRANCH  11  21
ATOM     21  C   UNL     1       9.768   9.464   7.094  0.00  0.00    +0.123 C 
BRANCH  21   7
ATOM      2  O   UNL     1      11.643  10.840   8.780  0.00  0.00    -0.267 OA
ATOM      7  N   UNL     1       9.476  10.148   8.317  0.00  0.00    -0.307 N 
ATOM     28  C   UNL     1      10.452  10.792   9.076  0.00  0.00    +0.279 C 
ATOM     33  H   UNL     1       8.515  10.154   8.646  0.00  0.00    +0.149 HD
BRANCH  28  29
ATOM      3  O   UNL     1      10.928  11.766  11.260  0.00  0.00    -0.458 OA
ATOM     29  C   UNL     1       9.990  11.432  10.335  0.00  0.00    +0.189 A 
ATOM     30  C   UNL     1       8.733  11.776  10.775  0.00  0.00    +0.054 A 
ATOM     31  C   UNL     1       8.910  12.358  12.053  0.00  0.00    +0.042 A 
ATOM     32  C   UNL     1      10.263  12.329  12.302  0.00  0.00    +0.196 A 
ENDBRANCH  28  29
ENDBRANCH  21   7
ENDBRANCH  11  21
TORSDOF 5
ENDMDL
MODEL 10
REMARK VINA RESULT:      -6.5      2.204      6.814
REMARK  Name = 25389414
REMARK  5 active torsions:
REMARK  status: ('A' for Active; 'I' for Inactive)
REMARK    1  A    between atoms: N_5  and  C_14
REMARK    2  A    between atoms: N_7  and  C_21
REMARK    3  A    between atoms: C_9  and  C_14
REMARK    4  A    between atoms: C_11  and  C_21
REMARK    5  A    between atoms: C_28  and  C_29
REMARK                            x       y       z     vdW  Elec       q    Type
REMARK                         _______ _______ _______ _____ _____    ______ ____
ROOT
ATOM      4  N   UNL     1      14.011   7.180   5.817  0.00  0.00    -0.298 NA
ATOM      8  C   UNL     1      14.328   9.687   5.198  0.00  0.00    -0.003 C 
ATOM      9  C   UNL     1      13.211   9.516   6.252  0.00  0.00    +0.020 C 
ATOM     10  C   UNL     1      13.986   8.849   3.953  0.00  0.00    +0.024 C 
ATOM     11  C   UNL     1      13.951   7.352   4.339  0.00  0.00    +0.074 C 
ATOM     12  C   UNL     1      12.969   8.006   6.473  0.00  0.00    +0.089 C 
ATOM     13  C   UNL     1      15.614   9.097   5.809  0.00  0.00    +0.019 C 
ATOM     15  C   UNL     1      15.336   7.657   6.279  0.00  0.00    +0.085 C 
ENDROOT
BRANCH   9  14
ATOM     14  C   UNL     1      11.931  10.241   5.891  0.00  0.00    +0.089 C 
BRANCH  14   5
ATOM      1  O   UNL     1      10.174   4.361   5.424  0.00  0.00    -0.268 OA
ATOM      5  N   UNL     1      10.794   9.325   5.840  0.00  0.00    -0.301 NA
ATOM      6  N   UNL     1       9.388   6.470   6.068  0.00  0.00    -0.312 N 
ATOM     16  C   UNL     1       8.961   8.379   4.414  0.00  0.00    +0.024 C 
ATOM     17  C   UNL     1       8.566   8.734   6.805  0.00  0.00    +0.050 C 
ATOM     18  C   UNL     1      10.202   9.294   4.497  0.00  0.00    +0.089 C 
ATOM     19  C   UNL     1       9.793   9.672   6.861  0.00  0.00    +0.094 C 
ATOM     20  C   UNL     1       7.916   8.826   5.427  0.00  0.00    +0.017 C 
ATOM     22  C   UNL     1       9.299   6.904   4.667  0.00  0.00    +0.130 C 
ATOM     23  C   UNL     1       8.975   7.305   7.113  0.00  0.00    +0.026 A 
ATOM     24  C   UNL     1       8.962   6.848   8.377  0.00  0.00    +0.022 A 
ATOM     25  C   UNL     1       9.814   5.150   6.298  0.00  0.00    +0.251 A 
ATOM     26  C   UNL     1       9.387   5.512   8.680  0.00  0.00    +0.007 A 
ATOM     27  C   UNL     1       9.806   4.688   7.715  0.00  0.00    +0.070 A 
ENDBRANCH  14   5
ENDBRANCH   9  14
BRANCH  11  21
ATOM     21  C   UNL     1      12.753   6.633   3.716  0.00  0.00    +0.123 C 
BRANCH  21   7
ATOM      2  O   UNL     1      11.755   4.176   2.615  0.00  0.00    -0.267 OA
ATOM      7  N   UNL     1      13.103   6.059   2.453  0.00  0.00    -0.307 N 
ATOM     28  C   UNL     1      12.569   4.855   1.994  0.00  0.00    +0.279 C 
ATOM     33  H   UNL     1      13.778   6.549   1.873  0.00  0.00    +0.149 HD
BRANCH  28  29
ATOM      3  O   UNL     1      12.227   3.596  -0.065  0.00  0.00    -0.458 OA
ATOM     29  C   UNL     1      13.055   4.380   0.674  0.00  0.00    +0.189 A 
ATOM     30  C   UNL     1      14.242   4.588   0.010  0.00  0.00    +0.054 A 
ATOM     31  C   UNL     1      14.136   3.886  -1.214  0.00  0.00    +0.042 A 
ATOM     32  C   UNL     1      12.892   3.300  -1.212  0.00  0.00    +0.196 A 
ENDBRANCH  28  29
ENDBRANCH  21   7
ENDBRANCH  11  21
TORSDOF 5
ENDMDL
