MODEL 1
REMARK VINA RESULT:      -7.0      0.000      0.000
REMARK  Name = 7143816
REMARK  5 active torsions:
REMARK  status: ('A' for Active; 'I' for Inactive)
REMARK    1  A    between atoms: S_1  and  N_7
REMARK    2  A    between atoms: S_1  and  C_21
REMARK    3  A    between atoms: N_9  and  C_28
REMARK    4  A    between atoms: C_19  and  C_22
REMARK    5  A    between atoms: C_31  and  C_32
REMARK                            x       y       z     vdW  Elec       q    Type
REMARK                         _______ _______ _______ _____ _____    ______ ____
ROOT
ATOM      4  O   UNL     1      16.059  11.778  19.831  0.00  0.00    -0.267 OA
ATOM      7  N   UNL     1      12.827   7.984  19.883  0.00  0.00    -0.176 NA
ATOM      8  N   UNL     1      15.562   9.521  19.519  0.00  0.00    -0.311 N 
ATOM     10  C   UNL     1      13.902   8.704  17.748  0.00  0.00    +0.025 C 
ATOM     11  C   UNL     1      15.039   7.079  19.196  0.00  0.00    +0.052 C 
ATOM     12  C   UNL     1      14.748   7.438  17.742  0.00  0.00    +0.017 C 
ATOM     13  C   UNL     1      12.579   8.466  18.495  0.00  0.00    +0.114 C 
ATOM     14  C   UNL     1      13.717   6.784  19.927  0.00  0.00    +0.119 C 
ATOM     15  C   UNL     1      14.721   9.848  18.359  0.00  0.00    +0.130 C 
ATOM     16  C   UNL     1      15.791   8.195  19.895  0.00  0.00    +0.026 A 
ATOM     17  C   UNL     1      16.655   7.915  20.884  0.00  0.00    +0.022 A 
ATOM     18  C   UNL     1      16.206  10.600  20.157  0.00  0.00    +0.262 A 
ATOM     19  C   UNL     1      17.141  10.256  21.286  0.00  0.00    +0.082 A 
ATOM     20  C   UNL     1      17.333   8.964  21.592  0.00  0.00    +0.018 A 
ENDROOT
BRANCH  19  22
ATOM      5  O   UNL     1      17.234  11.979  23.079  0.00  0.00    -0.463 OA
ATOM     22  C   UNL     1      17.831  11.309  22.052  0.00  0.00    +0.140 A 
ATOM     27  C   UNL     1      19.122  11.770  21.878  0.00  0.00    +0.050 A 
ATOM     29  C   UNL     1      19.323  12.777  22.852  0.00  0.00    +0.042 A 
ATOM     30  C   UNL     1      18.146  12.867  23.558  0.00  0.00    +0.196 A 
ENDBRANCH  19  22
BRANCH   7   1
ATOM      1  S   UNL     1      11.454   7.923  20.902  0.00  0.00    +0.061 S 
ATOM      2  O   UNL     1      11.508   6.716  21.698  0.00  0.00    -0.153 OA
ATOM      3  O   UNL     1      10.276   8.250  20.125  0.00  0.00    -0.153 OA
BRANCH   1  21
ATOM     21  C   UNL     1      11.797   9.288  21.968  0.00  0.00    +0.106 A 
ATOM     23  C   UNL     1      10.778   9.819  22.740  0.00  0.00    +0.030 A 
ATOM     24  C   UNL     1      13.082   9.805  22.012  0.00  0.00    +0.030 A 
ATOM     25  C   UNL     1      11.050  10.897  23.583  0.00  0.00    +0.025 A 
ATOM     26  C   UNL     1      13.354  10.883  22.855  0.00  0.00    +0.025 A 
ATOM     28  C   UNL     1      12.338  11.429  23.640  0.00  0.00    +0.033 A 
BRANCH  28   9
ATOM      6  O   UNL     1      13.854  11.542  26.240  0.00  0.00    -0.276 OA
ATOM      9  N   UNL     1      12.611  12.506  24.483  0.00  0.00    -0.286 N 
ATOM     31  C   UNL     1      13.324  12.502  25.689  0.00  0.00    +0.214 C 
ATOM     32  C   UNL     1      13.395  13.879  26.301  0.00  0.00    +0.109 C 
ATOM     33  H   UNL     1      12.240  13.403  24.175  0.00  0.00    +0.155 HD
ENDBRANCH  28   9
ENDBRANCH   1  21
ENDBRANCH   7   1
TORSDOF 4
ENDMDL
MODEL 2
REMARK VINA RESULT:      -6.6     25.549     29.095
REMARK  Name = 7143816
REMARK  5 active torsions:
REMARK  status: ('A' for Active; 'I' for Inactive)
REMARK    1  A    between atoms: S_1  and  N_7
REMARK    2  A    between atoms: S_1  and  C_21
REMARK    3  A    between atoms: N_9  and  C_28
REMARK    4  A    between atoms: C_19  and  C_22
REMARK    5  A    between atoms: C_31  and  C_32
REMARK                            x       y       z     vdW  Elec       q    Type
REMARK                         _______ _______ _______ _____ _____    ______ ____
ROOT
ATOM      4  O   UNL     1     -14.822   9.225  19.934  0.00  0.00    -0.267 OA
ATOM      7  N   UNL     1     -11.375   9.513  16.344  0.00  0.00    -0.176 NA
ATOM      8  N   UNL     1     -12.599   9.420  19.255  0.00  0.00    -0.311 N 
ATOM     10  C   UNL     1     -11.737  11.423  17.911  0.00  0.00    +0.025 C 
ATOM     11  C   UNL     1     -10.195   9.614  18.530  0.00  0.00    +0.052 C 
ATOM     12  C   UNL     1     -10.406  11.125  18.589  0.00  0.00    +0.017 C 
ATOM     13  C   UNL     1     -11.712  10.962  16.444  0.00  0.00    +0.114 C 
ATOM     14  C   UNL     1     -10.112   9.163  17.061  0.00  0.00    +0.119 C 
ATOM     15  C   UNL     1     -12.863  10.761  18.714  0.00  0.00    +0.130 C 
ATOM     16  C   UNL     1     -11.312   8.879  19.246  0.00  0.00    +0.026 A 
ATOM     17  C   UNL     1     -11.071   7.703  19.850  0.00  0.00    +0.022 A 
ATOM     18  C   UNL     1     -13.682   8.764  19.874  0.00  0.00    +0.262 A 
ATOM     19  C   UNL     1     -13.389   7.432  20.510  0.00  0.00    +0.082 A 
ATOM     20  C   UNL     1     -12.129   6.969  20.485  0.00  0.00    +0.018 A 
ENDROOT
BRANCH  19  22
ATOM      5  O   UNL     1     -15.504   6.122  20.441  0.00  0.00    -0.463 OA
ATOM     22  C   UNL     1     -14.456   6.638  21.145  0.00  0.00    +0.140 A 
ATOM     27  C   UNL     1     -14.573   6.295  22.479  0.00  0.00    +0.050 A 
ATOM     29  C   UNL     1     -15.757   5.530  22.594  0.00  0.00    +0.042 A 
ATOM     30  C   UNL     1     -16.287   5.453  21.327  0.00  0.00    +0.196 A 
ENDBRANCH  19  22
BRANCH   7   1
ATOM      1  S   UNL     1     -11.563   8.816  14.793  0.00  0.00    +0.061 S 
ATOM      2  O   UNL     1     -10.659   7.692  14.666  0.00  0.00    -0.153 OA
ATOM      3  O   UNL     1     -11.582   9.871  13.801  0.00  0.00    -0.153 OA
BRANCH   1  21
ATOM     21  C   UNL     1     -13.202   8.175  14.937  0.00  0.00    +0.106 A 
ATOM     23  C   UNL     1     -13.837   8.209  16.166  0.00  0.00    +0.030 A 
ATOM     24  C   UNL     1     -13.824   7.650  13.815  0.00  0.00    +0.030 A 
ATOM     25  C   UNL     1     -15.133   7.703  16.279  0.00  0.00    +0.025 A 
ATOM     26  C   UNL     1     -15.119   7.145  13.929  0.00  0.00    +0.025 A 
ATOM     28  C   UNL     1     -15.773   7.171  15.160  0.00  0.00    +0.033 A 
BRANCH  28   9
ATOM      6  O   UNL     1     -16.768   4.329  15.214  0.00  0.00    -0.276 OA
ATOM      9  N   UNL     1     -17.070   6.666  15.273  0.00  0.00    -0.286 N 
ATOM     31  C   UNL     1     -17.477   5.327  15.291  0.00  0.00    +0.214 C 
ATOM     32  C   UNL     1     -18.974   5.200  15.427  0.00  0.00    +0.109 C 
ATOM     33  H   UNL     1     -17.803   7.368  15.350  0.00  0.00    +0.155 HD
ENDBRANCH  28   9
ENDBRANCH   1  21
ENDBRANCH   7   1
TORSDOF 4
ENDMDL
MODEL 3
REMARK VINA RESULT:      -6.5     16.332     20.213
REMARK  Name = 7143816
REMARK  5 active torsions:
REMARK  status: ('A' for Active; 'I' for Inactive)
REMARK    1  A    between atoms: S_1  and  N_7
REMARK    2  A    between atoms: S_1  and  C_21
REMARK    3  A    between atoms: N_9  and  C_28
REMARK    4  A    between atoms: C_19  and  C_22
REMARK    5  A    between atoms: C_31  and  C_32
REMARK                            x       y       z     vdW  Elec       q    Type
REMARK                         _______ _______ _______ _____ _____    ______ ____
ROOT
ATOM      4  O   UNL     1      10.023   6.561   0.861  0.00  0.00    -0.267 OA
ATOM      7  N   UNL     1      11.092   7.482   5.641  0.00  0.00    -0.176 NA
ATOM      8  N   UNL     1       9.796   6.071   3.130  0.00  0.00    -0.311 N 
ATOM     10  C   UNL     1       8.753   7.711   4.798  0.00  0.00    +0.025 C 
ATOM     11  C   UNL     1       9.558   5.526   5.577  0.00  0.00    +0.052 C 
ATOM     12  C   UNL     1       8.349   6.457   5.563  0.00  0.00    +0.017 C 
ATOM     13  C   UNL     1       9.935   8.410   5.490  0.00  0.00    +0.114 C 
ATOM     14  C   UNL     1      10.722   6.204   6.321  0.00  0.00    +0.119 C 
ATOM     15  C   UNL     1       9.068   7.330   3.346  0.00  0.00    +0.130 C 
ATOM     16  C   UNL     1       9.978   5.154   4.167  0.00  0.00    +0.026 A 
ATOM     17  C   UNL     1      10.543   3.961   3.920  0.00  0.00    +0.022 A 
ATOM     18  C   UNL     1      10.199   5.794   1.808  0.00  0.00    +0.262 A 
ATOM     19  C   UNL     1      10.861   4.464   1.570  0.00  0.00    +0.082 A 
ATOM     20  C   UNL     1      10.995   3.617   2.602  0.00  0.00    +0.018 A 
ENDROOT
BRANCH  19  22
ATOM      5  O   UNL     1      10.542   3.938  -0.842  0.00  0.00    -0.463 OA
ATOM     22  C   UNL     1      11.364   4.090   0.236  0.00  0.00    +0.140 A 
ATOM     27  C   UNL     1      12.674   3.845  -0.134  0.00  0.00    +0.050 A 
ATOM     29  C   UNL     1      12.648   3.527  -1.512  0.00  0.00    +0.042 A 
ATOM     30  C   UNL     1      11.329   3.597  -1.897  0.00  0.00    +0.196 A 
ENDBRANCH  19  22
BRANCH   7   1
ATOM      1  S   UNL     1      12.554   8.201   6.163  0.00  0.00    +0.061 S 
ATOM      2  O   UNL     1      13.030   7.505   7.340  0.00  0.00    -0.153 OA
ATOM      3  O   UNL     1      12.397   9.641   6.163  0.00  0.00    -0.153 OA
BRANCH   1  21
ATOM     21  C   UNL     1      13.610   7.770   4.816  0.00  0.00    +0.106 A 
ATOM     23  C   UNL     1      14.975   7.969   4.935  0.00  0.00    +0.030 A 
ATOM     24  C   UNL     1      13.054   7.239   3.664  0.00  0.00    +0.030 A 
ATOM     25  C   UNL     1      15.810   7.628   3.870  0.00  0.00    +0.025 A 
ATOM     26  C   UNL     1      13.889   6.898   2.599  0.00  0.00    +0.025 A 
ATOM     28  C   UNL     1      15.266   7.092   2.702  0.00  0.00    +0.033 A 
BRANCH  28   9
ATOM      6  O   UNL     1      16.006   8.634   0.223  0.00  0.00    -0.276 OA
ATOM      9  N   UNL     1      16.101   6.750   1.638  0.00  0.00    -0.286 N 
ATOM     31  C   UNL     1      16.411   7.509   0.503  0.00  0.00    +0.214 C 
ATOM     32  C   UNL     1      17.356   6.778  -0.418  0.00  0.00    +0.109 C 
ATOM     33  H   UNL     1      16.534   5.831   1.705  0.00  0.00    +0.155 HD
ENDBRANCH  28   9
ENDBRANCH   1  21
ENDBRANCH   7   1
TORSDOF 4
ENDMDL
MODEL 4
REMARK VINA RESULT:      -6.4     16.528     19.983
REMARK  Name = 7143816
REMARK  5 active torsions:
REMARK  status: ('A' for Active; 'I' for Inactive)
REMARK    1  A    between atoms: S_1  and  N_7
REMARK    2  A    between atoms: S_1  and  C_21
REMARK    3  A    between atoms: N_9  and  C_28
REMARK    4  A    between atoms: C_19  and  C_22
REMARK    5  A    between atoms: C_31  and  C_32
REMARK                            x       y       z     vdW  Elec       q    Type
REMARK                         _______ _______ _______ _____ _____    ______ ____
ROOT
ATOM      4  O   UNL     1      12.008   7.506   5.051  0.00  0.00    -0.267 OA
ATOM      7  N   UNL     1      11.389   6.394   0.232  0.00  0.00    -0.176 NA
ATOM      8  N   UNL     1      12.094   5.986   3.284  0.00  0.00    -0.311 N 
ATOM     10  C   UNL     1      13.655   6.292   1.276  0.00  0.00    +0.025 C 
ATOM     11  C   UNL     1      12.174   4.335   1.384  0.00  0.00    +0.052 C 
ATOM     12  C   UNL     1      13.626   4.771   1.202  0.00  0.00    +0.017 C 
ATOM     13  C   UNL     1      12.788   6.904   0.164  0.00  0.00    +0.114 C 
ATOM     14  C   UNL     1      11.319   4.901   0.237  0.00  0.00    +0.119 C 
ATOM     15  C   UNL     1      13.207   6.730   2.676  0.00  0.00    +0.130 C 
ATOM     16  C   UNL     1      11.631   4.793   2.724  0.00  0.00    +0.026 A 
ATOM     17  C   UNL     1      10.694   4.070   3.359  0.00  0.00    +0.022 A 
ATOM     18  C   UNL     1      11.599   6.478   4.508  0.00  0.00    +0.262 A 
ATOM     19  C   UNL     1      10.524   5.665   5.178  0.00  0.00    +0.082 A 
ATOM     20  C   UNL     1      10.131   4.519   4.601  0.00  0.00    +0.018 A 
ENDROOT
BRANCH  19  22
ATOM      5  O   UNL     1       9.139   7.237   6.521  0.00  0.00    -0.463 OA
ATOM     22  C   UNL     1       9.903   6.111   6.438  0.00  0.00    +0.140 A 
ATOM     27  C   UNL     1       9.979   5.502   7.677  0.00  0.00    +0.050 A 
ATOM     29  C   UNL     1       9.220   6.302   8.563  0.00  0.00    +0.042 A 
ATOM     30  C   UNL     1       8.729   7.346   7.812  0.00  0.00    +0.196 A 
ENDBRANCH  19  22
BRANCH   7   1
ATOM      1  S   UNL     1      10.263   7.184  -0.785  0.00  0.00    +0.061 S 
ATOM      2  O   UNL     1       9.395   6.195  -1.389  0.00  0.00    -0.153 OA
ATOM      3  O   UNL     1      10.964   8.155  -1.600  0.00  0.00    -0.153 OA
BRANCH   1  21
ATOM     21  C   UNL     1       9.321   8.065   0.420  0.00  0.00    +0.106 A 
ATOM     23  C   UNL     1       8.562   9.153   0.023  0.00  0.00    +0.030 A 
ATOM     24  C   UNL     1       9.359   7.652   1.742  0.00  0.00    +0.030 A 
ATOM     25  C   UNL     1       7.817   9.848   0.976  0.00  0.00    +0.025 A 
ATOM     26  C   UNL     1       8.614   8.348   2.694  0.00  0.00    +0.025 A 
ATOM     28  C   UNL     1       7.843   9.446   2.312  0.00  0.00    +0.033 A 
BRANCH  28   9
ATOM      6  O   UNL     1       4.862   9.693   2.660  0.00  0.00    -0.276 OA
ATOM      9  N   UNL     1       7.097  10.141   3.264  0.00  0.00    -0.286 N 
ATOM     31  C   UNL     1       5.703  10.224   3.379  0.00  0.00    +0.214 C 
ATOM     32  C   UNL     1       5.289  11.080   4.550  0.00  0.00    +0.109 C 
ATOM     33  H   UNL     1       7.643  10.649   3.956  0.00  0.00    +0.155 HD
ENDBRANCH  28   9
ENDBRANCH   1  21
ENDBRANCH   7   1
TORSDOF 4
ENDMDL
MODEL 5
REMARK VINA RESULT:      -6.4     17.490     21.598
REMARK  Name = 7143816
REMARK  5 active torsions:
REMARK  status: ('A' for Active; 'I' for Inactive)
REMARK    1  A    between atoms: S_1  and  N_7
REMARK    2  A    between atoms: S_1  and  C_21
REMARK    3  A    between atoms: N_9  and  C_28
REMARK    4  A    between atoms: C_19  and  C_22
REMARK    5  A    between atoms: C_31  and  C_32
REMARK                            x       y       z     vdW  Elec       q    Type
REMARK                         _______ _______ _______ _____ _____    ______ ____
ROOT
ATOM      4  O   UNL     1       8.938   5.391   4.911  0.00  0.00    -0.267 OA
ATOM      7  N   UNL     1      12.815   5.148   1.788  0.00  0.00    -0.176 NA
ATOM      8  N   UNL     1      10.784   6.370   3.876  0.00  0.00    -0.311 N 
ATOM     10  C   UNL     1      10.924   6.715   1.342  0.00  0.00    +0.025 C 
ATOM     11  C   UNL     1      12.786   7.430   2.775  0.00  0.00    +0.052 C 
ATOM     12  C   UNL     1      11.815   7.899   1.694  0.00  0.00    +0.017 C 
ATOM     13  C   UNL     1      11.765   5.545   0.807  0.00  0.00    +0.114 C 
ATOM     14  C   UNL     1      13.667   6.297   2.219  0.00  0.00    +0.119 C 
ATOM     15  C   UNL     1      10.100   6.328   2.576  0.00  0.00    +0.130 C 
ATOM     16  C   UNL     1      12.042   6.962   4.011  0.00  0.00    +0.026 A 
ATOM     17  C   UNL     1      12.597   7.094   5.227  0.00  0.00    +0.022 A 
ATOM     18  C   UNL     1      10.064   5.885   4.986  0.00  0.00    +0.262 A 
ATOM     19  C   UNL     1      10.727   6.014   6.330  0.00  0.00    +0.082 A 
ATOM     20  C   UNL     1      11.930   6.606   6.401  0.00  0.00    +0.018 A 
ENDROOT
BRANCH  19  22
ATOM      5  O   UNL     1      10.094   4.176   7.884  0.00  0.00    -0.463 OA
ATOM     22  C   UNL     1      10.084   5.499   7.552  0.00  0.00    +0.140 A 
ATOM     27  C   UNL     1       9.404   6.219   8.515  0.00  0.00    +0.050 A 
ATOM     29  C   UNL     1       8.975   5.285   9.487  0.00  0.00    +0.042 A 
ATOM     30  C   UNL     1       9.420   4.055   9.058  0.00  0.00    +0.196 A 
ENDBRANCH  19  22
BRANCH   7   1
ATOM      1  S   UNL     1      13.653   3.700   1.430  0.00  0.00    +0.061 S 
ATOM      2  O   UNL     1      12.840   2.571   1.829  0.00  0.00    -0.153 OA
ATOM      3  O   UNL     1      15.024   3.825   1.879  0.00  0.00    -0.153 OA
BRANCH   1  21
ATOM     21  C   UNL     1      13.651   3.769  -0.334  0.00  0.00    +0.106 A 
ATOM     23  C   UNL     1      12.663   3.101  -1.038  0.00  0.00    +0.030 A 
ATOM     24  C   UNL     1      14.639   4.490  -0.984  0.00  0.00    +0.030 A 
ATOM     25  C   UNL     1      12.662   3.156  -2.432  0.00  0.00    +0.025 A 
ATOM     26  C   UNL     1      14.638   4.545  -2.378  0.00  0.00    +0.025 A 
ATOM     28  C   UNL     1      13.650   3.878  -3.102  0.00  0.00    +0.033 A 
BRANCH  28   9
ATOM      6  O   UNL     1      11.735   5.217  -5.002  0.00  0.00    -0.276 OA
ATOM      9  N   UNL     1      13.648   3.935  -4.496  0.00  0.00    -0.286 N 
ATOM     31  C   UNL     1      12.726   4.574  -5.334  0.00  0.00    +0.214 C 
ATOM     32  C   UNL     1      13.079   4.398  -6.790  0.00  0.00    +0.109 C 
ATOM     33  H   UNL     1      14.416   3.446  -4.951  0.00  0.00    +0.155 HD
ENDBRANCH  28   9
ENDBRANCH   1  21
ENDBRANCH   7   1
TORSDOF 4
ENDMDL
MODEL 6
REMARK VINA RESULT:      -6.3     28.334     30.972
REMARK  Name = 7143816
REMARK  5 active torsions:
REMARK  status: ('A' for Active; 'I' for Inactive)
REMARK    1  A    between atoms: S_1  and  N_7
REMARK    2  A    between atoms: S_1  and  C_21
REMARK    3  A    between atoms: N_9  and  C_28
REMARK    4  A    between atoms: C_19  and  C_22
REMARK    5  A    between atoms: C_31  and  C_32
REMARK                            x       y       z     vdW  Elec       q    Type
REMARK                         _______ _______ _______ _____ _____    ______ ____
ROOT
ATOM      4  O   UNL     1      -7.864  -8.932  17.036  0.00  0.00    -0.267 OA
ATOM      7  N   UNL     1      -3.934 -11.759  15.849  0.00  0.00    -0.176 NA
ATOM      8  N   UNL     1      -6.758 -10.985  17.035  0.00  0.00    -0.311 N 
ATOM     10  C   UNL     1      -4.528 -11.352  18.240  0.00  0.00    +0.025 C 
ATOM     11  C   UNL     1      -5.577 -13.210  17.023  0.00  0.00    +0.052 C 
ATOM     12  C   UNL     1      -4.999 -12.795  18.373  0.00  0.00    +0.017 C 
ATOM     13  C   UNL     1      -3.443 -11.236  17.156  0.00  0.00    +0.114 C 
ATOM     14  C   UNL     1      -4.475 -13.148  15.950  0.00  0.00    +0.119 C 
ATOM     15  C   UNL     1      -5.740 -10.457  17.954  0.00  0.00    +0.130 C 
ATOM     16  C   UNL     1      -6.744 -12.323  16.633  0.00  0.00    +0.026 A 
ATOM     17  C   UNL     1      -7.748 -12.812  15.887  0.00  0.00    +0.022 A 
ATOM     18  C   UNL     1      -7.798 -10.107  16.672  0.00  0.00    +0.262 A 
ATOM     19  C   UNL     1      -8.890 -10.675  15.806  0.00  0.00    +0.082 A 
ATOM     20  C   UNL     1      -8.832 -11.971  15.464  0.00  0.00    +0.018 A 
ENDROOT
BRANCH  19  22
ATOM      5  O   UNL     1     -11.057  -9.493  16.124  0.00  0.00    -0.463 OA
ATOM     22  C   UNL     1     -10.002  -9.833  15.329  0.00  0.00    +0.140 A 
ATOM     27  C   UNL     1     -10.159  -9.275  14.074  0.00  0.00    +0.050 A 
ATOM     29  C   UNL     1     -11.377  -8.555  14.106  0.00  0.00    +0.042 A 
ATOM     30  C   UNL     1     -11.885  -8.718  15.374  0.00  0.00    +0.196 A 
ENDBRANCH  19  22
BRANCH   7   1
ATOM      1  S   UNL     1      -2.921 -11.456  14.504  0.00  0.00    +0.061 S 
ATOM      2  O   UNL     1      -2.565 -12.716  13.886  0.00  0.00    -0.153 OA
ATOM      3  O   UNL     1      -1.902 -10.501  14.887  0.00  0.00    -0.153 OA
BRANCH   1  21
ATOM     21  C   UNL     1      -4.061 -10.635  13.436  0.00  0.00    +0.106 A 
ATOM     23  C   UNL     1      -3.672 -10.316  12.146  0.00  0.00    +0.030 A 
ATOM     24  C   UNL     1      -5.326 -10.323  13.908  0.00  0.00    +0.030 A 
ATOM     25  C   UNL     1      -4.574  -9.668  11.301  0.00  0.00    +0.025 A 
ATOM     26  C   UNL     1      -6.227  -9.674  13.063  0.00  0.00    +0.025 A 
ATOM     28  C   UNL     1      -5.851  -9.346  11.760  0.00  0.00    +0.033 A 
BRANCH  28   9
ATOM      6  O   UNL     1      -7.638 -10.443   9.599  0.00  0.00    -0.276 OA
ATOM      9  N   UNL     1      -6.754  -8.699  10.916  0.00  0.00    -0.286 N 
ATOM     31  C   UNL     1      -7.563  -9.261   9.920  0.00  0.00    +0.214 C 
ATOM     32  C   UNL     1      -8.401  -8.217   9.226  0.00  0.00    +0.109 C 
ATOM     33  H   UNL     1      -6.824  -7.692  11.047  0.00  0.00    +0.155 HD
ENDBRANCH  28   9
ENDBRANCH   1  21
ENDBRANCH   7   1
TORSDOF 4
ENDMDL
MODEL 7
REMARK VINA RESULT:      -6.2     22.149     24.520
REMARK  Name = 7143816
REMARK  5 active torsions:
REMARK  status: ('A' for Active; 'I' for Inactive)
REMARK    1  A    between atoms: S_1  and  N_7
REMARK    2  A    between atoms: S_1  and  C_21
REMARK    3  A    between atoms: N_9  and  C_28
REMARK    4  A    between atoms: C_19  and  C_22
REMARK    5  A    between atoms: C_31  and  C_32
REMARK                            x       y       z     vdW  Elec       q    Type
REMARK                         _______ _______ _______ _____ _____    ______ ____
ROOT
ATOM      4  O   UNL     1       9.390  -9.430  32.889  0.00  0.00    -0.267 OA
ATOM      7  N   UNL     1       8.367  -5.917  36.274  0.00  0.00    -0.176 NA
ATOM      8  N   UNL     1       8.714  -7.267  33.439  0.00  0.00    -0.311 N 
ATOM     10  C   UNL     1      10.243  -5.610  34.655  0.00  0.00    +0.025 C 
ATOM     11  C   UNL     1       7.967  -4.934  34.025  0.00  0.00    +0.052 C 
ATOM     12  C   UNL     1       9.439  -4.546  33.919  0.00  0.00    +0.017 C 
ATOM     13  C   UNL     1       9.831  -5.671  36.135  0.00  0.00    +0.114 C 
ATOM     14  C   UNL     1       7.542  -4.938  35.504  0.00  0.00    +0.119 C 
ATOM     15  C   UNL     1      10.060  -6.955  33.940  0.00  0.00    +0.130 C 
ATOM     16  C   UNL     1       7.714  -6.293  33.400  0.00  0.00    +0.026 A 
ATOM     17  C   UNL     1       6.529  -6.567  32.831  0.00  0.00    +0.022 A 
ATOM     18  C   UNL     1       8.521  -8.557  32.906  0.00  0.00    +0.262 A 
ATOM     19  C   UNL     1       7.171  -8.846  32.307  0.00  0.00    +0.082 A 
ATOM     20  C   UNL     1       6.255  -7.866  32.283  0.00  0.00    +0.018 A 
ENDROOT
BRANCH  19  22
ATOM      5  O   UNL     1       6.541 -11.240  32.560  0.00  0.00    -0.463 OA
ATOM     22  C   UNL     1       6.846 -10.176  31.763  0.00  0.00    +0.140 A 
ATOM     27  C   UNL     1       6.794 -10.554  30.434  0.00  0.00    +0.050 A 
ATOM     29  C   UNL     1       6.438 -11.923  30.421  0.00  0.00    +0.042 A 
ATOM     30  C   UNL     1       6.295 -12.295  31.738  0.00  0.00    +0.196 A 
ENDBRANCH  19  22
BRANCH   7   1
ATOM      1  S   UNL     1       7.822  -6.259  37.859  0.00  0.00    +0.061 S 
ATOM      2  O   UNL     1       7.321  -5.042  38.461  0.00  0.00    -0.153 OA
ATOM      3  O   UNL     1       8.814  -7.070  38.534  0.00  0.00    -0.153 OA
BRANCH   1  21
ATOM     21  C   UNL     1       6.435  -7.290  37.495  0.00  0.00    +0.106 A 
ATOM     23  C   UNL     1       6.513  -8.181  36.437  0.00  0.00    +0.030 A 
ATOM     24  C   UNL     1       5.294  -7.189  38.273  0.00  0.00    +0.030 A 
ATOM     25  C   UNL     1       5.417  -8.996  36.151  0.00  0.00    +0.025 A 
ATOM     26  C   UNL     1       4.199  -8.004  37.986  0.00  0.00    +0.025 A 
ATOM     28  C   UNL     1       4.260  -8.907  36.925  0.00  0.00    +0.033 A 
BRANCH  28   9
ATOM      6  O   UNL     1       3.474 -11.590  38.044  0.00  0.00    -0.276 OA
ATOM      9  N   UNL     1       3.165  -9.723  36.638  0.00  0.00    -0.286 N 
ATOM     31  C   UNL     1       2.847 -10.970  37.191  0.00  0.00    +0.214 C 
ATOM     32  C   UNL     1       1.573 -11.530  36.611  0.00  0.00    +0.109 C 
ATOM     33  H   UNL     1       2.524  -9.357  35.938  0.00  0.00    +0.155 HD
ENDBRANCH  28   9
ENDBRANCH   1  21
ENDBRANCH   7   1
TORSDOF 4
ENDMDL
MODEL 8
REMARK VINA RESULT:      -6.2      3.294      6.219
REMARK  Name = 7143816
REMARK  5 active torsions:
REMARK  status: ('A' for Active; 'I' for Inactive)
REMARK    1  A    between atoms: S_1  and  N_7
REMARK    2  A    between atoms: S_1  and  C_21
REMARK    3  A    between atoms: N_9  and  C_28
REMARK    4  A    between atoms: C_19  and  C_22
REMARK    5  A    between atoms: C_31  and  C_32
REMARK                            x       y       z     vdW  Elec       q    Type
REMARK                         _______ _______ _______ _____ _____    ______ ____
ROOT
ATOM      4  O   UNL     1      11.862  13.617  20.051  0.00  0.00    -0.267 OA
ATOM      7  N   UNL     1      14.477  11.828  16.203  0.00  0.00    -0.176 NA
ATOM      8  N   UNL     1      13.895  13.217  18.980  0.00  0.00    -0.311 N 
ATOM     10  C   UNL     1      14.497  14.270  16.725  0.00  0.00    +0.025 C 
ATOM     11  C   UNL     1      16.095  12.773  17.838  0.00  0.00    +0.052 C 
ATOM     12  C   UNL     1      15.935  14.158  17.216  0.00  0.00    +0.017 C 
ATOM     13  C   UNL     1      14.201  13.192  15.668  0.00  0.00    +0.114 C 
ATOM     14  C   UNL     1      15.855  11.696  16.765  0.00  0.00    +0.119 C 
ATOM     15  C   UNL     1      13.552  14.185  17.929  0.00  0.00    +0.130 C 
ATOM     16  C   UNL     1      15.139  12.583  19.000  0.00  0.00    +0.026 A 
ATOM     17  C   UNL     1      15.476  11.792  20.032  0.00  0.00    +0.022 A 
ATOM     18  C   UNL     1      12.954  13.047  20.015  0.00  0.00    +0.262 A 
ATOM     19  C   UNL     1      13.345  12.127  21.140  0.00  0.00    +0.082 A 
ATOM     20  C   UNL     1      14.561  11.559  21.113  0.00  0.00    +0.018 A 
ENDROOT
BRANCH  19  22
ATOM      5  O   UNL     1      12.530  12.441  23.470  0.00  0.00    -0.463 OA
ATOM     22  C   UNL     1      12.420  11.841  22.250  0.00  0.00    +0.140 A 
ATOM     27  C   UNL     1      11.343  10.973  22.249  0.00  0.00    +0.050 A 
ATOM     29  C   UNL     1      10.767  11.048  23.539  0.00  0.00    +0.042 A 
ATOM     30  C   UNL     1      11.525  11.954  24.245  0.00  0.00    +0.196 A 
ENDBRANCH  19  22
BRANCH   7   1
ATOM      1  S   UNL     1      13.951  10.529  15.223  0.00  0.00    +0.061 S 
ATOM      2  O   UNL     1      15.101   9.909  14.600  0.00  0.00    -0.153 OA
ATOM      3  O   UNL     1      12.821  10.965  14.429  0.00  0.00    -0.153 OA
BRANCH   1  21
ATOM     21  C   UNL     1      13.350   9.427  16.464  0.00  0.00    +0.106 A 
ATOM     23  C   UNL     1      14.254   8.752  17.267  0.00  0.00    +0.030 A 
ATOM     24  C   UNL     1      11.983   9.256  16.612  0.00  0.00    +0.030 A 
ATOM     25  C   UNL     1      13.778   7.882  18.249  0.00  0.00    +0.025 A 
ATOM     26  C   UNL     1      11.508   8.386  17.594  0.00  0.00    +0.025 A 
ATOM     28  C   UNL     1      12.405   7.699  18.411  0.00  0.00    +0.033 A 
BRANCH  28   9
ATOM      6  O   UNL     1      12.377   7.965  21.411  0.00  0.00    -0.276 OA
ATOM      9  N   UNL     1      11.929   6.829  19.394  0.00  0.00    -0.286 N 
ATOM     31  C   UNL     1      11.943   7.004  20.784  0.00  0.00    +0.214 C 
ATOM     32  C   UNL     1      11.332   5.827  21.501  0.00  0.00    +0.109 C 
ATOM     33  H   UNL     1      11.524   5.963  19.046  0.00  0.00    +0.155 HD
ENDBRANCH  28   9
ENDBRANCH   1  21
ENDBRANCH   7   1
TORSDOF 4
ENDMDL
MODEL 9
REMARK VINA RESULT:      -6.2     28.037     30.169
REMARK  Name = 7143816
REMARK  5 active torsions:
REMARK  status: ('A' for Active; 'I' for Inactive)
REMARK    1  A    between atoms: S_1  and  N_7
REMARK    2  A    between atoms: S_1  and  C_21
REMARK    3  A    between atoms: N_9  and  C_28
REMARK    4  A    between atoms: C_19  and  C_22
REMARK    5  A    between atoms: C_31  and  C_32
REMARK                            x       y       z     vdW  Elec       q    Type
REMARK                         _______ _______ _______ _____ _____    ______ ____
ROOT
ATOM      4  O   UNL     1      -3.482  -9.996  16.632  0.00  0.00    -0.267 OA
ATOM      7  N   UNL     1      -4.469 -10.756  11.806  0.00  0.00    -0.176 NA
ATOM      8  N   UNL     1      -3.523 -11.378  14.754  0.00  0.00    -0.311 N 
ATOM     10  C   UNL     1      -2.128 -10.904  12.660  0.00  0.00    +0.025 C 
ATOM     11  C   UNL     1      -3.580 -12.883  12.736  0.00  0.00    +0.052 C 
ATOM     12  C   UNL     1      -2.151 -12.416  12.474  0.00  0.00    +0.017 C 
ATOM     13  C   UNL     1      -3.084 -10.223  11.667  0.00  0.00    +0.114 C 
ATOM     14  C   UNL     1      -4.528 -12.245  11.704  0.00  0.00    +0.119 C 
ATOM     15  C   UNL     1      -2.468 -10.577  14.119  0.00  0.00    +0.130 C 
ATOM     16  C   UNL     1      -4.020 -12.533  14.144  0.00  0.00    +0.026 A 
ATOM     17  C   UNL     1      -4.898 -13.313  14.794  0.00  0.00    +0.022 A 
ATOM     18  C   UNL     1      -3.924 -10.985  16.047  0.00  0.00    +0.262 A 
ATOM     19  C   UNL     1      -4.936 -11.860  16.735  0.00  0.00    +0.082 A 
ATOM     20  C   UNL     1      -5.365 -12.965  16.107  0.00  0.00    +0.018 A 
ENDROOT
BRANCH  19  22
ATOM      5  O   UNL     1      -6.631 -10.842  18.247  0.00  0.00    -0.463 OA
ATOM     22  C   UNL     1      -5.460 -11.518  18.070  0.00  0.00    +0.140 A 
ATOM     27  C   UNL     1      -4.893 -11.805  19.297  0.00  0.00    +0.050 A 
ATOM     29  C   UNL     1      -5.766 -11.275  20.276  0.00  0.00    +0.042 A 
ATOM     30  C   UNL     1      -6.809 -10.700  19.587  0.00  0.00    +0.196 A 
ENDBRANCH  19  22
BRANCH   7   1
ATOM      1  S   UNL     1      -5.678  -9.908  10.941  0.00  0.00    +0.061 S 
ATOM      2  O   UNL     1      -6.147 -10.734   9.849  0.00  0.00    -0.153 OA
ATOM      3  O   UNL     1      -5.227  -8.552  10.708  0.00  0.00    -0.153 OA
BRANCH   1  21
ATOM     21  C   UNL     1      -6.953  -9.854  12.162  0.00  0.00    +0.106 A 
ATOM     23  C   UNL     1      -8.271  -9.723  11.760  0.00  0.00    +0.030 A 
ATOM     24  C   UNL     1      -6.611  -9.944  13.501  0.00  0.00    +0.030 A 
ATOM     25  C   UNL     1      -9.278  -9.682  12.725  0.00  0.00    +0.025 A 
ATOM     26  C   UNL     1      -7.618  -9.902  14.466  0.00  0.00    +0.025 A 
ATOM     28  C   UNL     1      -8.951  -9.771  14.078  0.00  0.00    +0.033 A 
BRANCH  28   9
ATOM      6  O   UNL     1      -9.873  -7.516  15.848  0.00  0.00    -0.276 OA
ATOM      9  N   UNL     1      -9.958  -9.731  15.043  0.00  0.00    -0.286 N 
ATOM     31  C   UNL     1     -10.346  -8.648  15.843  0.00  0.00    +0.214 C 
ATOM     32  C   UNL     1     -11.482  -9.015  16.766  0.00  0.00    +0.109 C 
ATOM     33  H   UNL     1     -10.468 -10.602  15.174  0.00  0.00    +0.155 HD
ENDBRANCH  28   9
ENDBRANCH   1  21
ENDBRANCH   7   1
TORSDOF 4
ENDMDL
MODEL 10
REMARK VINA RESULT:      -6.1     22.968     24.909
REMARK  Name = 7143816
REMARK  5 active torsions:
REMARK  status: ('A' for Active; 'I' for Inactive)
REMARK    1  A    between atoms: S_1  and  N_7
REMARK    2  A    between atoms: S_1  and  C_21
REMARK    3  A    between atoms: N_9  and  C_28
REMARK    4  A    between atoms: C_19  and  C_22
REMARK    5  A    between atoms: C_31  and  C_32
REMARK                            x       y       z     vdW  Elec       q    Type
REMARK                         _______ _______ _______ _____ _____    ______ ____
ROOT
ATOM      4  O   UNL     1       6.741  -8.067  31.053  0.00  0.00    -0.267 OA
ATOM      7  N   UNL     1       5.962 -12.890  32.042  0.00  0.00    -0.176 NA
ATOM      8  N   UNL     1       7.536 -10.239  31.353  0.00  0.00    -0.311 N 
ATOM     10  C   UNL     1       6.861 -12.180  29.824  0.00  0.00    +0.025 C 
ATOM     11  C   UNL     1       8.404 -12.579  31.693  0.00  0.00    +0.052 C 
ATOM     12  C   UNL     1       8.223 -12.754  30.187  0.00  0.00    +0.017 C 
ATOM     13  C   UNL     1       5.742 -12.928  30.568  0.00  0.00    +0.114 C 
ATOM     14  C   UNL     1       7.318 -13.376  32.437  0.00  0.00    +0.119 C 
ATOM     15  C   UNL     1       6.859 -10.676  30.124  0.00  0.00    +0.130 C 
ATOM     16  C   UNL     1       8.344 -11.114  32.083  0.00  0.00    +0.026 A 
ATOM     17  C   UNL     1       9.045 -10.664  33.136  0.00  0.00    +0.022 A 
ATOM     18  C   UNL     1       7.414  -8.877  31.692  0.00  0.00    +0.262 A 
ATOM     19  C   UNL     1       8.184  -8.410  32.898  0.00  0.00    +0.082 A 
ATOM     20  C   UNL     1       8.957  -9.292  33.550  0.00  0.00    +0.018 A 
ENDROOT
BRANCH  19  22
ATOM      5  O   UNL     1       6.935  -6.297  33.314  0.00  0.00    -0.463 OA
ATOM     22  C   UNL     1       8.093  -7.016  33.369  0.00  0.00    +0.140 A 
ATOM     27  C   UNL     1       9.100  -6.244  33.917  0.00  0.00    +0.050 A 
ATOM     29  C   UNL     1       8.524  -4.985  34.211  0.00  0.00    +0.042 A 
ATOM     30  C   UNL     1       7.206  -5.068  33.826  0.00  0.00    +0.196 A 
ENDBRANCH  19  22
BRANCH   7   1
ATOM      1  S   UNL     1       4.664 -13.463  32.998  0.00  0.00    +0.061 S 
ATOM      2  O   UNL     1       5.126 -14.566  33.813  0.00  0.00    -0.153 OA
ATOM      3  O   UNL     1       3.487 -13.596  32.165  0.00  0.00    -0.153 OA
BRANCH   1  21
ATOM     21  C   UNL     1       4.423 -12.073  34.060  0.00  0.00    +0.106 A 
ATOM     23  C   UNL     1       3.206 -11.912  34.700  0.00  0.00    +0.030 A 
ATOM     24  C   UNL     1       5.456 -11.167  34.233  0.00  0.00    +0.030 A 
ATOM     25  C   UNL     1       3.016 -10.814  35.540  0.00  0.00    +0.025 A 
ATOM     26  C   UNL     1       5.266 -10.069  35.072  0.00  0.00    +0.025 A 
ATOM     28  C   UNL     1       4.047  -9.892  35.726  0.00  0.00    +0.033 A 
BRANCH  28   9
ATOM      6  O   UNL     1       3.908  -9.730  38.729  0.00  0.00    -0.276 OA
ATOM      9  N   UNL     1       3.857  -8.794  36.566  0.00  0.00    -0.286 N 
ATOM     31  C   UNL     1       3.799  -8.777  37.965  0.00  0.00    +0.214 C 
ATOM     32  C   UNL     1       3.579  -7.383  38.498  0.00  0.00    +0.109 C 
ATOM     33  H   UNL     1       3.748  -7.900  36.093  0.00  0.00    +0.155 HD
ENDBRANCH  28   9
ENDBRANCH   1  21
ENDBRANCH   7   1
TORSDOF 4
ENDMDL
