MODEL 1
REMARK VINA RESULT:      -7.1      0.000      0.000
REMARK  Name = 38028970
REMARK  9 active torsions:
REMARK  status: ('A' for Active; 'I' for Inactive)
REMARK    1  A    between atoms: N_4  and  C_17
REMARK    2  A    between atoms: C_9  and  C_13
REMARK    3  A    between atoms: C_10  and  C_17
REMARK    4  A    between atoms: C_12  and  C_16
REMARK    5  A    between atoms: C_13  and  C_18
REMARK    6  A    between atoms: C_13  and  C_19
REMARK    7  A    between atoms: C_14  and  C_20
REMARK    8  A    between atoms: C_16  and  C_21
REMARK    9  A    between atoms: C_26  and  C_28
REMARK                            x       y       z     vdW  Elec       q    Type
REMARK                         _______ _______ _______ _____ _____    ______ ____
ROOT
ATOM      9  C   UNL     1      12.941   9.951  20.585  0.00  0.00    +0.000 C 
ATOM     10  C   UNL     1      12.006   8.826  20.074  0.00  0.00    +0.032 C 
ATOM     11  C   UNL     1      12.887  11.162  19.641  0.00  0.00    +0.012 C 
ATOM     12  C   UNL     1      13.301  10.798  18.203  0.00  0.00    +0.023 C 
ATOM     14  C   UNL     1      12.617   9.535  17.721  0.00  0.00    -0.073 C 
ATOM     15  C   UNL     1      12.032   8.672  18.572  0.00  0.00    -0.022 C 
ATOM     20  C   UNL     1      12.580   9.309  16.236  0.00  0.00    +0.039 C 
ENDROOT
BRANCH   9  13
ATOM     13  C   UNL     1      12.582  10.386  22.009  0.00  0.00    -0.013 C 
ATOM     18  C   UNL     1      13.808  10.951  22.718  0.00  0.00    +0.007 C 
ATOM     19  C   UNL     1      11.451  11.411  21.983  0.00  0.00    +0.007 C 
ENDBRANCH   9  13
BRANCH  12  16
ATOM     16  C   UNL     1      14.824  10.678  18.081  0.00  0.00    +0.103 C 
BRANCH  16  21
ATOM      1  O   UNL     1      15.601  12.887  18.474  0.00  0.00    -0.276 OA
ATOM      3  N   UNL     1      15.700  12.122  16.282  0.00  0.00    -0.298 N 
ATOM      5  N   UNL     1      16.539  12.411  13.527  0.00  0.00    -0.312 N 
ATOM      6  N   UNL     1      16.069  12.405  11.213  0.00  0.00    -0.240 NA
ATOM     21  C   UNL     1      15.410  11.998  17.641  0.00  0.00    +0.216 C 
ATOM     22  C   UNL     1      16.266  13.371  15.778  0.00  0.00    +0.126 C 
ATOM     23  C   UNL     1      15.484  11.061  15.297  0.00  0.00    +0.126 C 
ATOM     24  C   UNL     1      17.217  13.135  14.607  0.00  0.00    +0.125 C 
ATOM     25  C   UNL     1      15.374  11.593  13.868  0.00  0.00    +0.125 C 
ATOM     27  C   UNL     1      16.974  12.532  12.210  0.00  0.00    +0.121 A 
ATOM     29  C   UNL     1      18.322  12.775  12.006  0.00  0.00    +0.043 A 
ATOM     31  C   UNL     1      18.771  12.897  10.696  0.00  0.00    +0.005 A 
ATOM     32  C   UNL     1      16.541  12.529   9.953  0.00  0.00    +0.113 A 
ATOM     33  C   UNL     1      17.870  12.773   9.644  0.00  0.00    +0.020 A 
ENDBRANCH  16  21
ENDBRANCH  12  16
BRANCH  10  17
ATOM     17  C   UNL     1      12.347   7.483  20.731  0.00  0.00    +0.112 C 
BRANCH  17   4
ATOM      2  O   UNL     1      14.779   7.552  22.256  0.00  0.00    -0.268 OA
ATOM      4  N   UNL     1      13.634   7.024  20.308  0.00  0.00    -0.309 N 
ATOM     26  C   UNL     1      14.767   7.095  21.116  0.00  0.00    +0.264 C 
ATOM     36  H   UNL     1      13.717   6.591  19.393  0.00  0.00    +0.149 HD
BRANCH  26  28
ATOM      7  N   UNL     1      15.970   6.148  19.253  0.00  0.00    -0.247 NA
ATOM      8  N   UNL     1      18.369   6.153  20.706  0.00  0.00    -0.259 NA
ATOM     28  C   UNL     1      16.035   6.599  20.521  0.00  0.00    +0.143 A 
ATOM     30  C   UNL     1      17.214   6.602  21.235  0.00  0.00    +0.143 A 
ATOM     34  C   UNL     1      17.126   5.699  18.724  0.00  0.00    +0.131 A 
ATOM     35  C   UNL     1      18.305   5.702  19.438  0.00  0.00    +0.130 A 
ENDBRANCH  26  28
ENDBRANCH  17   4
ENDBRANCH  10  17
TORSDOF 6
ENDMDL
MODEL 2
REMARK VINA RESULT:      -6.9     27.575     30.449
REMARK  Name = 38028970
REMARK  9 active torsions:
REMARK  status: ('A' for Active; 'I' for Inactive)
REMARK    1  A    between atoms: N_4  and  C_17
REMARK    2  A    between atoms: C_9  and  C_13
REMARK    3  A    between atoms: C_10  and  C_17
REMARK    4  A    between atoms: C_12  and  C_16
REMARK    5  A    between atoms: C_13  and  C_18
REMARK    6  A    between atoms: C_13  and  C_19
REMARK    7  A    between atoms: C_14  and  C_20
REMARK    8  A    between atoms: C_16  and  C_21
REMARK    9  A    between atoms: C_26  and  C_28
REMARK                            x       y       z     vdW  Elec       q    Type
REMARK                         _______ _______ _______ _____ _____    ______ ____
ROOT
ATOM      9  C   UNL     1      -2.888 -12.471  12.538  0.00  0.00    +0.000 C 
ATOM     10  C   UNL     1      -1.946 -11.241  12.510  0.00  0.00    +0.032 C 
ATOM     11  C   UNL     1      -3.350 -12.825  11.116  0.00  0.00    +0.012 C 
ATOM     12  C   UNL     1      -4.091 -11.657  10.437  0.00  0.00    +0.023 C 
ATOM     14  C   UNL     1      -3.347 -10.347  10.600  0.00  0.00    -0.073 C 
ATOM     15  C   UNL     1      -2.383 -10.184  11.523  0.00  0.00    -0.022 C 
ATOM     20  C   UNL     1      -3.706  -9.242   9.647  0.00  0.00    +0.039 C 
ENDROOT
BRANCH   9  13
ATOM     13  C   UNL     1      -2.217 -13.687  13.184  0.00  0.00    -0.013 C 
ATOM     18  C   UNL     1      -2.943 -14.076  14.467  0.00  0.00    +0.007 C 
ATOM     19  C   UNL     1      -2.183 -14.858  12.205  0.00  0.00    +0.007 C 
ENDBRANCH   9  13
BRANCH  12  16
ATOM     16  C   UNL     1      -5.528 -11.541  10.954  0.00  0.00    +0.103 C 
BRANCH  16  21
ATOM      1  O   UNL     1      -6.540 -12.682   9.133  0.00  0.00    -0.276 OA
ATOM      3  N   UNL     1      -7.303 -10.531   9.568  0.00  0.00    -0.298 N 
ATOM      5  N   UNL     1      -9.166  -8.360   9.128  0.00  0.00    -0.312 N 
ATOM      6  N   UNL     1      -9.620  -6.089   8.664  0.00  0.00    -0.240 NA
ATOM     21  C   UNL     1      -6.499 -11.647   9.803  0.00  0.00    +0.216 C 
ATOM     22  C   UNL     1      -8.265 -10.555   8.469  0.00  0.00    +0.126 C 
ATOM     23  C   UNL     1      -7.261  -9.307  10.370  0.00  0.00    +0.126 C 
ATOM     24  C   UNL     1      -9.517  -9.743   8.789  0.00  0.00    +0.125 C 
ATOM     25  C   UNL     1      -7.816  -8.092   9.626  0.00  0.00    +0.125 C 
ATOM     27  C   UNL     1     -10.084  -7.329   8.944  0.00  0.00    +0.121 A 
ATOM     29  C   UNL     1     -11.427  -7.645   9.062  0.00  0.00    +0.043 A 
ATOM     31  C   UNL     1     -12.354  -6.626   8.881  0.00  0.00    +0.005 A 
ATOM     32  C   UNL     1     -10.551  -5.124   8.496  0.00  0.00    +0.113 A 
ATOM     33  C   UNL     1     -11.916  -5.338   8.593  0.00  0.00    +0.020 A 
ENDBRANCH  16  21
ENDBRANCH  12  16
BRANCH  10  17
ATOM     17  C   UNL     1      -1.812 -10.615  13.903  0.00  0.00    +0.112 C 
BRANCH  17   4
ATOM      2  O   UNL     1      -2.513 -10.996  16.661  0.00  0.00    -0.268 OA
ATOM      4  N   UNL     1      -3.099 -10.411  14.493  0.00  0.00    -0.309 N 
ATOM     26  C   UNL     1      -3.353 -10.621  15.847  0.00  0.00    +0.264 C 
ATOM     36  H   UNL     1      -3.851 -10.060  13.907  0.00  0.00    +0.149 HD
BRANCH  26  28
ATOM      7  N   UNL     1      -5.645 -10.061  15.350  0.00  0.00    -0.247 NA
ATOM      8  N   UNL     1      -6.364 -10.293  18.051  0.00  0.00    -0.259 NA
ATOM     28  C   UNL     1      -4.748 -10.389  16.301  0.00  0.00    +0.143 A 
ATOM     30  C   UNL     1      -5.102 -10.503  17.628  0.00  0.00    +0.143 A 
ATOM     34  C   UNL     1      -6.908  -9.851  15.773  0.00  0.00    +0.131 A 
ATOM     35  C   UNL     1      -7.261  -9.965  17.100  0.00  0.00    +0.130 A 
ENDBRANCH  26  28
ENDBRANCH  17   4
ENDBRANCH  10  17
TORSDOF 6
ENDMDL
MODEL 3
REMARK VINA RESULT:      -6.9     28.210     30.672
REMARK  Name = 38028970
REMARK  9 active torsions:
REMARK  status: ('A' for Active; 'I' for Inactive)
REMARK    1  A    between atoms: N_4  and  C_17
REMARK    2  A    between atoms: C_9  and  C_13
REMARK    3  A    between atoms: C_10  and  C_17
REMARK    4  A    between atoms: C_12  and  C_16
REMARK    5  A    between atoms: C_13  and  C_18
REMARK    6  A    between atoms: C_13  and  C_19
REMARK    7  A    between atoms: C_14  and  C_20
REMARK    8  A    between atoms: C_16  and  C_21
REMARK    9  A    between atoms: C_26  and  C_28
REMARK                            x       y       z     vdW  Elec       q    Type
REMARK                         _______ _______ _______ _____ _____    ______ ____
ROOT
ATOM      9  C   UNL     1      -7.512 -11.710  17.120  0.00  0.00    +0.000 C 
ATOM     10  C   UNL     1      -7.565 -11.998  18.641  0.00  0.00    +0.032 C 
ATOM     11  C   UNL     1      -6.311 -12.422  16.480  0.00  0.00    +0.012 C 
ATOM     12  C   UNL     1      -4.973 -11.984  17.106  0.00  0.00    +0.023 C 
ATOM     14  C   UNL     1      -5.033 -11.986  18.620  0.00  0.00    -0.073 C 
ATOM     15  C   UNL     1      -6.200 -12.005  19.289  0.00  0.00    -0.022 C 
ATOM     20  C   UNL     1      -3.719 -12.010  19.349  0.00  0.00    +0.039 C 
ENDROOT
BRANCH   9  13
ATOM     13  C   UNL     1      -8.804 -12.136  16.415  0.00  0.00    -0.013 C 
ATOM     18  C   UNL     1      -8.861 -11.552  15.008  0.00  0.00    +0.007 C 
ATOM     19  C   UNL     1      -8.910 -13.658  16.374  0.00  0.00    +0.007 C 
ENDBRANCH   9  13
BRANCH  12  16
ATOM     16  C   UNL     1      -4.538 -10.614  16.575  0.00  0.00    +0.103 C 
BRANCH  16  21
ATOM      1  O   UNL     1      -2.240 -10.964  16.089  0.00  0.00    -0.276 OA
ATOM      3  N   UNL     1      -3.661 -10.694  14.271  0.00  0.00    -0.298 N 
ATOM      5  N   UNL     1      -4.181 -10.758  11.424  0.00  0.00    -0.312 N 
ATOM      6  N   UNL     1      -5.007  -9.754   9.452  0.00  0.00    -0.240 NA
ATOM     21  C   UNL     1      -3.370 -10.776  15.633  0.00  0.00    +0.216 C 
ATOM     22  C   UNL     1      -2.582 -10.836  13.295  0.00  0.00    +0.126 C 
ATOM     23  C   UNL     1      -5.004 -10.481  13.729  0.00  0.00    +0.126 C 
ATOM     24  C   UNL     1      -3.062 -11.503  12.008  0.00  0.00    +0.125 C 
ATOM     25  C   UNL     1      -4.988  -9.916  12.309  0.00  0.00    +0.125 C 
ATOM     27  C   UNL     1      -4.443 -10.824  10.058  0.00  0.00    +0.121 A 
ATOM     29  C   UNL     1      -4.105 -11.997   9.402  0.00  0.00    +0.043 A 
ATOM     31  C   UNL     1      -4.361 -12.077   8.039  0.00  0.00    +0.005 A 
ATOM     32  C   UNL     1      -5.241  -9.869   8.126  0.00  0.00    +0.113 A 
ATOM     33  C   UNL     1      -4.940 -10.998   7.380  0.00  0.00    +0.020 A 
ENDBRANCH  16  21
ENDBRANCH  12  16
BRANCH  10  17
ATOM     17  C   UNL     1      -8.468 -10.992  19.364  0.00  0.00    +0.112 C 
BRANCH  17   4
ATOM      2  O   UNL     1     -11.169 -10.037  19.178  0.00  0.00    -0.268 OA
ATOM      4  N   UNL     1      -8.966 -10.010  18.451  0.00  0.00    -0.309 N 
ATOM     26  C   UNL     1     -10.299  -9.603  18.429  0.00  0.00    +0.264 C 
ATOM     36  H   UNL     1      -8.311  -9.562  17.817  0.00  0.00    +0.149 HD
BRANCH  26  28
ATOM      7  N   UNL     1     -11.977  -8.455  17.132  0.00  0.00    -0.247 NA
ATOM      8  N   UNL     1     -10.024  -6.921  15.829  0.00  0.00    -0.259 NA
ATOM     28  C   UNL     1     -10.664  -8.593  17.403  0.00  0.00    +0.143 A 
ATOM     30  C   UNL     1      -9.705  -7.839  16.763  0.00  0.00    +0.143 A 
ATOM     34  C   UNL     1     -12.297  -7.538  16.198  0.00  0.00    +0.131 A 
ATOM     35  C   UNL     1     -11.337  -6.784  15.558  0.00  0.00    +0.130 A 
ENDBRANCH  26  28
ENDBRANCH  17   4
ENDBRANCH  10  17
TORSDOF 6
ENDMDL
MODEL 4
REMARK VINA RESULT:      -6.9     28.137     31.087
REMARK  Name = 38028970
REMARK  9 active torsions:
REMARK  status: ('A' for Active; 'I' for Inactive)
REMARK    1  A    between atoms: N_4  and  C_17
REMARK    2  A    between atoms: C_9  and  C_13
REMARK    3  A    between atoms: C_10  and  C_17
REMARK    4  A    between atoms: C_12  and  C_16
REMARK    5  A    between atoms: C_13  and  C_18
REMARK    6  A    between atoms: C_13  and  C_19
REMARK    7  A    between atoms: C_14  and  C_20
REMARK    8  A    between atoms: C_16  and  C_21
REMARK    9  A    between atoms: C_26  and  C_28
REMARK                            x       y       z     vdW  Elec       q    Type
REMARK                         _______ _______ _______ _____ _____    ______ ____
ROOT
ATOM      9  C   UNL     1      -7.090 -11.203  17.027  0.00  0.00    +0.000 C 
ATOM     10  C   UNL     1      -7.187 -11.461  18.552  0.00  0.00    +0.032 C 
ATOM     11  C   UNL     1      -6.011 -12.099  16.399  0.00  0.00    +0.012 C 
ATOM     12  C   UNL     1      -4.623 -11.863  17.024  0.00  0.00    +0.023 C 
ATOM     14  C   UNL     1      -4.683 -11.837  18.538  0.00  0.00    -0.073 C 
ATOM     15  C   UNL     1      -5.841 -11.669  19.203  0.00  0.00    -0.022 C 
ATOM     20  C   UNL     1      -3.389 -12.052  19.271  0.00  0.00    +0.039 C 
ENDROOT
BRANCH   9  13
ATOM     13  C   UNL     1      -8.432 -11.436  16.324  0.00  0.00    -0.013 C 
ATOM     18  C   UNL     1      -8.260 -11.357  14.811  0.00  0.00    +0.007 C 
ATOM     19  C   UNL     1      -9.020 -12.783  16.733  0.00  0.00    +0.007 C 
ENDBRANCH   9  13
BRANCH  12  16
ATOM     16  C   UNL     1      -3.983 -10.583  16.478  0.00  0.00    +0.103 C 
BRANCH  16  21
ATOM      1  O   UNL     1      -1.760 -11.226  15.942  0.00  0.00    -0.276 OA
ATOM      3  N   UNL     1      -3.209 -10.895  14.156  0.00  0.00    -0.298 N 
ATOM      5  N   UNL     1      -3.842 -11.058  11.336  0.00  0.00    -0.312 N 
ATOM      6  N   UNL     1      -4.621 -10.078   9.333  0.00  0.00    -0.240 NA
ATOM     21  C   UNL     1      -2.878 -10.933  15.510  0.00  0.00    +0.216 C 
ATOM     22  C   UNL     1      -2.192 -11.217  13.157  0.00  0.00    +0.126 C 
ATOM     23  C   UNL     1      -4.539 -10.557  13.645  0.00  0.00    +0.126 C 
ATOM     24  C   UNL     1      -2.794 -11.895  11.928  0.00  0.00    +0.125 C 
ATOM     25  C   UNL     1      -4.513 -10.079  12.194  0.00  0.00    +0.125 C 
ATOM     27  C   UNL     1      -4.162 -11.170   9.985  0.00  0.00    +0.121 A 
ATOM     29  C   UNL     1      -3.986 -12.410   9.392  0.00  0.00    +0.043 A 
ATOM     31  C   UNL     1      -4.302 -12.537   8.044  0.00  0.00    +0.005 A 
ATOM     32  C   UNL     1      -4.918 -10.240   8.025  0.00  0.00    +0.113 A 
ATOM     33  C   UNL     1      -4.777 -11.436   7.340  0.00  0.00    +0.020 A 
ENDBRANCH  16  21
ENDBRANCH  12  16
BRANCH  10  17
ATOM     17  C   UNL     1      -7.927 -10.320  19.260  0.00  0.00    +0.112 C 
BRANCH  17   4
ATOM      2  O   UNL     1     -10.595  -9.626  18.460  0.00  0.00    -0.268 OA
ATOM      4  N   UNL     1      -9.143 -10.790  19.846  0.00  0.00    -0.309 N 
ATOM     26  C   UNL     1     -10.402 -10.401  19.394  0.00  0.00    +0.264 C 
ATOM     36  H   UNL     1      -9.087 -11.469  20.600  0.00  0.00    +0.149 HD
BRANCH  26  28
ATOM      7  N   UNL     1     -11.552 -12.284  20.366  0.00  0.00    -0.247 NA
ATOM      8  N   UNL     1     -13.676 -10.651  21.195  0.00  0.00    -0.259 NA
ATOM     28  C   UNL     1     -11.569 -10.958  20.125  0.00  0.00    +0.143 A 
ATOM     30  C   UNL     1     -12.613 -10.156  20.533  0.00  0.00    +0.143 A 
ATOM     34  C   UNL     1     -12.616 -12.780  21.028  0.00  0.00    +0.131 A 
ATOM     35  C   UNL     1     -13.660 -11.977  21.436  0.00  0.00    +0.130 A 
ENDBRANCH  26  28
ENDBRANCH  17   4
ENDBRANCH  10  17
TORSDOF 6
ENDMDL
MODEL 5
REMARK VINA RESULT:      -6.9     27.169     30.041
REMARK  Name = 38028970
REMARK  9 active torsions:
REMARK  status: ('A' for Active; 'I' for Inactive)
REMARK    1  A    between atoms: N_4  and  C_17
REMARK    2  A    between atoms: C_9  and  C_13
REMARK    3  A    between atoms: C_10  and  C_17
REMARK    4  A    between atoms: C_12  and  C_16
REMARK    5  A    between atoms: C_13  and  C_18
REMARK    6  A    between atoms: C_13  and  C_19
REMARK    7  A    between atoms: C_14  and  C_20
REMARK    8  A    between atoms: C_16  and  C_21
REMARK    9  A    between atoms: C_26  and  C_28
REMARK                            x       y       z     vdW  Elec       q    Type
REMARK                         _______ _______ _______ _____ _____    ______ ____
ROOT
ATOM      9  C   UNL     1      -4.994 -12.381  16.476  0.00  0.00    +0.000 C 
ATOM     10  C   UNL     1      -4.083 -11.875  17.622  0.00  0.00    +0.032 C 
ATOM     11  C   UNL     1      -4.148 -12.799  15.263  0.00  0.00    +0.012 C 
ATOM     12  C   UNL     1      -3.287 -11.640  14.727  0.00  0.00    +0.023 C 
ATOM     14  C   UNL     1      -2.560 -10.916  15.841  0.00  0.00    -0.073 C 
ATOM     15  C   UNL     1      -2.922 -11.043  17.131  0.00  0.00    -0.022 C 
ATOM     20  C   UNL     1      -1.378 -10.077  15.445  0.00  0.00    +0.039 C 
ENDROOT
BRANCH   9  13
ATOM     13  C   UNL     1      -5.874 -13.553  16.924  0.00  0.00    -0.013 C 
ATOM     18  C   UNL     1      -7.255 -13.456  16.286  0.00  0.00    +0.007 C 
ATOM     19  C   UNL     1      -5.208 -14.881  16.576  0.00  0.00    +0.007 C 
ENDBRANCH   9  13
BRANCH  12  16
ATOM     16  C   UNL     1      -4.129 -10.666  13.897  0.00  0.00    +0.103 C 
BRANCH  16  21
ATOM      1  O   UNL     1      -2.371 -10.884  12.315  0.00  0.00    -0.276 OA
ATOM      3  N   UNL     1      -4.350  -9.938  11.549  0.00  0.00    -0.298 N 
ATOM      5  N   UNL     1      -6.036  -8.960   9.409  0.00  0.00    -0.312 N 
ATOM      6  N   UNL     1      -7.413  -7.291   8.463  0.00  0.00    -0.240 NA
ATOM     21  C   UNL     1      -3.529 -10.512  12.520  0.00  0.00    +0.216 C 
ATOM     22  C   UNL     1      -3.839  -9.751  10.193  0.00  0.00    +0.126 C 
ATOM     23  C   UNL     1      -5.728  -9.506  11.791  0.00  0.00    +0.126 C 
ATOM     24  C   UNL     1      -4.939  -9.896   9.144  0.00  0.00    +0.125 C 
ATOM     25  C   UNL     1      -6.211  -8.469  10.778  0.00  0.00    +0.125 C 
ATOM     27  C   UNL     1      -6.862  -8.523   8.376  0.00  0.00    +0.121 A 
ATOM     29  C   UNL     1      -7.066  -9.391   7.317  0.00  0.00    +0.043 A 
ATOM     31  C   UNL     1      -7.889  -8.969   6.279  0.00  0.00    +0.005 A 
ATOM     32  C   UNL     1      -8.208  -6.916   7.436  0.00  0.00    +0.113 A 
ATOM     33  C   UNL     1      -8.475  -7.709   6.332  0.00  0.00    +0.020 A 
ENDBRANCH  16  21
ENDBRANCH  12  16
BRANCH  10  17
ATOM     17  C   UNL     1      -4.886 -11.073  18.653  0.00  0.00    +0.112 C 
BRANCH  17   4
ATOM      2  O   UNL     1      -7.553 -11.027  19.715  0.00  0.00    -0.268 OA
ATOM      4  N   UNL     1      -6.035 -10.476  18.048  0.00  0.00    -0.309 N 
ATOM     26  C   UNL     1      -7.299 -10.499  18.635  0.00  0.00    +0.264 C 
ATOM     36  H   UNL     1      -5.918  -9.978  17.170  0.00  0.00    +0.149 HD
BRANCH  26  28
ATOM      7  N   UNL     1      -9.639  -9.980  18.374  0.00  0.00    -0.247 NA
ATOM      8  N   UNL     1      -9.138  -8.589  15.991  0.00  0.00    -0.259 NA
ATOM     28  C   UNL     1      -8.396  -9.857  17.867  0.00  0.00    +0.143 A 
ATOM     30  C   UNL     1      -8.151  -9.173  16.697  0.00  0.00    +0.143 A 
ATOM     34  C   UNL     1     -10.628  -9.395  17.668  0.00  0.00    +0.131 A 
ATOM     35  C   UNL     1     -10.381  -8.711  16.497  0.00  0.00    +0.130 A 
ENDBRANCH  26  28
ENDBRANCH  17   4
ENDBRANCH  10  17
TORSDOF 6
ENDMDL
MODEL 6
REMARK VINA RESULT:      -6.7      5.914     10.080
REMARK  Name = 38028970
REMARK  9 active torsions:
REMARK  status: ('A' for Active; 'I' for Inactive)
REMARK    1  A    between atoms: N_4  and  C_17
REMARK    2  A    between atoms: C_9  and  C_13
REMARK    3  A    between atoms: C_10  and  C_17
REMARK    4  A    between atoms: C_12  and  C_16
REMARK    5  A    between atoms: C_13  and  C_18
REMARK    6  A    between atoms: C_13  and  C_19
REMARK    7  A    between atoms: C_14  and  C_20
REMARK    8  A    between atoms: C_16  and  C_21
REMARK    9  A    between atoms: C_26  and  C_28
REMARK                            x       y       z     vdW  Elec       q    Type
REMARK                         _______ _______ _______ _____ _____    ______ ____
ROOT
ATOM      9  C   UNL     1      21.864   5.219  21.814  0.00  0.00    +0.000 C 
ATOM     10  C   UNL     1      22.179   6.412  22.750  0.00  0.00    +0.032 C 
ATOM     11  C   UNL     1      21.352   5.722  20.456  0.00  0.00    +0.012 C 
ATOM     12  C   UNL     1      20.081   6.581  20.595  0.00  0.00    +0.023 C 
ATOM     14  C   UNL     1      20.219   7.617  21.692  0.00  0.00    -0.073 C 
ATOM     15  C   UNL     1      21.171   7.532  22.639  0.00  0.00    -0.022 C 
ATOM     20  C   UNL     1      19.266   8.778  21.650  0.00  0.00    +0.039 C 
ENDROOT
BRANCH   9  13
ATOM     13  C   UNL     1      23.088   4.320  21.607  0.00  0.00    -0.013 C 
ATOM     18  C   UNL     1      22.654   2.907  21.232  0.00  0.00    +0.007 C 
ATOM     19  C   UNL     1      24.004   4.907  20.537  0.00  0.00    +0.007 C 
ENDBRANCH   9  13
BRANCH  12  16
ATOM     16  C   UNL     1      18.845   5.705  20.819  0.00  0.00    +0.103 C 
BRANCH  16  21
ATOM      1  O   UNL     1      18.026   5.724  18.590  0.00  0.00    -0.276 OA
ATOM      3  N   UNL     1      16.628   6.609  20.222  0.00  0.00    -0.298 N 
ATOM      5  N   UNL     1      14.069   7.656  21.077  0.00  0.00    -0.312 N 
ATOM      6  N   UNL     1      12.767   9.311  22.148  0.00  0.00    -0.240 NA
ATOM     21  C   UNL     1      17.803   6.008  19.770  0.00  0.00    +0.216 C 
ATOM     22  C   UNL     1      15.573   6.937  19.265  0.00  0.00    +0.126 C 
ATOM     23  C   UNL     1      16.360   6.935  21.624  0.00  0.00    +0.126 C 
ATOM     24  C   UNL     1      14.183   6.812  19.884  0.00  0.00    +0.125 C 
ATOM     25  C   UNL     1      15.297   8.021  21.786  0.00  0.00    +0.125 C 
ATOM     27  C   UNL     1      12.827   8.126  21.499  0.00  0.00    +0.121 A 
ATOM     29  C   UNL     1      11.723   7.337  21.223  0.00  0.00    +0.043 A 
ATOM     31  C   UNL     1      10.477   7.792  21.638  0.00  0.00    +0.005 A 
ATOM     32  C   UNL     1      11.540   9.721  22.537  0.00  0.00    +0.113 A 
ATOM     33  C   UNL     1      10.375   9.006  22.309  0.00  0.00    +0.020 A 
ENDBRANCH  16  21
ENDBRANCH  12  16
BRANCH  10  17
ATOM     17  C   UNL     1      22.279   5.959  24.211  0.00  0.00    +0.112 C 
BRANCH  17   4
ATOM      2  O   UNL     1      20.943   5.416  26.693  0.00  0.00    -0.268 OA
ATOM      4  N   UNL     1      21.675   6.917  25.083  0.00  0.00    -0.309 N 
ATOM     26  C   UNL     1      21.044   6.566  26.275  0.00  0.00    +0.264 C 
ATOM     36  H   UNL     1      21.742   7.902  24.842  0.00  0.00    +0.149 HD
BRANCH  26  28
ATOM      7  N   UNL     1      20.035   7.383  28.307  0.00  0.00    -0.247 NA
ATOM      8  N   UNL     1      19.761   9.955  27.222  0.00  0.00    -0.259 NA
ATOM     28  C   UNL     1      20.442   7.676  27.056  0.00  0.00    +0.143 A 
ATOM     30  C   UNL     1      20.307   8.940  26.524  0.00  0.00    +0.143 A 
ATOM     34  C   UNL     1      19.488   8.397  29.006  0.00  0.00    +0.131 A 
ATOM     35  C   UNL     1      19.354   9.661  28.473  0.00  0.00    +0.130 A 
ENDBRANCH  26  28
ENDBRANCH  17   4
ENDBRANCH  10  17
TORSDOF 6
ENDMDL
MODEL 7
REMARK VINA RESULT:      -6.7     12.265     14.844
REMARK  Name = 38028970
REMARK  9 active torsions:
REMARK  status: ('A' for Active; 'I' for Inactive)
REMARK    1  A    between atoms: N_4  and  C_17
REMARK    2  A    between atoms: C_9  and  C_13
REMARK    3  A    between atoms: C_10  and  C_17
REMARK    4  A    between atoms: C_12  and  C_16
REMARK    5  A    between atoms: C_13  and  C_18
REMARK    6  A    between atoms: C_13  and  C_19
REMARK    7  A    between atoms: C_14  and  C_20
REMARK    8  A    between atoms: C_16  and  C_21
REMARK    9  A    between atoms: C_26  and  C_28
REMARK                            x       y       z     vdW  Elec       q    Type
REMARK                         _______ _______ _______ _____ _____    ______ ____
ROOT
ATOM      9  C   UNL     1      11.052   6.977   5.292  0.00  0.00    +0.000 C 
ATOM     10  C   UNL     1       9.768   6.240   4.834  0.00  0.00    +0.032 C 
ATOM     11  C   UNL     1      10.816   8.495   5.323  0.00  0.00    +0.012 C 
ATOM     12  C   UNL     1      10.400   9.047   3.947  0.00  0.00    +0.023 C 
ATOM     14  C   UNL     1       9.313   8.207   3.307  0.00  0.00    -0.073 C 
ATOM     15  C   UNL     1       9.037   6.959   3.726  0.00  0.00    -0.022 C 
ATOM     20  C   UNL     1       8.521   8.851   2.204  0.00  0.00    +0.039 C 
ENDROOT
BRANCH   9  13
ATOM     13  C   UNL     1      11.524   6.496   6.668  0.00  0.00    -0.013 C 
ATOM     18  C   UNL     1      12.913   7.044   6.976  0.00  0.00    +0.007 C 
ATOM     19  C   UNL     1      10.527   6.911   7.747  0.00  0.00    +0.007 C 
ENDBRANCH   9  13
BRANCH  12  16
ATOM     16  C   UNL     1      11.610   9.180   3.017  0.00  0.00    +0.103 C 
BRANCH  16  21
ATOM      1  O   UNL     1      12.137  11.380   3.739  0.00  0.00    -0.276 OA
ATOM      3  N   UNL     1      13.865   9.827   3.782  0.00  0.00    -0.298 N 
ATOM      5  N   UNL     1      16.553   9.039   4.511  0.00  0.00    -0.312 N 
ATOM      6  N   UNL     1      18.661   8.130   3.957  0.00  0.00    -0.240 NA
ATOM     21  C   UNL     1      12.552  10.235   3.546  0.00  0.00    +0.216 C 
ATOM     22  C   UNL     1      14.838  10.792   4.291  0.00  0.00    +0.126 C 
ATOM     23  C   UNL     1      14.353   8.465   3.563  0.00  0.00    +0.126 C 
ATOM     24  C   UNL     1      15.869  10.135   5.205  0.00  0.00    +0.125 C 
ATOM     25  C   UNL     1      15.870   8.400   3.385  0.00  0.00    +0.125 C 
ATOM     27  C   UNL     1      17.833   8.646   4.894  0.00  0.00    +0.121 A 
ATOM     29  C   UNL     1      18.176   8.811   6.226  0.00  0.00    +0.043 A 
ATOM     31  C   UNL     1      19.451   8.422   6.622  0.00  0.00    +0.005 A 
ATOM     32  C   UNL     1      19.891   7.763   4.380  0.00  0.00    +0.113 A 
ATOM     33  C   UNL     1      20.331   7.887   5.688  0.00  0.00    +0.020 A 
ENDBRANCH  16  21
ENDBRANCH  12  16
BRANCH  10  17
ATOM     17  C   UNL     1      10.082   4.805   4.392  0.00  0.00    +0.112 C 
BRANCH  17   4
ATOM      2  O   UNL     1      10.440   4.332   1.583  0.00  0.00    -0.268 OA
ATOM      4  N   UNL     1      11.325   4.753   3.686  0.00  0.00    -0.309 N 
ATOM     26  C   UNL     1      11.408   4.517   2.315  0.00  0.00    +0.264 C 
ATOM     36  H   UNL     1      12.183   4.934   4.201  0.00  0.00    +0.149 HD
BRANCH  26  28
ATOM      7  N   UNL     1      13.251   5.614   1.211  0.00  0.00    -0.247 NA
ATOM      8  N   UNL     1      14.754   3.246   1.210  0.00  0.00    -0.259 NA
ATOM     28  C   UNL     1      12.775   4.467   1.736  0.00  0.00    +0.143 A 
ATOM     30  C   UNL     1      13.514   3.304   1.735  0.00  0.00    +0.143 A 
ATOM     34  C   UNL     1      14.490   5.557   0.686  0.00  0.00    +0.131 A 
ATOM     35  C   UNL     1      15.229   4.393   0.685  0.00  0.00    +0.130 A 
ENDBRANCH  26  28
ENDBRANCH  17   4
ENDBRANCH  10  17
TORSDOF 6
ENDMDL
MODEL 8
REMARK VINA RESULT:      -6.7     27.629     31.385
REMARK  Name = 38028970
REMARK  9 active torsions:
REMARK  status: ('A' for Active; 'I' for Inactive)
REMARK    1  A    between atoms: N_4  and  C_17
REMARK    2  A    between atoms: C_9  and  C_13
REMARK    3  A    between atoms: C_10  and  C_17
REMARK    4  A    between atoms: C_12  and  C_16
REMARK    5  A    between atoms: C_13  and  C_18
REMARK    6  A    between atoms: C_13  and  C_19
REMARK    7  A    between atoms: C_14  and  C_20
REMARK    8  A    between atoms: C_16  and  C_21
REMARK    9  A    between atoms: C_26  and  C_28
REMARK                            x       y       z     vdW  Elec       q    Type
REMARK                         _______ _______ _______ _____ _____    ______ ____
ROOT
ATOM      9  C   UNL     1      -3.606 -10.603  11.233  0.00  0.00    +0.000 C 
ATOM     10  C   UNL     1      -3.772  -9.721   9.971  0.00  0.00    +0.032 C 
ATOM     11  C   UNL     1      -3.212 -12.035  10.839  0.00  0.00    +0.012 C 
ATOM     12  C   UNL     1      -4.256 -12.693   9.917  0.00  0.00    +0.023 C 
ATOM     14  C   UNL     1      -4.672 -11.771   8.789  0.00  0.00    -0.073 C 
ATOM     15  C   UNL     1      -4.436 -10.447   8.825  0.00  0.00    -0.022 C 
ATOM     20  C   UNL     1      -5.327 -12.411   7.597  0.00  0.00    +0.039 C 
ENDROOT
BRANCH   9  13
ATOM     13  C   UNL     1      -2.566 -10.026  12.199  0.00  0.00    -0.013 C 
ATOM     18  C   UNL     1      -2.275 -11.015  13.322  0.00  0.00    +0.007 C 
ATOM     19  C   UNL     1      -1.286  -9.667  11.449  0.00  0.00    +0.007 C 
ENDBRANCH   9  13
BRANCH  12  16
ATOM     16  C   UNL     1      -5.474 -13.169  10.714  0.00  0.00    +0.103 C 
BRANCH  16  21
ATOM      1  O   UNL     1      -4.484 -15.156  11.557  0.00  0.00    -0.276 OA
ATOM      3  N   UNL     1      -5.287 -13.644  13.128  0.00  0.00    -0.298 N 
ATOM      5  N   UNL     1      -5.571 -12.731  15.861  0.00  0.00    -0.312 N 
ATOM      6  N   UNL     1      -6.904 -11.984  17.661  0.00  0.00    -0.240 NA
ATOM     21  C   UNL     1      -5.032 -14.086  11.830  0.00  0.00    +0.216 C 
ATOM     22  C   UNL     1      -4.893 -14.477  14.262  0.00  0.00    +0.126 C 
ATOM     23  C   UNL     1      -5.929 -12.368  13.450  0.00  0.00    +0.126 C 
ATOM     24  C   UNL     1      -4.487 -13.639  15.472  0.00  0.00    +0.125 C 
ATOM     25  C   UNL     1      -6.556 -12.356  14.844  0.00  0.00    +0.125 C 
ATOM     27  C   UNL     1      -5.677 -12.271  17.171  0.00  0.00    +0.121 A 
ATOM     29  C   UNL     1      -4.503 -12.137  17.893  0.00  0.00    +0.043 A 
ATOM     31  C   UNL     1      -4.593 -11.678  19.202  0.00  0.00    +0.005 A 
ATOM     32  C   UNL     1      -6.953 -11.540  18.936  0.00  0.00    +0.113 A 
ATOM     33  C   UNL     1      -5.837 -11.371  19.742  0.00  0.00    +0.020 A 
ENDBRANCH  16  21
ENDBRANCH  12  16
BRANCH  10  17
ATOM     17  C   UNL     1      -4.557  -8.442  10.290  0.00  0.00    +0.112 C 
BRANCH  17   4
ATOM      2  O   UNL     1      -7.416  -8.703  10.319  0.00  0.00    -0.268 OA
ATOM      4  N   UNL     1      -5.454  -8.120   9.224  0.00  0.00    -0.309 N 
ATOM     26  C   UNL     1      -6.836  -8.278   9.323  0.00  0.00    +0.264 C 
ATOM     36  H   UNL     1      -5.071  -7.722   8.372  0.00  0.00    +0.149 HD
BRANCH  26  28
ATOM      7  N   UNL     1      -7.438  -8.684   7.024  0.00  0.00    -0.247 NA
ATOM      8  N   UNL     1      -9.236  -6.532   7.039  0.00  0.00    -0.259 NA
ATOM     28  C   UNL     1      -7.629  -7.922   8.119  0.00  0.00    +0.143 A 
ATOM     30  C   UNL     1      -8.513  -6.865   8.126  0.00  0.00    +0.143 A 
ATOM     34  C   UNL     1      -8.161  -8.351   5.937  0.00  0.00    +0.131 A 
ATOM     35  C   UNL     1      -9.045  -7.294   5.944  0.00  0.00    +0.130 A 
ENDBRANCH  26  28
ENDBRANCH  17   4
ENDBRANCH  10  17
TORSDOF 6
ENDMDL
MODEL 9
REMARK VINA RESULT:      -6.7     11.836     14.637
REMARK  Name = 38028970
REMARK  9 active torsions:
REMARK  status: ('A' for Active; 'I' for Inactive)
REMARK    1  A    between atoms: N_4  and  C_17
REMARK    2  A    between atoms: C_9  and  C_13
REMARK    3  A    between atoms: C_10  and  C_17
REMARK    4  A    between atoms: C_12  and  C_16
REMARK    5  A    between atoms: C_13  and  C_18
REMARK    6  A    between atoms: C_13  and  C_19
REMARK    7  A    between atoms: C_14  and  C_20
REMARK    8  A    between atoms: C_16  and  C_21
REMARK    9  A    between atoms: C_26  and  C_28
REMARK                            x       y       z     vdW  Elec       q    Type
REMARK                         _______ _______ _______ _____ _____    ______ ____
ROOT
ATOM      9  C   UNL     1      10.529   6.494   6.257  0.00  0.00    +0.000 C 
ATOM     10  C   UNL     1      10.248   6.354   4.740  0.00  0.00    +0.032 C 
ATOM     11  C   UNL     1      10.812   7.961   6.617  0.00  0.00    +0.012 C 
ATOM     12  C   UNL     1      12.017   8.528   5.843  0.00  0.00    +0.023 C 
ATOM     14  C   UNL     1      11.945   8.196   4.366  0.00  0.00    -0.073 C 
ATOM     15  C   UNL     1      11.139   7.229   3.891  0.00  0.00    -0.022 C 
ATOM     20  C   UNL     1      12.788   9.029   3.443  0.00  0.00    +0.039 C 
ENDROOT
BRANCH   9  13
ATOM     13  C   UNL     1       9.365   5.967   7.103  0.00  0.00    -0.013 C 
ATOM     18  C   UNL     1       9.831   4.825   7.999  0.00  0.00    +0.007 C 
ATOM     19  C   UNL     1       8.759   7.095   7.934  0.00  0.00    +0.007 C 
ENDBRANCH   9  13
BRANCH  12  16
ATOM     16  C   UNL     1      13.339   8.046   6.450  0.00  0.00    +0.103 C 
BRANCH  16  21
ATOM      1  O   UNL     1      14.025  10.248   7.019  0.00  0.00    -0.276 OA
ATOM      3  N   UNL     1      15.568   8.937   5.878  0.00  0.00    -0.298 N 
ATOM      5  N   UNL     1      18.232   8.468   4.847  0.00  0.00    -0.312 N 
ATOM      6  N   UNL     1      19.692   7.882   3.086  0.00  0.00    -0.240 NA
ATOM     21  C   UNL     1      14.334   9.181   6.481  0.00  0.00    +0.216 C 
ATOM     22  C   UNL     1      16.582   9.988   5.863  0.00  0.00    +0.126 C 
ATOM     23  C   UNL     1      15.937   7.667   5.249  0.00  0.00    +0.126 C 
ATOM     24  C   UNL     1      17.996   9.417   5.939  0.00  0.00    +0.125 C 
ATOM     25  C   UNL     1      17.072   7.815   4.236  0.00  0.00    +0.125 C 
ATOM     27  C   UNL     1      19.522   8.224   4.383  0.00  0.00    +0.121 A 
ATOM     29  C   UNL     1      20.558   8.349   5.294  0.00  0.00    +0.043 A 
ATOM     31  C   UNL     1      21.852   8.109   4.845  0.00  0.00    +0.005 A 
ATOM     32  C   UNL     1      20.963   7.655   2.686  0.00  0.00    +0.113 A 
ATOM     33  C   UNL     1      22.067   7.754   3.518  0.00  0.00    +0.020 A 
ENDBRANCH  16  21
ENDBRANCH  12  16
BRANCH  10  17
ATOM     17  C   UNL     1      10.380   4.896   4.285  0.00  0.00    +0.112 C 
BRANCH  17   4
ATOM      2  O   UNL     1      10.163   3.915   1.596  0.00  0.00    -0.268 OA
ATOM      4  N   UNL     1      11.444   4.754   3.339  0.00  0.00    -0.309 N 
ATOM     26  C   UNL     1      11.249   4.267   2.048  0.00  0.00    +0.264 C 
ATOM     36  H   UNL     1      12.375   5.059   3.608  0.00  0.00    +0.149 HD
BRANCH  26  28
ATOM      7  N   UNL     1      12.336   4.566  -0.084  0.00  0.00    -0.247 NA
ATOM      8  N   UNL     1      14.749   3.551   0.923  0.00  0.00    -0.259 NA
ATOM     28  C   UNL     1      12.459   4.156   1.194  0.00  0.00    +0.143 A 
ATOM     30  C   UNL     1      13.645   3.658   1.688  0.00  0.00    +0.143 A 
ATOM     34  C   UNL     1      13.439   4.458  -0.850  0.00  0.00    +0.131 A 
ATOM     35  C   UNL     1      14.625   3.960  -0.355  0.00  0.00    +0.130 A 
ENDBRANCH  26  28
ENDBRANCH  17   4
ENDBRANCH  10  17
TORSDOF 6
ENDMDL
MODEL 10
REMARK VINA RESULT:      -6.6     11.281     15.167
REMARK  Name = 38028970
REMARK  9 active torsions:
REMARK  status: ('A' for Active; 'I' for Inactive)
REMARK    1  A    between atoms: N_4  and  C_17
REMARK    2  A    between atoms: C_9  and  C_13
REMARK    3  A    between atoms: C_10  and  C_17
REMARK    4  A    between atoms: C_12  and  C_16
REMARK    5  A    between atoms: C_13  and  C_18
REMARK    6  A    between atoms: C_13  and  C_19
REMARK    7  A    between atoms: C_14  and  C_20
REMARK    8  A    between atoms: C_16  and  C_21
REMARK    9  A    between atoms: C_26  and  C_28
REMARK                            x       y       z     vdW  Elec       q    Type
REMARK                         _______ _______ _______ _____ _____    ______ ____
ROOT
ATOM      9  C   UNL     1       8.924   8.544   4.957  0.00  0.00    +0.000 C 
ATOM     10  C   UNL     1       8.602   9.288   6.277  0.00  0.00    +0.032 C 
ATOM     11  C   UNL     1       8.374   7.110   5.001  0.00  0.00    +0.012 C 
ATOM     12  C   UNL     1       8.959   6.299   6.174  0.00  0.00    +0.023 C 
ATOM     14  C   UNL     1       8.921   7.079   7.472  0.00  0.00    -0.073 C 
ATOM     15  C   UNL     1       8.748   8.413   7.499  0.00  0.00    -0.022 C 
ATOM     20  C   UNL     1       9.043   6.285   8.742  0.00  0.00    +0.039 C 
ENDROOT
BRANCH   9  13
ATOM     13  C   UNL     1       8.357   9.279   3.737  0.00  0.00    -0.013 C 
ATOM     18  C   UNL     1       8.575   8.456   2.471  0.00  0.00    +0.007 C 
ATOM     19  C   UNL     1       6.875   9.580   3.939  0.00  0.00    +0.007 C 
ENDBRANCH   9  13
BRANCH  12  16
ATOM     16  C   UNL     1      10.381   5.823   5.860  0.00  0.00    +0.103 C 
BRANCH  16  21
ATOM      1  O   UNL     1       9.792   3.565   5.424  0.00  0.00    -0.276 OA
ATOM      3  N   UNL     1      10.919   4.693   3.733  0.00  0.00    -0.298 N 
ATOM      5  N   UNL     1      11.914   4.865   1.021  0.00  0.00    -0.312 N 
ATOM      6  N   UNL     1      13.659   5.278  -0.517  0.00  0.00    -0.240 NA
ATOM     21  C   UNL     1      10.331   4.588   4.994  0.00  0.00    +0.216 C 
ATOM     22  C   UNL     1      10.914   3.538   2.838  0.00  0.00    +0.126 C 
ATOM     23  C   UNL     1      11.548   5.912   3.221  0.00  0.00    +0.126 C 
ATOM     24  C   UNL     1      10.822   3.953   1.372  0.00  0.00    +0.125 C 
ATOM     25  C   UNL     1      12.545   5.635   2.095  0.00  0.00    +0.125 C 
ATOM     27  C   UNL     1      12.362   4.965  -0.294  0.00  0.00    +0.121 A 
ATOM     29  C   UNL     1      11.437   4.734  -1.299  0.00  0.00    +0.043 A 
ATOM     31  C   UNL     1      11.869   4.830  -2.616  0.00  0.00    +0.005 A 
ATOM     32  C   UNL     1      14.042   5.364  -1.810  0.00  0.00    +0.113 A 
ATOM     33  C   UNL     1      13.195   5.151  -2.886  0.00  0.00    +0.020 A 
ENDBRANCH  16  21
ENDBRANCH  12  16
BRANCH  10  17
ATOM     17  C   UNL     1       9.477  10.537   6.435  0.00  0.00    +0.112 C 
BRANCH  17   4
ATOM      2  O   UNL     1      11.525  10.439   8.444  0.00  0.00    -0.268 OA
ATOM      4  N   UNL     1      10.857  10.218   6.233  0.00  0.00    -0.309 N 
ATOM     26  C   UNL     1      11.788  10.194   7.270  0.00  0.00    +0.264 C 
ATOM     36  H   UNL     1      11.163   9.960   5.300  0.00  0.00    +0.149 HD
BRANCH  26  28
ATOM      7  N   UNL     1      14.064  10.893   6.890  0.00  0.00    -0.247 NA
ATOM      8  N   UNL     1      14.831   8.281   6.217  0.00  0.00    -0.259 NA
ATOM     28  C   UNL     1      13.188   9.870   6.893  0.00  0.00    +0.143 A 
ATOM     30  C   UNL     1      13.565   8.587   6.562  0.00  0.00    +0.143 A 
ATOM     34  C   UNL     1      15.331  10.589   6.544  0.00  0.00    +0.131 A 
ATOM     35  C   UNL     1      15.707   9.305   6.214  0.00  0.00    +0.130 A 
ENDBRANCH  26  28
ENDBRANCH  17   4
ENDBRANCH  10  17
TORSDOF 6
ENDMDL
