MODEL 1
REMARK VINA RESULT:      -6.5      0.000      0.000
REMARK  Name = 45361711
REMARK  7 active torsions:
REMARK  status: ('A' for Active; 'I' for Inactive)
REMARK    1  A    between atoms: N_8  and  C_29
REMARK    2  A    between atoms: C_11  and  C_17
REMARK    3  A    between atoms: C_12  and  C_26
REMARK    4  A    between atoms: C_21  and  C_23
REMARK    5  A    between atoms: C_29  and  C_30
REMARK    6  A    between atoms: C_29  and  C_32
REMARK    7  A    between atoms: C_30  and  C_31
REMARK                            x       y       z     vdW  Elec       q    Type
REMARK                         _______ _______ _______ _____ _____    ______ ____
ROOT
ATOM      1  O   UNL     1     -10.146  -9.152  11.260  0.00  0.00    -0.275 OA
ATOM      2  O   UNL     1      -6.304 -12.332  16.632  0.00  0.00    -0.275 OA
ATOM      5  N   UNL     1      -8.583 -10.207  12.621  0.00  0.00    -0.287 N 
ATOM      6  N   UNL     1      -7.626 -11.002  15.259  0.00  0.00    -0.298 N 
ATOM     12  C   UNL     1      -7.419 -11.090  12.775  0.00  0.00    +0.179 C 
ATOM     15  C   UNL     1      -7.437 -11.867  14.091  0.00  0.00    +0.139 C 
ATOM     16  C   UNL     1      -9.345  -9.903  13.835  0.00  0.00    +0.127 C 
ATOM     17  C   UNL     1      -9.090  -9.777  11.390  0.00  0.00    +0.219 C 
ATOM     18  C   UNL     1      -8.468  -9.815  15.076  0.00  0.00    +0.127 C 
ATOM     23  C   UNL     1      -7.013 -11.337  16.468  0.00  0.00    +0.219 C 
ENDROOT
BRANCH  23  21
ATOM      7  N   UNL     1      -7.123 -11.856  20.164  0.00  0.00    -0.316 NA
ATOM     21  C   UNL     1      -7.262 -10.405  17.619  0.00  0.00    +0.078 C 
ATOM     24  C   UNL     1      -8.512 -10.821  18.398  0.00  0.00    +0.028 C 
ATOM     25  C   UNL     1      -6.041 -10.336  18.539  0.00  0.00    +0.028 C 
ATOM     27  C   UNL     1      -8.266 -12.051  19.273  0.00  0.00    +0.081 C 
ATOM     28  C   UNL     1      -5.899 -11.587  19.408  0.00  0.00    +0.081 C 
ATOM     40  H   UNL     1      -6.991 -12.693  20.731  0.00  0.00    +0.122 HD
ENDBRANCH  23  21
BRANCH  17  11
ATOM     11  C   UNL     1      -8.282 -10.116  10.171  0.00  0.00    +0.075 C 
ATOM     13  C   UNL     1      -7.965  -8.847   9.380  0.00  0.00    +0.013 C 
ATOM     14  C   UNL     1      -8.984 -11.181   9.326  0.00  0.00    +0.013 C 
ATOM     19  C   UNL     1      -9.159  -8.324   8.581  0.00  0.00    +0.001 C 
ATOM     20  C   UNL     1     -10.157 -10.636   8.512  0.00  0.00    +0.001 C 
ATOM     22  C   UNL     1      -9.763  -9.409   7.698  0.00  0.00    +0.000 C 
ENDBRANCH  17  11
BRANCH  12  26
ATOM      3  O   UNL     1      -6.244  -9.017  12.574  0.00  0.00    -0.274 OA
ATOM      8  N   UNL     1      -5.023 -10.989  12.772  0.00  0.00    -0.302 N 
ATOM     26  C   UNL     1      -6.183 -10.238  12.702  0.00  0.00    +0.236 C 
ATOM     41  H   UNL     1      -5.093 -11.988  12.950  0.00  0.00    +0.150 HD
BRANCH   8  29
ATOM     29  C   UNL     1      -3.701 -10.412  12.702  0.00  0.00    +0.163 C 
BRANCH  29  32
ATOM      4  O   UNL     1      -1.928 -11.636  13.825  0.00  0.00    -0.274 OA
ATOM     10  N   UNL     1      -3.427 -10.455  15.103  0.00  0.00    -0.328 N 
ATOM     32  C   UNL     1      -2.925 -10.922  13.907  0.00  0.00    +0.231 C 
ATOM     43  H   UNL     1      -2.994 -10.709  15.984  0.00  0.00    +0.145 HD
ATOM     44  H   UNL     1      -4.239  -9.847  15.153  0.00  0.00    +0.145 HD
ENDBRANCH  29  32
BRANCH  29  30
ATOM     30  C   UNL     1      -2.975 -10.781  11.403  0.00  0.00    +0.069 C 
BRANCH  30  31
ATOM      9  N   UNL     1      -4.251  -8.698   8.646  0.00  0.00    -0.360 N 
ATOM     31  C   UNL     1      -3.618 -10.171  10.181  0.00  0.00    -0.020 A 
ATOM     33  C   UNL     1      -4.411 -10.850   9.214  0.00  0.00    +0.003 A 
ATOM     34  C   UNL     1      -3.538  -8.851   9.804  0.00  0.00    +0.087 A 
ATOM     35  C   UNL     1      -4.795  -9.903   8.262  0.00  0.00    +0.047 A 
ATOM     36  C   UNL     1      -4.840 -12.183   9.056  0.00  0.00    +0.010 A 
ATOM     37  C   UNL     1      -5.591 -10.223   7.156  0.00  0.00    +0.026 A 
ATOM     38  C   UNL     1      -5.636 -12.518   7.955  0.00  0.00    +0.001 A 
ATOM     39  C   UNL     1      -6.005 -11.551   7.021  0.00  0.00    +0.002 A 
ATOM     42  H   UNL     1      -4.363  -7.828   8.145  0.00  0.00    +0.165 HD
ENDBRANCH  30  31
ENDBRANCH  29  30
ENDBRANCH   8  29
ENDBRANCH  12  26
TORSDOF 7
ENDMDL
MODEL 2
REMARK VINA RESULT:      -6.5      2.181      8.592
REMARK  Name = 45361711
REMARK  7 active torsions:
REMARK  status: ('A' for Active; 'I' for Inactive)
REMARK    1  A    between atoms: N_8  and  C_29
REMARK    2  A    between atoms: C_11  and  C_17
REMARK    3  A    between atoms: C_12  and  C_26
REMARK    4  A    between atoms: C_21  and  C_23
REMARK    5  A    between atoms: C_29  and  C_30
REMARK    6  A    between atoms: C_29  and  C_32
REMARK    7  A    between atoms: C_30  and  C_31
REMARK                            x       y       z     vdW  Elec       q    Type
REMARK                         _______ _______ _______ _____ _____    ______ ____
ROOT
ATOM      1  O   UNL     1      -2.682 -10.235  11.339  0.00  0.00    -0.275 OA
ATOM      2  O   UNL     1      -9.359  -9.194   8.497  0.00  0.00    -0.275 OA
ATOM      5  N   UNL     1      -4.953 -10.097  10.859  0.00  0.00    -0.287 N 
ATOM      6  N   UNL     1      -7.158  -9.086   9.239  0.00  0.00    -0.298 N 
ATOM     12  C   UNL     1      -6.329 -10.571  11.063  0.00  0.00    +0.179 C 
ATOM     15  C   UNL     1      -7.193 -10.436   9.809  0.00  0.00    +0.139 C 
ATOM     16  C   UNL     1      -4.716  -9.245   9.690  0.00  0.00    +0.127 C 
ATOM     17  C   UNL     1      -3.850 -10.529  11.604  0.00  0.00    +0.219 C 
ATOM     18  C   UNL     1      -5.900  -8.344   9.367  0.00  0.00    +0.127 C 
ATOM     23  C   UNL     1      -8.296  -8.578   8.610  0.00  0.00    +0.219 C 
ENDROOT
BRANCH  23  21
ATOM      7  N   UNL     1     -10.571  -6.510   6.491  0.00  0.00    -0.316 NA
ATOM     21  C   UNL     1      -8.178  -7.191   8.044  0.00  0.00    +0.078 C 
ATOM     24  C   UNL     1      -8.202  -7.222   6.514  0.00  0.00    +0.028 C 
ATOM     25  C   UNL     1      -9.282  -6.283   8.591  0.00  0.00    +0.028 C 
ATOM     27  C   UNL     1      -9.606  -7.473   5.962  0.00  0.00    +0.081 C 
ATOM     28  C   UNL     1     -10.641  -6.574   7.951  0.00  0.00    +0.081 C 
ATOM     40  H   UNL     1     -11.492  -6.706   6.101  0.00  0.00    +0.122 HD
ENDBRANCH  23  21
BRANCH  17  11
ATOM     11  C   UNL     1      -4.137 -11.407  12.788  0.00  0.00    +0.075 C 
ATOM     13  C   UNL     1      -3.855 -10.648  14.085  0.00  0.00    +0.013 C 
ATOM     14  C   UNL     1      -3.367 -12.725  12.693  0.00  0.00    +0.013 C 
ATOM     19  C   UNL     1      -2.364 -10.524  14.395  0.00  0.00    +0.001 C 
ATOM     20  C   UNL     1      -1.883 -12.589  13.034  0.00  0.00    +0.001 C 
ATOM     22  C   UNL     1      -1.669 -11.881  14.366  0.00  0.00    +0.000 C 
ENDBRANCH  17  11
BRANCH  12  26
ATOM      3  O   UNL     1      -6.500  -8.660  12.490  0.00  0.00    -0.274 OA
ATOM      8  N   UNL     1      -7.964 -10.442  12.812  0.00  0.00    -0.302 N 
ATOM     26  C   UNL     1      -6.928  -9.771  12.185  0.00  0.00    +0.236 C 
ATOM     41  H   UNL     1      -8.280 -11.328  12.429  0.00  0.00    +0.150 HD
BRANCH   8  29
ATOM     29  C   UNL     1      -8.692  -9.899  13.936  0.00  0.00    +0.163 C 
BRANCH  29  32
ATOM      4  O   UNL     1     -10.476  -9.736  12.295  0.00  0.00    -0.274 OA
ATOM     10  N   UNL     1     -10.806  -8.809  14.370  0.00  0.00    -0.328 N 
ATOM     32  C   UNL     1     -10.059  -9.475  13.421  0.00  0.00    +0.231 C 
ATOM     43  H   UNL     1     -11.743  -8.483  14.162  0.00  0.00    +0.145 HD
ATOM     44  H   UNL     1     -10.456  -8.620  15.305  0.00  0.00    +0.145 HD
ENDBRANCH  29  32
BRANCH  29  30
ATOM     30  C   UNL     1      -8.841 -10.914  15.075  0.00  0.00    +0.069 C 
BRANCH  30  31
ATOM      9  N   UNL     1      -7.531  -9.445  18.188  0.00  0.00    -0.360 N 
ATOM     31  C   UNL     1      -8.095 -10.506  16.323  0.00  0.00    -0.020 A 
ATOM     33  C   UNL     1      -6.894 -11.087  16.818  0.00  0.00    +0.003 A 
ATOM     34  C   UNL     1      -8.462  -9.501  17.186  0.00  0.00    +0.087 A 
ATOM     35  C   UNL     1      -6.562 -10.402  17.989  0.00  0.00    +0.047 A 
ATOM     36  C   UNL     1      -6.054 -12.130  16.381  0.00  0.00    +0.010 A 
ATOM     37  C   UNL     1      -5.427 -10.711  18.749  0.00  0.00    +0.026 A 
ATOM     38  C   UNL     1      -4.917 -12.450  17.131  0.00  0.00    +0.001 A 
ATOM     39  C   UNL     1      -4.610 -11.750  18.296  0.00  0.00    +0.002 A 
ATOM     42  H   UNL     1      -7.551  -8.796  18.962  0.00  0.00    +0.165 HD
ENDBRANCH  30  31
ENDBRANCH  29  30
ENDBRANCH   8  29
ENDBRANCH  12  26
TORSDOF 7
ENDMDL
MODEL 3
REMARK VINA RESULT:      -6.3      2.042      7.736
REMARK  Name = 45361711
REMARK  7 active torsions:
REMARK  status: ('A' for Active; 'I' for Inactive)
REMARK    1  A    between atoms: N_8  and  C_29
REMARK    2  A    between atoms: C_11  and  C_17
REMARK    3  A    between atoms: C_12  and  C_26
REMARK    4  A    between atoms: C_21  and  C_23
REMARK    5  A    between atoms: C_29  and  C_30
REMARK    6  A    between atoms: C_29  and  C_32
REMARK    7  A    between atoms: C_30  and  C_31
REMARK                            x       y       z     vdW  Elec       q    Type
REMARK                         _______ _______ _______ _____ _____    ______ ____
ROOT
ATOM      1  O   UNL     1     -10.200 -11.192  14.871  0.00  0.00    -0.275 OA
ATOM      2  O   UNL     1      -6.293  -8.471   9.297  0.00  0.00    -0.275 OA
ATOM      5  N   UNL     1      -8.586 -10.370  13.412  0.00  0.00    -0.287 N 
ATOM      6  N   UNL     1      -7.724  -9.609  10.732  0.00  0.00    -0.298 N 
ATOM     12  C   UNL     1      -7.290  -9.715  13.185  0.00  0.00    +0.179 C 
ATOM     15  C   UNL     1      -7.271  -8.869  11.912  0.00  0.00    +0.139 C 
ATOM     16  C   UNL     1      -9.494 -10.449  12.266  0.00  0.00    +0.127 C 
ATOM     17  C   UNL     1      -9.058 -10.771  14.667  0.00  0.00    +0.219 C 
ATOM     18  C   UNL     1      -8.762 -10.624  10.943  0.00  0.00    +0.127 C 
ATOM     23  C   UNL     1      -7.165  -9.323   9.485  0.00  0.00    +0.219 C 
ENDROOT
BRANCH  23  21
ATOM      7  N   UNL     1      -6.565  -9.119   5.806  0.00  0.00    -0.316 NA
ATOM     21  C   UNL     1      -7.688 -10.119   8.324  0.00  0.00    +0.078 C 
ATOM     24  C   UNL     1      -8.482  -9.228   7.365  0.00  0.00    +0.028 C 
ATOM     25  C   UNL     1      -6.548 -10.831   7.592  0.00  0.00    +0.028 C 
ATOM     27  C   UNL     1      -7.574  -8.336   6.517  0.00  0.00    +0.081 C 
ATOM     28  C   UNL     1      -5.721  -9.871   6.735  0.00  0.00    +0.081 C 
ATOM     40  H   UNL     1      -5.981  -8.494   5.251  0.00  0.00    +0.122 HD
ENDBRANCH  23  21
BRANCH  17  11
ATOM     11  C   UNL     1      -8.097 -10.666  15.816  0.00  0.00    +0.075 C 
ATOM     13  C   UNL     1      -8.284 -11.849  16.767  0.00  0.00    +0.013 C 
ATOM     14  C   UNL     1      -8.228  -9.313  16.520  0.00  0.00    +0.013 C 
ATOM     19  C   UNL     1      -9.526 -11.720  17.647  0.00  0.00    +0.001 C 
ATOM     20  C   UNL     1      -9.460  -9.212  17.417  0.00  0.00    +0.001 C 
ATOM     22  C   UNL     1      -9.558 -10.386  18.385  0.00  0.00    +0.000 C 
ENDBRANCH  17  11
BRANCH  12  26
ATOM      3  O   UNL     1      -6.523 -11.979  13.216  0.00  0.00    -0.274 OA
ATOM      8  N   UNL     1      -4.974 -10.269  12.909  0.00  0.00    -0.302 N 
ATOM     26  C   UNL     1      -6.242 -10.788  13.101  0.00  0.00    +0.236 C 
ATOM     41  H   UNL     1      -4.868  -9.269  12.756  0.00  0.00    +0.150 HD
BRANCH   8  29
ATOM     29  C   UNL     1      -3.788 -11.089  12.817  0.00  0.00    +0.163 C 
BRANCH  29  32
ATOM      4  O   UNL     1      -1.693 -10.578  11.697  0.00  0.00    -0.274 OA
ATOM     10  N   UNL     1      -3.657  -9.910  10.711  0.00  0.00    -0.328 N 
ATOM     32  C   UNL     1      -2.920 -10.499  11.716  0.00  0.00    +0.231 C 
ATOM     43  H   UNL     1      -3.202  -9.489   9.909  0.00  0.00    +0.145 HD
ATOM     44  H   UNL     1      -4.672  -9.873  10.730  0.00  0.00    +0.145 HD
ENDBRANCH  29  32
BRANCH  29  30
ATOM     30  C   UNL     1      -3.013 -11.140  14.140  0.00  0.00    +0.069 C 
BRANCH  30  31
ATOM      9  N   UNL     1      -4.323 -13.960  16.113  0.00  0.00    -0.360 N 
ATOM     31  C   UNL     1      -3.624 -12.093  15.138  0.00  0.00    -0.020 A 
ATOM     33  C   UNL     1      -4.219 -11.748  16.383  0.00  0.00    +0.003 A 
ATOM     34  C   UNL     1      -3.703 -13.460  15.001  0.00  0.00    +0.087 A 
ATOM     35  C   UNL     1      -4.649 -12.938  16.975  0.00  0.00    +0.047 A 
ATOM     36  C   UNL     1      -4.435 -10.534  17.066  0.00  0.00    +0.010 A 
ATOM     37  C   UNL     1      -5.286 -12.974  18.221  0.00  0.00    +0.026 A 
ATOM     38  C   UNL     1      -5.070 -10.555  18.313  0.00  0.00    +0.001 A 
ATOM     39  C   UNL     1      -5.488 -11.758  18.879  0.00  0.00    +0.002 A 
ATOM     42  H   UNL     1      -4.514 -14.939  16.280  0.00  0.00    +0.165 HD
ENDBRANCH  30  31
ENDBRANCH  29  30
ENDBRANCH   8  29
ENDBRANCH  12  26
TORSDOF 7
ENDMDL
MODEL 4
REMARK VINA RESULT:      -6.3      3.162      8.372
REMARK  Name = 45361711
REMARK  7 active torsions:
REMARK  status: ('A' for Active; 'I' for Inactive)
REMARK    1  A    between atoms: N_8  and  C_29
REMARK    2  A    between atoms: C_11  and  C_17
REMARK    3  A    between atoms: C_12  and  C_26
REMARK    4  A    between atoms: C_21  and  C_23
REMARK    5  A    between atoms: C_29  and  C_30
REMARK    6  A    between atoms: C_29  and  C_32
REMARK    7  A    between atoms: C_30  and  C_31
REMARK                            x       y       z     vdW  Elec       q    Type
REMARK                         _______ _______ _______ _____ _____    ______ ____
ROOT
ATOM      1  O   UNL     1     -10.894  -9.966  14.074  0.00  0.00    -0.275 OA
ATOM      2  O   UNL     1      -3.594 -10.500  14.480  0.00  0.00    -0.275 OA
ATOM      5  N   UNL     1      -8.660 -10.199  14.680  0.00  0.00    -0.287 N 
ATOM      6  N   UNL     1      -5.861 -10.617  13.978  0.00  0.00    -0.298 N 
ATOM     12  C   UNL     1      -7.599 -10.100  15.690  0.00  0.00    +0.179 C 
ATOM     15  C   UNL     1      -6.241  -9.739  15.088  0.00  0.00    +0.139 C 
ATOM     16  C   UNL     1      -8.232 -10.327  13.284  0.00  0.00    +0.127 C 
ATOM     17  C   UNL     1     -10.023 -10.020  14.946  0.00  0.00    +0.219 C 
ATOM     18  C   UNL     1      -6.945 -11.126  13.133  0.00  0.00    +0.127 C 
ATOM     23  C   UNL     1      -4.513 -10.923  13.776  0.00  0.00    +0.219 C 
ENDROOT
BRANCH  23  21
ATOM      7  N   UNL     1      -1.509 -12.948  12.875  0.00  0.00    -0.316 NA
ATOM     21  C   UNL     1      -4.205 -11.823  12.613  0.00  0.00    +0.078 C 
ATOM     24  C   UNL     1      -3.011 -11.293  11.815  0.00  0.00    +0.028 C 
ATOM     25  C   UNL     1      -3.954 -13.257  13.085  0.00  0.00    +0.028 C 
ATOM     27  C   UNL     1      -1.681 -11.537  12.530  0.00  0.00    +0.081 C 
ATOM     28  C   UNL     1      -2.585 -13.419  13.747  0.00  0.00    +0.081 C 
ATOM     40  H   UNL     1      -0.614 -13.073  13.347  0.00  0.00    +0.122 HD
ENDBRANCH  23  21
BRANCH  17  11
ATOM     11  C   UNL     1     -10.417  -9.885  16.388  0.00  0.00    +0.075 C 
ATOM     13  C   UNL     1     -11.718 -10.644  16.651  0.00  0.00    +0.013 C 
ATOM     14  C   UNL     1     -10.496  -8.413  16.799  0.00  0.00    +0.013 C 
ATOM     19  C   UNL     1     -12.954  -9.914  16.127  0.00  0.00    +0.001 C 
ATOM     20  C   UNL     1     -11.752  -7.706  16.292  0.00  0.00    +0.001 C 
ATOM     22  C   UNL     1     -13.019  -8.479  16.638  0.00  0.00    +0.000 C 
ENDBRANCH  17  11
BRANCH  12  26
ATOM      3  O   UNL     1      -8.048 -12.435  15.944  0.00  0.00    -0.274 OA
ATOM      8  N   UNL     1      -6.789 -11.346  17.572  0.00  0.00    -0.302 N 
ATOM     26  C   UNL     1      -7.509 -11.426  16.393  0.00  0.00    +0.236 C 
ATOM     41  H   UNL     1      -6.327 -10.473  17.810  0.00  0.00    +0.150 HD
BRANCH   8  29
ATOM     29  C   UNL     1      -6.576 -12.477  18.446  0.00  0.00    +0.163 C 
BRANCH  29  32
ATOM      4  O   UNL     1      -4.380 -11.821  19.251  0.00  0.00    -0.274 OA
ATOM     10  N   UNL     1      -4.576 -13.781  18.071  0.00  0.00    -0.328 N 
ATOM     32  C   UNL     1      -5.073 -12.623  18.631  0.00  0.00    +0.231 C 
ATOM     43  H   UNL     1      -3.590 -14.009  18.134  0.00  0.00    +0.145 HD
ATOM     44  H   UNL     1      -5.166 -14.446  17.580  0.00  0.00    +0.145 HD
ENDBRANCH  29  32
BRANCH  29  30
ATOM     30  C   UNL     1      -7.266 -12.298  19.804  0.00  0.00    +0.069 C 
BRANCH  30  31
ATOM      9  N   UNL     1     -10.491 -14.075  19.703  0.00  0.00    -0.360 N 
ATOM     31  C   UNL     1      -8.702 -12.765  19.795  0.00  0.00    -0.020 A 
ATOM     33  C   UNL     1      -9.858 -11.946  19.924  0.00  0.00    +0.003 A 
ATOM     34  C   UNL     1      -9.123 -14.067  19.661  0.00  0.00    +0.087 A 
ATOM     35  C   UNL     1     -10.967 -12.793  19.862  0.00  0.00    +0.047 A 
ATOM     36  C   UNL     1     -10.069 -10.562  20.086  0.00  0.00    +0.010 A 
ATOM     37  C   UNL     1     -12.283 -12.323  19.955  0.00  0.00    +0.026 A 
ATOM     38  C   UNL     1     -11.379 -10.078  20.180  0.00  0.00    +0.001 A 
ATOM     39  C   UNL     1     -12.467 -10.947  20.116  0.00  0.00    +0.002 A 
ATOM     42  H   UNL     1     -11.069 -14.900  19.627  0.00  0.00    +0.165 HD
ENDBRANCH  30  31
ENDBRANCH  29  30
ENDBRANCH   8  29
ENDBRANCH  12  26
TORSDOF 7
ENDMDL
MODEL 5
REMARK VINA RESULT:      -6.2     24.189     28.309
REMARK  Name = 45361711
REMARK  7 active torsions:
REMARK  status: ('A' for Active; 'I' for Inactive)
REMARK    1  A    between atoms: N_8  and  C_29
REMARK    2  A    between atoms: C_11  and  C_17
REMARK    3  A    between atoms: C_12  and  C_26
REMARK    4  A    between atoms: C_21  and  C_23
REMARK    5  A    between atoms: C_29  and  C_30
REMARK    6  A    between atoms: C_29  and  C_32
REMARK    7  A    between atoms: C_30  and  C_31
REMARK                            x       y       z     vdW  Elec       q    Type
REMARK                         _______ _______ _______ _____ _____    ______ ____
ROOT
ATOM      1  O   UNL     1      10.211   4.496   5.503  0.00  0.00    -0.275 OA
ATOM      2  O   UNL     1      12.198   5.868  -1.418  0.00  0.00    -0.275 OA
ATOM      5  N   UNL     1      10.936   5.379   3.477  0.00  0.00    -0.287 N 
ATOM      6  N   UNL     1      11.817   5.036   0.719  0.00  0.00    -0.298 N 
ATOM     12  C   UNL     1      11.152   6.535   2.597  0.00  0.00    +0.179 C 
ATOM     15  C   UNL     1      11.002   6.187   1.116  0.00  0.00    +0.139 C 
ATOM     16  C   UNL     1      10.999   4.054   2.854  0.00  0.00    +0.127 C 
ATOM     17  C   UNL     1      10.524   5.469   4.812  0.00  0.00    +0.219 C 
ATOM     18  C   UNL     1      12.014   3.984   1.721  0.00  0.00    +0.127 C 
ATOM     23  C   UNL     1      12.357   4.989  -0.569  0.00  0.00    +0.219 C 
ENDROOT
BRANCH  23  21
ATOM      7  N   UNL     1      13.892   3.768  -3.745  0.00  0.00    -0.316 NA
ATOM     21  C   UNL     1      13.174   3.773  -0.902  0.00  0.00    +0.078 C 
ATOM     24  C   UNL     1      12.454   2.898  -1.930  0.00  0.00    +0.028 C 
ATOM     25  C   UNL     1      14.566   4.171  -1.399  0.00  0.00    +0.028 C 
ATOM     27  C   UNL     1      12.515   3.490  -3.339  0.00  0.00    +0.081 C 
ATOM     28  C   UNL     1      14.537   4.709  -2.830  0.00  0.00    +0.081 C 
ATOM     40  H   UNL     1      13.894   4.159  -4.687  0.00  0.00    +0.122 HD
ENDBRANCH  23  21
BRANCH  17  11
ATOM     11  C   UNL     1      10.465   6.845   5.409  0.00  0.00    +0.075 C 
ATOM     13  C   UNL     1      11.160   6.857   6.772  0.00  0.00    +0.013 C 
ATOM     14  C   UNL     1       9.024   7.354   5.475  0.00  0.00    +0.013 C 
ATOM     19  C   UNL     1      10.321   6.218   7.877  0.00  0.00    +0.001 C 
ATOM     20  C   UNL     1       8.208   6.726   6.603  0.00  0.00    +0.001 C 
ATOM     22  C   UNL     1       8.924   6.824   7.945  0.00  0.00    +0.000 C 
ENDBRANCH  17  11
BRANCH  12  26
ATOM      3  O   UNL     1      13.496   6.309   3.012  0.00  0.00    -0.274 OA
ATOM      8  N   UNL     1      12.567   8.442   2.930  0.00  0.00    -0.302 N 
ATOM     26  C   UNL     1      12.536   7.060   2.861  0.00  0.00    +0.236 C 
ATOM     41  H   UNL     1      11.723   8.966   2.717  0.00  0.00    +0.150 HD
BRANCH   8  29
ATOM     29  C   UNL     1      13.773   9.193   3.195  0.00  0.00    +0.163 C 
BRANCH  29  32
ATOM      4  O   UNL     1      14.193  10.438   1.152  0.00  0.00    -0.274 OA
ATOM     10  N   UNL     1      15.388   8.514   1.530  0.00  0.00    -0.328 N 
ATOM     32  C   UNL     1      14.439   9.460   1.854  0.00  0.00    +0.231 C 
ATOM     43  H   UNL     1      15.917   8.580   0.667  0.00  0.00    +0.145 HD
ATOM     44  H   UNL     1      15.596   7.723   2.131  0.00  0.00    +0.145 HD
ENDBRANCH  29  32
BRANCH  29  30
ATOM     30  C   UNL     1      13.486  10.513   3.922  0.00  0.00    +0.069 C 
BRANCH  30  31
ATOM      9  N   UNL     1      13.219   9.881   7.540  0.00  0.00    -0.360 N 
ATOM     31  C   UNL     1      13.098  10.311   5.366  0.00  0.00    -0.020 A 
ATOM     33  C   UNL     1      11.793  10.445   5.919  0.00  0.00    +0.003 A 
ATOM     34  C   UNL     1      13.951   9.964   6.388  0.00  0.00    +0.087 A 
ATOM     35  C   UNL     1      11.897  10.169   7.284  0.00  0.00    +0.047 A 
ATOM     36  C   UNL     1      10.531  10.775   5.387  0.00  0.00    +0.010 A 
ATOM     37  C   UNL     1      10.796  10.207   8.148  0.00  0.00    +0.026 A 
ATOM     38  C   UNL     1       9.421  10.816   6.240  0.00  0.00    +0.001 A 
ATOM     39  C   UNL     1       9.555  10.537   7.598  0.00  0.00    +0.002 A 
ATOM     42  H   UNL     1      13.592   9.642   8.448  0.00  0.00    +0.165 HD
ENDBRANCH  30  31
ENDBRANCH  29  30
ENDBRANCH   8  29
ENDBRANCH  12  26
TORSDOF 7
ENDMDL
MODEL 6
REMARK VINA RESULT:      -6.1     25.380     29.174
REMARK  Name = 45361711
REMARK  7 active torsions:
REMARK  status: ('A' for Active; 'I' for Inactive)
REMARK    1  A    between atoms: N_8  and  C_29
REMARK    2  A    between atoms: C_11  and  C_17
REMARK    3  A    between atoms: C_12  and  C_26
REMARK    4  A    between atoms: C_21  and  C_23
REMARK    5  A    between atoms: C_29  and  C_30
REMARK    6  A    between atoms: C_29  and  C_32
REMARK    7  A    between atoms: C_30  and  C_31
REMARK                            x       y       z     vdW  Elec       q    Type
REMARK                         _______ _______ _______ _____ _____    ______ ____
ROOT
ATOM      1  O   UNL     1      10.596   8.599   6.435  0.00  0.00    -0.275 OA
ATOM      2  O   UNL     1      17.893   8.520   5.737  0.00  0.00    -0.275 OA
ATOM      5  N   UNL     1      12.821   8.269   5.843  0.00  0.00    -0.287 N 
ATOM      6  N   UNL     1      15.636   9.012   6.002  0.00  0.00    -0.298 N 
ATOM     12  C   UNL     1      13.864   7.442   5.222  0.00  0.00    +0.179 C 
ATOM     15  C   UNL     1      15.228   7.609   5.891  0.00  0.00    +0.139 C 
ATOM     16  C   UNL     1      13.274   9.370   6.697  0.00  0.00    +0.127 C 
ATOM     17  C   UNL     1      11.452   7.980   5.797  0.00  0.00    +0.219 C 
ATOM     18  C   UNL     1      14.572   9.999   6.210  0.00  0.00    +0.127 C 
ATOM     23  C   UNL     1      16.990   9.342   5.911  0.00  0.00    +0.219 C 
ENDROOT
BRANCH  23  21
ATOM      7  N   UNL     1      20.051  11.312   5.081  0.00  0.00    -0.316 NA
ATOM     21  C   UNL     1      17.328  10.800   6.043  0.00  0.00    +0.078 C 
ATOM     24  C   UNL     1      18.512  11.002   6.992  0.00  0.00    +0.028 C 
ATOM     25  C   UNL     1      17.614  11.420   4.673  0.00  0.00    +0.028 C 
ATOM     27  C   UNL     1      19.844  10.613   6.349  0.00  0.00    +0.081 C 
ATOM     28  C   UNL     1      18.984  11.013   4.127  0.00  0.00    +0.081 C 
ATOM     40  H   UNL     1      20.947  11.030   4.684  0.00  0.00    +0.122 HD
ENDBRANCH  23  21
BRANCH  17  11
ATOM     11  C   UNL     1      11.032   6.840   4.916  0.00  0.00    +0.075 C 
ATOM     13  C   UNL     1       9.921   7.291   3.967  0.00  0.00    +0.013 C 
ATOM     14  C   UNL     1      10.639   5.618   5.749  0.00  0.00    +0.013 C 
ATOM     19  C   UNL     1       8.560   7.412   4.651  0.00  0.00    +0.001 C 
ATOM     20  C   UNL     1       9.264   5.743   6.403  0.00  0.00    +0.001 C 
ATOM     22  C   UNL     1       8.189   6.134   5.396  0.00  0.00    +0.000 C 
ENDBRANCH  17  11
BRANCH  12  26
ATOM      3  O   UNL     1      13.216   8.678   3.281  0.00  0.00    -0.274 OA
ATOM      8  N   UNL     1      14.925   7.108   3.098  0.00  0.00    -0.302 N 
ATOM     26  C   UNL     1      13.955   7.828   3.773  0.00  0.00    +0.236 C 
ATOM     41  H   UNL     1      15.527   6.480   3.623  0.00  0.00    +0.150 HD
BRANCH   8  29
ATOM     29  C   UNL     1      15.197   7.275   1.688  0.00  0.00    +0.163 C 
BRANCH  29  32
ATOM      4  O   UNL     1      16.761   8.814   0.645  0.00  0.00    -0.274 OA
ATOM     10  N   UNL     1      17.340   7.851   2.648  0.00  0.00    -0.328 N 
ATOM     32  C   UNL     1      16.500   8.052   1.573  0.00  0.00    +0.231 C 
ATOM     43  H   UNL     1      18.237   8.320   2.703  0.00  0.00    +0.145 HD
ATOM     44  H   UNL     1      17.100   7.234   3.419  0.00  0.00    +0.145 HD
ENDBRANCH  29  32
BRANCH  29  30
ATOM     30  C   UNL     1      15.308   5.932   0.957  0.00  0.00    +0.069 C 
BRANCH  30  31
ATOM      9  N   UNL     1      13.030   3.210   1.938  0.00  0.00    -0.360 N 
ATOM     31  C   UNL     1      14.167   4.997   1.276  0.00  0.00    -0.020 A 
ATOM     33  C   UNL     1      12.781   5.263   1.101  0.00  0.00    +0.003 A 
ATOM     34  C   UNL     1      14.289   3.728   1.792  0.00  0.00    +0.087 A 
ATOM     35  C   UNL     1      12.090   4.125   1.524  0.00  0.00    +0.047 A 
ATOM     36  C   UNL     1      12.045   6.365   0.622  0.00  0.00    +0.010 A 
ATOM     37  C   UNL     1      10.693   4.034   1.492  0.00  0.00    +0.026 A 
ATOM     38  C   UNL     1      10.648   6.288   0.584  0.00  0.00    +0.001 A 
ATOM     39  C   UNL     1       9.985   5.139   1.013  0.00  0.00    +0.002 A 
ATOM     42  H   UNL     1      12.821   2.289   2.298  0.00  0.00    +0.165 HD
ENDBRANCH  30  31
ENDBRANCH  29  30
ENDBRANCH   8  29
ENDBRANCH  12  26
TORSDOF 7
ENDMDL
MODEL 7
REMARK VINA RESULT:      -6.1      1.975      8.914
REMARK  Name = 45361711
REMARK  7 active torsions:
REMARK  status: ('A' for Active; 'I' for Inactive)
REMARK    1  A    between atoms: N_8  and  C_29
REMARK    2  A    between atoms: C_11  and  C_17
REMARK    3  A    between atoms: C_12  and  C_26
REMARK    4  A    between atoms: C_21  and  C_23
REMARK    5  A    between atoms: C_29  and  C_30
REMARK    6  A    between atoms: C_29  and  C_32
REMARK    7  A    between atoms: C_30  and  C_31
REMARK                            x       y       z     vdW  Elec       q    Type
REMARK                         _______ _______ _______ _____ _____    ______ ____
ROOT
ATOM      1  O   UNL     1      -3.479 -11.242  16.369  0.00  0.00    -0.275 OA
ATOM      2  O   UNL     1      -6.415 -11.483   9.656  0.00  0.00    -0.275 OA
ATOM      5  N   UNL     1      -4.830 -11.380  14.481  0.00  0.00    -0.287 N 
ATOM      6  N   UNL     1      -5.246 -11.035  11.615  0.00  0.00    -0.298 N 
ATOM     12  C   UNL     1      -6.062 -11.842  13.828  0.00  0.00    +0.179 C 
ATOM     15  C   UNL     1      -5.867 -12.145  12.342  0.00  0.00    +0.139 C 
ATOM     16  C   UNL     1      -3.753 -10.915  13.602  0.00  0.00    +0.127 C 
ATOM     17  C   UNL     1      -4.567 -11.503  15.850  0.00  0.00    +0.219 C 
ATOM     18  C   UNL     1      -4.271 -10.222  12.350  0.00  0.00    +0.127 C 
ATOM     23  C   UNL     1      -5.597 -10.805  10.283  0.00  0.00    +0.219 C 
ENDROOT
BRANCH  23  21
ATOM      7  N   UNL     1      -6.626  -8.528   7.509  0.00  0.00    -0.316 NA
ATOM     21  C   UNL     1      -4.910  -9.655   9.604  0.00  0.00    +0.078 C 
ATOM     24  C   UNL     1      -4.694  -9.947   8.118  0.00  0.00    +0.028 C 
ATOM     25  C   UNL     1      -5.700  -8.358   9.797  0.00  0.00    +0.028 C 
ATOM     27  C   UNL     1      -5.987  -9.828   7.309  0.00  0.00    +0.081 C 
ATOM     28  C   UNL     1      -6.951  -8.305   8.918  0.00  0.00    +0.081 C 
ATOM     40  H   UNL     1      -7.481  -8.483   6.956  0.00  0.00    +0.122 HD
ENDBRANCH  23  21
BRANCH  17  11
ATOM     11  C   UNL     1      -5.695 -11.990  16.712  0.00  0.00    +0.075 C 
ATOM     13  C   UNL     1      -6.263 -10.835  17.537  0.00  0.00    +0.013 C 
ATOM     14  C   UNL     1      -5.254 -13.174  17.576  0.00  0.00    +0.013 C 
ATOM     19  C   UNL     1      -5.376 -10.449  18.720  0.00  0.00    +0.001 C 
ATOM     20  C   UNL     1      -4.391 -12.768  18.770  0.00  0.00    +0.001 C 
ATOM     22  C   UNL     1      -5.039 -11.656  19.588  0.00  0.00    +0.000 C 
ENDBRANCH  17  11
BRANCH  12  26
ATOM      3  O   UNL     1      -6.797  -9.598  14.198  0.00  0.00    -0.274 OA
ATOM      8  N   UNL     1      -8.390 -11.274  13.929  0.00  0.00    -0.302 N 
ATOM     26  C   UNL     1      -7.102 -10.771  13.999  0.00  0.00    +0.236 C 
ATOM     41  H   UNL     1      -8.524 -12.252  13.689  0.00  0.00    +0.150 HD
BRANCH   8  29
ATOM     29  C   UNL     1      -9.569 -10.453  14.085  0.00  0.00    +0.163 C 
BRANCH  29  32
ATOM      4  O   UNL     1      -9.642  -9.734  11.765  0.00  0.00    -0.274 OA
ATOM     10  N   UNL     1     -11.425 -10.913  12.606  0.00  0.00    -0.328 N 
ATOM     32  C   UNL     1     -10.193 -10.301  12.706  0.00  0.00    +0.231 C 
ATOM     43  H   UNL     1     -11.945 -10.898  11.735  0.00  0.00    +0.145 HD
ATOM     44  H   UNL     1     -11.858 -11.397  13.386  0.00  0.00    +0.145 HD
ENDBRANCH  29  32
BRANCH  29  30
ATOM     30  C   UNL     1     -10.577 -11.067  15.063  0.00  0.00    +0.069 C 
BRANCH  30  31
ATOM      9  N   UNL     1     -10.043  -9.672  18.430  0.00  0.00    -0.360 N 
ATOM     31  C   UNL     1     -10.256 -10.756  16.505  0.00  0.00    -0.020 A 
ATOM     33  C   UNL     1      -9.689 -11.649  17.457  0.00  0.00    +0.003 A 
ATOM     34  C   UNL     1     -10.462  -9.550  17.133  0.00  0.00    +0.087 A 
ATOM     35  C   UNL     1      -9.566 -10.943  18.656  0.00  0.00    +0.047 A 
ATOM     36  C   UNL     1      -9.267 -12.993  17.414  0.00  0.00    +0.010 A 
ATOM     37  C   UNL     1      -9.040 -11.518  19.819  0.00  0.00    +0.026 A 
ATOM     38  C   UNL     1      -8.739 -13.580  18.569  0.00  0.00    +0.001 A 
ATOM     39  C   UNL     1      -8.628 -12.851  19.752  0.00  0.00    +0.002 A 
ATOM     42  H   UNL     1     -10.077  -8.937  19.122  0.00  0.00    +0.165 HD
ENDBRANCH  30  31
ENDBRANCH  29  30
ENDBRANCH   8  29
ENDBRANCH  12  26
TORSDOF 7
ENDMDL
MODEL 8
REMARK VINA RESULT:      -6.0     22.415     25.585
REMARK  Name = 45361711
REMARK  7 active torsions:
REMARK  status: ('A' for Active; 'I' for Inactive)
REMARK    1  A    between atoms: N_8  and  C_29
REMARK    2  A    between atoms: C_11  and  C_17
REMARK    3  A    between atoms: C_12  and  C_26
REMARK    4  A    between atoms: C_21  and  C_23
REMARK    5  A    between atoms: C_29  and  C_30
REMARK    6  A    between atoms: C_29  and  C_32
REMARK    7  A    between atoms: C_30  and  C_31
REMARK                            x       y       z     vdW  Elec       q    Type
REMARK                         _______ _______ _______ _____ _____    ______ ____
ROOT
ATOM      1  O   UNL     1       8.680 -13.033  31.007  0.00  0.00    -0.275 OA
ATOM      2  O   UNL     1       7.329  -6.289  33.543  0.00  0.00    -0.275 OA
ATOM      5  N   UNL     1       7.820 -11.084  31.939  0.00  0.00    -0.287 N 
ATOM      6  N   UNL     1       8.175  -8.372  32.952  0.00  0.00    -0.298 N 
ATOM     12  C   UNL     1       6.668 -10.255  32.320  0.00  0.00    +0.179 C 
ATOM     15  C   UNL     1       6.961  -8.758  32.229  0.00  0.00    +0.139 C 
ATOM     16  C   UNL     1       9.127 -10.423  31.912  0.00  0.00    +0.127 C 
ATOM     17  C   UNL     1       7.725 -12.394  31.456  0.00  0.00    +0.219 C 
ATOM     18  C   UNL     1       9.268  -9.350  32.984  0.00  0.00    +0.127 C 
ATOM     23  C   UNL     1       8.241  -7.118  33.564  0.00  0.00    +0.219 C 
ENDROOT
BRANCH  23  21
ATOM      7  N   UNL     1       9.469  -4.041  35.284  0.00  0.00    -0.316 NA
ATOM     21  C   UNL     1       9.522  -6.795  34.278  0.00  0.00    +0.078 C 
ATOM     24  C   UNL     1      10.262  -5.650  33.582  0.00  0.00    +0.028 C 
ATOM     25  C   UNL     1       9.258  -6.462  35.748  0.00  0.00    +0.028 C 
ATOM     27  C   UNL     1       9.612  -4.292  33.851  0.00  0.00    +0.081 C 
ATOM     28  C   UNL     1       8.650  -5.070  35.926  0.00  0.00    +0.081 C 
ATOM     40  H   UNL     1       9.035  -3.129  35.426  0.00  0.00    +0.122 HD
ENDBRANCH  23  21
BRANCH  17  11
ATOM     11  C   UNL     1       6.365 -13.030  31.493  0.00  0.00    +0.075 C 
ATOM     13  C   UNL     1       6.462 -14.441  32.076  0.00  0.00    +0.013 C 
ATOM     14  C   UNL     1       5.709 -13.004  30.111  0.00  0.00    +0.013 C 
ATOM     19  C   UNL     1       7.036 -15.459  31.092  0.00  0.00    +0.001 C 
ATOM     20  C   UNL     1       6.275 -14.047  29.149  0.00  0.00    +0.001 C 
ATOM     22  C   UNL     1       6.287 -15.442  29.764  0.00  0.00    +0.000 C 
ENDBRANCH  17  11
BRANCH  12  26
ATOM      3  O   UNL     1       6.827 -11.545  34.327  0.00  0.00    -0.274 OA
ATOM      8  N   UNL     1       5.279  -9.810  34.223  0.00  0.00    -0.302 N 
ATOM     26  C   UNL     1       6.289 -10.617  33.728  0.00  0.00    +0.236 C 
ATOM     41  H   UNL     1       4.956  -9.025  33.664  0.00  0.00    +0.150 HD
BRANCH   8  29
ATOM     29  C   UNL     1       4.718  -9.966  35.546  0.00  0.00    +0.163 C 
BRANCH  29  32
ATOM      4  O   UNL     1       6.201  -8.197  36.304  0.00  0.00    -0.274 OA
ATOM     10  N   UNL     1       4.034  -8.215  37.065  0.00  0.00    -0.328 N 
ATOM     32  C   UNL     1       5.091  -8.723  36.339  0.00  0.00    +0.231 C 
ATOM     43  H   UNL     1       4.143  -7.379  37.629  0.00  0.00    +0.145 HD
ATOM     44  H   UNL     1       3.116  -8.648  37.067  0.00  0.00    +0.145 HD
ENDBRANCH  29  32
BRANCH  29  30
ATOM     30  C   UNL     1       3.195 -10.142  35.512  0.00  0.00    +0.069 C 
BRANCH  30  31
ATOM      9  N   UNL     1       2.028 -13.381  36.821  0.00  0.00    -0.360 N 
ATOM     31  C   UNL     1       2.766 -11.564  35.782  0.00  0.00    -0.020 A 
ATOM     33  C   UNL     1       2.751 -12.635  34.846  0.00  0.00    +0.003 A 
ATOM     34  C   UNL     1       2.316 -12.053  36.986  0.00  0.00    +0.087 A 
ATOM     35  C   UNL     1       2.284 -13.764  35.524  0.00  0.00    +0.047 A 
ATOM     36  C   UNL     1       3.092 -12.754  33.484  0.00  0.00    +0.010 A 
ATOM     37  C   UNL     1       2.140 -15.011  34.904  0.00  0.00    +0.026 A 
ATOM     38  C   UNL     1       2.952 -13.995  32.852  0.00  0.00    +0.001 A 
ATOM     39  C   UNL     1       2.483 -15.104  33.553  0.00  0.00    +0.002 A 
ATOM     42  H   UNL     1       1.678 -13.993  37.545  0.00  0.00    +0.165 HD
ENDBRANCH  30  31
ENDBRANCH  29  30
ENDBRANCH   8  29
ENDBRANCH  12  26
TORSDOF 7
ENDMDL
MODEL 9
REMARK VINA RESULT:      -5.9     24.283     27.661
REMARK  Name = 45361711
REMARK  7 active torsions:
REMARK  status: ('A' for Active; 'I' for Inactive)
REMARK    1  A    between atoms: N_8  and  C_29
REMARK    2  A    between atoms: C_11  and  C_17
REMARK    3  A    between atoms: C_12  and  C_26
REMARK    4  A    between atoms: C_21  and  C_23
REMARK    5  A    between atoms: C_29  and  C_30
REMARK    6  A    between atoms: C_29  and  C_32
REMARK    7  A    between atoms: C_30  and  C_31
REMARK                            x       y       z     vdW  Elec       q    Type
REMARK                         _______ _______ _______ _____ _____    ______ ____
ROOT
ATOM      1  O   UNL     1      10.786   5.220   5.356  0.00  0.00    -0.275 OA
ATOM      2  O   UNL     1      10.520   4.051  -1.876  0.00  0.00    -0.275 OA
ATOM      5  N   UNL     1      10.567   5.317   3.043  0.00  0.00    -0.287 N 
ATOM      6  N   UNL     1      11.015   4.189   0.391  0.00  0.00    -0.298 N 
ATOM     12  C   UNL     1       9.972   5.926   1.845  0.00  0.00    +0.179 C 
ATOM     15  C   UNL     1       9.788   4.926   0.703  0.00  0.00    +0.139 C 
ATOM     16  C   UNL     1      11.230   4.023   2.864  0.00  0.00    +0.127 C 
ATOM     17  C   UNL     1      10.403   5.809   4.342  0.00  0.00    +0.219 C 
ATOM     18  C   UNL     1      11.915   3.892   1.511  0.00  0.00    +0.127 C 
ATOM     23  C   UNL     1      11.270   3.806  -0.928  0.00  0.00    +0.219 C 
ENDROOT
BRANCH  23  21
ATOM      7  N   UNL     1      13.519   3.506  -3.892  0.00  0.00    -0.316 NA
ATOM     21  C   UNL     1      12.544   3.047  -1.164  0.00  0.00    +0.078 C 
ATOM     24  C   UNL     1      12.367   2.020  -2.285  0.00  0.00    +0.028 C 
ATOM     25  C   UNL     1      13.698   4.003  -1.475  0.00  0.00    +0.028 C 
ATOM     27  C   UNL     1      12.340   2.671  -3.669  0.00  0.00    +0.081 C 
ATOM     28  C   UNL     1      13.615   4.571  -2.893  0.00  0.00    +0.081 C 
ATOM     40  H   UNL     1      13.468   3.921  -4.822  0.00  0.00    +0.122 HD
ENDBRANCH  23  21
BRANCH  17  11
ATOM     11  C   UNL     1       9.711   7.135   4.480  0.00  0.00    +0.075 C 
ATOM     13  C   UNL     1      10.558   8.085   5.328  0.00  0.00    +0.013 C 
ATOM     14  C   UNL     1       8.292   6.959   5.027  0.00  0.00    +0.013 C 
ATOM     19  C   UNL     1      10.499   7.771   6.822  0.00  0.00    +0.001 C 
ATOM     20  C   UNL     1       8.250   6.674   6.528  0.00  0.00    +0.001 C 
ATOM     22  C   UNL     1       9.061   7.690   7.323  0.00  0.00    +0.000 C 
ENDBRANCH  17  11
BRANCH  12  26
ATOM      3  O   UNL     1      11.965   7.244   1.931  0.00  0.00    -0.274 OA
ATOM      8  N   UNL     1      10.314   7.797   0.385  0.00  0.00    -0.302 N 
ATOM     26  C   UNL     1      10.873   7.045   1.404  0.00  0.00    +0.236 C 
ATOM     41  H   UNL     1       9.433   7.496  -0.024  0.00  0.00    +0.150 HD
BRANCH   8  29
ATOM     29  C   UNL     1      10.968   8.944  -0.202  0.00  0.00    +0.163 C 
BRANCH  29  32
ATOM      4  O   UNL     1      11.372   9.551  -2.520  0.00  0.00    -0.274 OA
ATOM     10  N   UNL     1      10.790   7.382  -2.038  0.00  0.00    -0.328 N 
ATOM     32  C   UNL     1      11.055   8.692  -1.700  0.00  0.00    +0.231 C 
ATOM     43  H   UNL     1      10.827   7.075  -3.004  0.00  0.00    +0.145 HD
ATOM     44  H   UNL     1      10.551   6.678  -1.346  0.00  0.00    +0.145 HD
ENDBRANCH  29  32
BRANCH  29  30
ATOM     30  C   UNL     1      10.213  10.249   0.078  0.00  0.00    +0.069 C 
BRANCH  30  31
ATOM      9  N   UNL     1       6.642   9.513   0.602  0.00  0.00    -0.360 N 
ATOM     31  C   UNL     1       8.804  10.014   0.566  0.00  0.00    -0.020 A 
ATOM     33  C   UNL     1       8.334  10.167   1.901  0.00  0.00    +0.003 A 
ATOM     34  C   UNL     1       7.741   9.612  -0.208  0.00  0.00    +0.087 A 
ATOM     35  C   UNL     1       6.975   9.847   1.895  0.00  0.00    +0.047 A 
ATOM     36  C   UNL     1       8.937  10.550   3.116  0.00  0.00    +0.010 A 
ATOM     37  C   UNL     1       6.184   9.890   3.050  0.00  0.00    +0.026 A 
ATOM     38  C   UNL     1       8.158  10.596   4.278  0.00  0.00    +0.001 A 
ATOM     39  C   UNL     1       6.803  10.271   4.243  0.00  0.00    +0.002 A 
ATOM     42  H   UNL     1       5.720   9.237   0.296  0.00  0.00    +0.165 HD
ENDBRANCH  30  31
ENDBRANCH  29  30
ENDBRANCH   8  29
ENDBRANCH  12  26
TORSDOF 7
ENDMDL
MODEL 10
REMARK VINA RESULT:      -5.9     24.190     27.893
REMARK  Name = 45361711
REMARK  7 active torsions:
REMARK  status: ('A' for Active; 'I' for Inactive)
REMARK    1  A    between atoms: N_8  and  C_29
REMARK    2  A    between atoms: C_11  and  C_17
REMARK    3  A    between atoms: C_12  and  C_26
REMARK    4  A    between atoms: C_21  and  C_23
REMARK    5  A    between atoms: C_29  and  C_30
REMARK    6  A    between atoms: C_29  and  C_32
REMARK    7  A    between atoms: C_30  and  C_31
REMARK                            x       y       z     vdW  Elec       q    Type
REMARK                         _______ _______ _______ _____ _____    ______ ____
ROOT
ATOM      1  O   UNL     1      11.586  -6.716  34.551  0.00  0.00    -0.275 OA
ATOM      2  O   UNL     1       5.914  -3.399  37.800  0.00  0.00    -0.275 OA
ATOM      5  N   UNL     1       9.529  -6.033  35.392  0.00  0.00    -0.287 N 
ATOM      6  N   UNL     1       7.933  -4.371  37.180  0.00  0.00    -0.298 N 
ATOM     12  C   UNL     1       8.062  -6.018  35.312  0.00  0.00    +0.179 C 
ATOM     15  C   UNL     1       7.454  -4.718  35.839  0.00  0.00    +0.139 C 
ATOM     16  C   UNL     1      10.151  -5.041  36.274  0.00  0.00    +0.127 C 
ATOM     17  C   UNL     1      10.356  -6.811  34.575  0.00  0.00    +0.219 C 
ATOM     18  C   UNL     1       9.313  -4.742  37.509  0.00  0.00    +0.127 C 
ATOM     23  C   UNL     1       7.076  -3.715  38.066  0.00  0.00    +0.219 C 
ENDROOT
BRANCH  23  21
ATOM      7  N   UNL     1       5.491  -3.071  41.385  0.00  0.00    -0.316 NA
ATOM     21  C   UNL     1       7.643  -3.387  39.418  0.00  0.00    +0.078 C 
ATOM     24  C   UNL     1       7.159  -2.016  39.895  0.00  0.00    +0.028 C 
ATOM     25  C   UNL     1       7.293  -4.475  40.435  0.00  0.00    +0.028 C 
ATOM     27  C   UNL     1       5.703  -2.046  40.364  0.00  0.00    +0.081 C 
ATOM     28  C   UNL     1       5.832  -4.402  40.882  0.00  0.00    +0.081 C 
ATOM     40  H   UNL     1       4.513  -3.061  41.675  0.00  0.00    +0.122 HD
ENDBRANCH  23  21
BRANCH  17  11
ATOM     11  C   UNL     1       9.677  -7.808  33.681  0.00  0.00    +0.075 C 
ATOM     13  C   UNL     1      10.005  -9.231  34.137  0.00  0.00    +0.013 C 
ATOM     14  C   UNL     1      10.032  -7.561  32.213  0.00  0.00    +0.013 C 
ATOM     19  C   UNL     1      11.414  -9.675  33.752  0.00  0.00    +0.001 C 
ATOM     20  C   UNL     1      11.435  -8.037  31.838  0.00  0.00    +0.001 C 
ATOM     22  C   UNL     1      11.678  -9.480  32.263  0.00  0.00    +0.000 C 
ENDBRANCH  17  11
BRANCH  12  26
ATOM      3  O   UNL     1       8.303  -7.934  36.722  0.00  0.00    -0.274 OA
ATOM      8  N   UNL     1       6.170  -7.299  36.040  0.00  0.00    -0.302 N 
ATOM     26  C   UNL     1       7.547  -7.183  36.110  0.00  0.00    +0.236 C 
ATOM     41  H   UNL     1       5.638  -6.577  35.561  0.00  0.00    +0.150 HD
BRANCH   8  29
ATOM     29  C   UNL     1       5.430  -8.350  36.700  0.00  0.00    +0.163 C 
BRANCH  29  32
ATOM      4  O   UNL     1       3.784  -8.299  38.487  0.00  0.00    -0.274 OA
ATOM     10  N   UNL     1       4.626  -6.308  37.714  0.00  0.00    -0.328 N 
ATOM     32  C   UNL     1       4.513  -7.682  37.715  0.00  0.00    +0.231 C 
ATOM     43  H   UNL     1       4.080  -5.739  38.352  0.00  0.00    +0.145 HD
ATOM     44  H   UNL     1       5.251  -5.812  37.085  0.00  0.00    +0.145 HD
ENDBRANCH  29  32
BRANCH  29  30
ATOM     30  C   UNL     1       4.612  -9.191  35.714  0.00  0.00    +0.069 C 
BRANCH  30  31
ATOM      9  N   UNL     1       6.700 -11.498  33.743  0.00  0.00    -0.360 N 
ATOM     31  C   UNL     1       5.475  -9.923  34.715  0.00  0.00    -0.020 A 
ATOM     33  C   UNL     1       5.925  -9.424  33.460  0.00  0.00    +0.003 A 
ATOM     34  C   UNL     1       5.967 -11.199  34.859  0.00  0.00    +0.087 A 
ATOM     35  C   UNL     1       6.692 -10.432  32.871  0.00  0.00    +0.047 A 
ATOM     36  C   UNL     1       5.755  -8.209  32.768  0.00  0.00    +0.010 A 
ATOM     37  C   UNL     1       7.299 -10.285  31.618  0.00  0.00    +0.026 A 
ATOM     38  C   UNL     1       6.356  -8.048  31.514  0.00  0.00    +0.001 A 
ATOM     39  C   UNL     1       7.116  -9.071  30.951  0.00  0.00    +0.002 A 
ATOM     42  H   UNL     1       7.178 -12.373  33.580  0.00  0.00    +0.165 HD
ENDBRANCH  30  31
ENDBRANCH  29  30
ENDBRANCH   8  29
ENDBRANCH  12  26
TORSDOF 7
ENDMDL
