MODEL 1
REMARK VINA RESULT:      -7.3      0.000      0.000
REMARK  Name = 45784008
REMARK  4 active torsions:
REMARK  status: ('A' for Active; 'I' for Inactive)
REMARK    1  A    between atoms: O_6  and  C_27
REMARK    2  A    between atoms: O_6  and  C_28
REMARK    3  A    between atoms: N_9  and  C_18
REMARK    4  A    between atoms: C_10  and  C_14
REMARK                            x       y       z     vdW  Elec       q    Type
REMARK                         _______ _______ _______ _____ _____    ______ ____
ROOT
ATOM      5  O   UNL     1      14.693   6.911  22.409  0.00  0.00    -0.252 OA
ATOM      7  N   UNL     1      13.287   8.177  21.109  0.00  0.00    -0.285 N 
ATOM      9  N   UNL     1      15.534   7.946  20.494  0.00  0.00    -0.269 N 
ATOM     10  C   UNL     1      11.091   8.999  21.507  0.00  0.00    +0.094 C 
ATOM     11  C   UNL     1      11.432   9.157  20.018  0.00  0.00    +0.033 C 
ATOM     12  C   UNL     1      12.122   7.958  21.959  0.00  0.00    +0.122 C 
ATOM     13  C   UNL     1      12.951   9.029  19.970  0.00  0.00    +0.110 C 
ATOM     15  C   UNL     1      14.535   7.617  21.412  0.00  0.00    +0.306 C 
ATOM     29  H   UNL     1      15.286   8.560  19.725  0.00  0.00    +0.156 HD
ENDROOT
BRANCH  10  14
ATOM      4  O   UNL     1      10.947  10.284  23.581  0.00  0.00    -0.439 OA
ATOM      8  N   UNL     1      11.264  11.537  21.718  0.00  0.00    -0.213 NA
ATOM     14  C   UNL     1      11.110  10.335  22.229  0.00  0.00    +0.201 A 
ATOM     16  C   UNL     1      11.004  11.594  23.960  0.00  0.00    +0.155 A 
ATOM     17  C   UNL     1      11.199  12.358  22.818  0.00  0.00    +0.110 A 
ATOM     19  C   UNL     1      10.893  12.108  25.247  0.00  0.00    +0.048 A 
ATOM     20  C   UNL     1      11.293  13.751  22.943  0.00  0.00    +0.031 A 
ATOM     21  C   UNL     1      10.990  13.500  25.353  0.00  0.00    +0.004 A 
ATOM     22  C   UNL     1      11.186  14.307  24.226  0.00  0.00    +0.002 A 
ENDBRANCH  10  14
BRANCH   9  18
ATOM     18  C   UNL     1      16.893   7.548  20.509  0.00  0.00    +0.035 A 
ATOM     23  C   UNL     1      17.288   6.396  19.828  0.00  0.00    +0.027 A 
ATOM     24  C   UNL     1      17.835   8.305  21.204  0.00  0.00    +0.027 A 
ATOM     25  C   UNL     1      18.627   6.002  19.843  0.00  0.00    +0.048 A 
ATOM     26  C   UNL     1      19.173   7.912  21.219  0.00  0.00    +0.048 A 
ATOM     27  C   UNL     1      19.569   6.760  20.539  0.00  0.00    +0.130 A 
BRANCH  27   6
ATOM      6  O   UNL     1      20.875   6.377  20.552  0.00  0.00    -0.406 OA
BRANCH   6  28
ATOM      1  F   UNL     1      22.590   5.204  21.433  0.00  0.00    -0.133 F 
ATOM      2  F   UNL     1      20.756   5.381  22.608  0.00  0.00    -0.133 F 
ATOM      3  F   UNL     1      20.809   4.104  20.804  0.00  0.00    -0.133 F 
ATOM     28  C   UNL     1      21.241   5.259  21.354  0.00  0.00    +0.575 C 
ENDBRANCH   6  28
ENDBRANCH  27   6
ENDBRANCH   9  18
TORSDOF 4
ENDMDL
MODEL 2
REMARK VINA RESULT:      -7.1     28.938     31.721
REMARK  Name = 45784008
REMARK  4 active torsions:
REMARK  status: ('A' for Active; 'I' for Inactive)
REMARK    1  A    between atoms: O_6  and  C_27
REMARK    2  A    between atoms: O_6  and  C_28
REMARK    3  A    between atoms: N_9  and  C_18
REMARK    4  A    between atoms: C_10  and  C_14
REMARK                            x       y       z     vdW  Elec       q    Type
REMARK                         _______ _______ _______ _____ _____    ______ ____
ROOT
ATOM      5  O   UNL     1     -16.743   4.703  27.667  0.00  0.00    -0.252 OA
ATOM      7  N   UNL     1     -16.678   3.765  25.572  0.00  0.00    -0.285 N 
ATOM      9  N   UNL     1     -15.778   2.597  27.389  0.00  0.00    -0.269 N 
ATOM     10  C   UNL     1     -17.103   4.688  23.422  0.00  0.00    +0.094 C 
ATOM     11  C   UNL     1     -17.053   3.157  23.318  0.00  0.00    +0.033 C 
ATOM     12  C   UNL     1     -17.331   4.897  24.923  0.00  0.00    +0.122 C 
ATOM     13  C   UNL     1     -16.356   2.721  24.602  0.00  0.00    +0.110 C 
ATOM     15  C   UNL     1     -16.421   3.754  26.949  0.00  0.00    +0.306 C 
ATOM     29  H   UNL     1     -15.539   1.895  26.696  0.00  0.00    +0.156 HD
ENDROOT
BRANCH  10  14
ATOM      4  O   UNL     1     -15.871   6.688  22.746  0.00  0.00    -0.439 OA
ATOM      8  N   UNL     1     -14.773   4.739  22.378  0.00  0.00    -0.213 NA
ATOM     14  C   UNL     1     -15.860   5.328  22.827  0.00  0.00    +0.201 A 
ATOM     16  C   UNL     1     -14.662   6.986  22.187  0.00  0.00    +0.155 A 
ATOM     17  C   UNL     1     -13.993   5.791  21.963  0.00  0.00    +0.110 A 
ATOM     19  C   UNL     1     -14.157   8.245  21.883  0.00  0.00    +0.048 A 
ATOM     20  C   UNL     1     -12.714   5.828  21.390  0.00  0.00    +0.031 A 
ATOM     21  C   UNL     1     -12.880   8.263  21.312  0.00  0.00    +0.004 A 
ATOM     22  C   UNL     1     -12.171   7.081  21.070  0.00  0.00    +0.002 A 
ENDBRANCH  10  14
BRANCH   9  18
ATOM     18  C   UNL     1     -15.378   2.274  28.709  0.00  0.00    +0.035 A 
ATOM     23  C   UNL     1     -14.593   3.169  29.438  0.00  0.00    +0.027 A 
ATOM     24  C   UNL     1     -15.767   1.063  29.280  0.00  0.00    +0.027 A 
ATOM     25  C   UNL     1     -14.199   2.850  30.738  0.00  0.00    +0.048 A 
ATOM     26  C   UNL     1     -15.372   0.744  30.579  0.00  0.00    +0.048 A 
ATOM     27  C   UNL     1     -14.588   1.638  31.308  0.00  0.00    +0.130 A 
BRANCH  27   6
ATOM      6  O   UNL     1     -14.204   1.328  32.576  0.00  0.00    -0.406 OA
BRANCH   6  28
ATOM      1  F   UNL     1     -14.375   1.585  34.812  0.00  0.00    -0.133 F 
ATOM      2  F   UNL     1     -13.838   3.333  33.615  0.00  0.00    -0.133 F 
ATOM      3  F   UNL     1     -15.894   2.523  33.551  0.00  0.00    -0.133 F 
ATOM     28  C   UNL     1     -14.583   2.207  33.630  0.00  0.00    +0.575 C 
ENDBRANCH   6  28
ENDBRANCH  27   6
ENDBRANCH   9  18
TORSDOF 4
ENDMDL
MODEL 3
REMARK VINA RESULT:      -7.1     15.293     18.257
REMARK  Name = 45784008
REMARK  4 active torsions:
REMARK  status: ('A' for Active; 'I' for Inactive)
REMARK    1  A    between atoms: O_6  and  C_27
REMARK    2  A    between atoms: O_6  and  C_28
REMARK    3  A    between atoms: N_9  and  C_18
REMARK    4  A    between atoms: C_10  and  C_14
REMARK                            x       y       z     vdW  Elec       q    Type
REMARK                         _______ _______ _______ _____ _____    ______ ____
ROOT
ATOM      5  O   UNL     1      13.153   9.210   5.503  0.00  0.00    -0.252 OA
ATOM      7  N   UNL     1      14.394   8.095   3.926  0.00  0.00    -0.285 N 
ATOM      9  N   UNL     1      12.820   6.921   5.198  0.00  0.00    -0.269 N 
ATOM     10  C   UNL     1      16.320   8.747   2.691  0.00  0.00    +0.094 C 
ATOM     11  C   UNL     1      15.724   7.474   2.072  0.00  0.00    +0.033 C 
ATOM     12  C   UNL     1      15.142   9.279   3.516  0.00  0.00    +0.122 C 
ATOM     13  C   UNL     1      14.815   6.922   3.164  0.00  0.00    +0.110 C 
ATOM     15  C   UNL     1      13.420   8.152   4.931  0.00  0.00    +0.306 C 
ATOM     29  H   UNL     1      13.144   6.113   4.677  0.00  0.00    +0.156 HD
ENDROOT
BRANCH  10  14
ATOM      4  O   UNL     1      17.602   8.775   4.772  0.00  0.00    -0.439 OA
ATOM      8  N   UNL     1      18.717   7.922   2.992  0.00  0.00    -0.213 NA
ATOM     14  C   UNL     1      17.603   8.451   3.448  0.00  0.00    +0.201 A 
ATOM     16  C   UNL     1      18.848   8.411   5.192  0.00  0.00    +0.155 A 
ATOM     17  C   UNL     1      19.528   7.889   4.101  0.00  0.00    +0.110 A 
ATOM     19  C   UNL     1      19.376   8.525   6.473  0.00  0.00    +0.048 A 
ATOM     20  C   UNL     1      20.844   7.438   4.275  0.00  0.00    +0.031 A 
ATOM     21  C   UNL     1      20.690   8.070   6.629  0.00  0.00    +0.004 A 
ATOM     22  C   UNL     1      21.411   7.537   5.554  0.00  0.00    +0.002 A 
ENDBRANCH  10  14
BRANCH   9  18
ATOM     18  C   UNL     1      11.808   6.636   6.147  0.00  0.00    +0.035 A 
ATOM     23  C   UNL     1      12.143   6.453   7.490  0.00  0.00    +0.027 A 
ATOM     24  C   UNL     1      10.477   6.537   5.742  0.00  0.00    +0.027 A 
ATOM     25  C   UNL     1      11.147   6.172   8.425  0.00  0.00    +0.048 A 
ATOM     26  C   UNL     1       9.482   6.256   6.676  0.00  0.00    +0.048 A 
ATOM     27  C   UNL     1       9.817   6.073   8.018  0.00  0.00    +0.130 A 
BRANCH  27   6
ATOM      6  O   UNL     1       8.844   5.799   8.931  0.00  0.00    -0.406 OA
BRANCH   6  28
ATOM      1  F   UNL     1       7.952   4.585  10.611  0.00  0.00    -0.133 F 
ATOM      2  F   UNL     1       9.147   3.539   9.110  0.00  0.00    -0.133 F 
ATOM      3  F   UNL     1      10.120   4.867  10.586  0.00  0.00    -0.133 F 
ATOM     28  C   UNL     1       9.032   4.691   9.804  0.00  0.00    +0.575 C 
ENDBRANCH   6  28
ENDBRANCH  27   6
ENDBRANCH   9  18
TORSDOF 4
ENDMDL
MODEL 4
REMARK VINA RESULT:      -7.0      3.291      4.802
REMARK  Name = 45784008
REMARK  4 active torsions:
REMARK  status: ('A' for Active; 'I' for Inactive)
REMARK    1  A    between atoms: O_6  and  C_27
REMARK    2  A    between atoms: O_6  and  C_28
REMARK    3  A    between atoms: N_9  and  C_18
REMARK    4  A    between atoms: C_10  and  C_14
REMARK                            x       y       z     vdW  Elec       q    Type
REMARK                         _______ _______ _______ _____ _____    ______ ____
ROOT
ATOM      5  O   UNL     1      18.367   9.312  21.207  0.00  0.00    -0.252 OA
ATOM      7  N   UNL     1      16.168   8.756  21.561  0.00  0.00    -0.285 N 
ATOM      9  N   UNL     1      17.808   7.088  21.634  0.00  0.00    -0.269 N 
ATOM     10  C   UNL     1      14.160   9.985  21.224  0.00  0.00    +0.094 C 
ATOM     11  C   UNL     1      13.859   8.739  22.070  0.00  0.00    +0.033 C 
ATOM     12  C   UNL     1      15.678  10.119  21.387  0.00  0.00    +0.122 C 
ATOM     13  C   UNL     1      15.067   7.837  21.845  0.00  0.00    +0.110 C 
ATOM     15  C   UNL     1      17.529   8.443  21.451  0.00  0.00    +0.306 C 
ATOM     29  H   UNL     1      17.027   6.462  21.803  0.00  0.00    +0.156 HD
ENDROOT
BRANCH  10  14
ATOM      4  O   UNL     1      12.442   9.196  19.674  0.00  0.00    -0.439 OA
ATOM      8  N   UNL     1      14.192  10.243  18.684  0.00  0.00    -0.213 NA
ATOM     14  C   UNL     1      13.638   9.835  19.805  0.00  0.00    +0.201 A 
ATOM     16  C   UNL     1      12.220   9.203  18.328  0.00  0.00    +0.155 A 
ATOM     17  C   UNL     1      13.292   9.844  17.725  0.00  0.00    +0.110 A 
ATOM     19  C   UNL     1      11.129   8.674  17.647  0.00  0.00    +0.048 A 
ATOM     20  C   UNL     1      13.302   9.982  16.329  0.00  0.00    +0.031 A 
ATOM     21  C   UNL     1      11.155   8.821  16.256  0.00  0.00    +0.004 A 
ATOM     22  C   UNL     1      12.218   9.462  15.608  0.00  0.00    +0.002 A 
ENDBRANCH  10  14
BRANCH   9  18
ATOM     18  C   UNL     1      19.070   6.447  21.587  0.00  0.00    +0.035 A 
ATOM     23  C   UNL     1      19.420   5.679  20.475  0.00  0.00    +0.027 A 
ATOM     24  C   UNL     1      19.963   6.582  22.649  0.00  0.00    +0.027 A 
ATOM     25  C   UNL     1      20.663   5.047  20.428  0.00  0.00    +0.048 A 
ATOM     26  C   UNL     1      21.204   5.950  22.603  0.00  0.00    +0.048 A 
ATOM     27  C   UNL     1      21.555   5.182  21.492  0.00  0.00    +0.130 A 
BRANCH  27   6
ATOM      6  O   UNL     1      22.768   4.566  21.446  0.00  0.00    -0.406 OA
BRANCH   6  28
ATOM      1  F   UNL     1      22.822   2.418  20.755  0.00  0.00    -0.133 F 
ATOM      2  F   UNL     1      24.003   2.963  22.511  0.00  0.00    -0.133 F 
ATOM      3  F   UNL     1      21.798   2.868  22.632  0.00  0.00    -0.133 F 
ATOM     28  C   UNL     1      22.849   3.205  21.854  0.00  0.00    +0.575 C 
ENDBRANCH   6  28
ENDBRANCH  27   6
ENDBRANCH   9  18
TORSDOF 4
ENDMDL
MODEL 5
REMARK VINA RESULT:      -6.9     19.323     21.663
REMARK  Name = 45784008
REMARK  4 active torsions:
REMARK  status: ('A' for Active; 'I' for Inactive)
REMARK    1  A    between atoms: O_6  and  C_27
REMARK    2  A    between atoms: O_6  and  C_28
REMARK    3  A    between atoms: N_9  and  C_18
REMARK    4  A    between atoms: C_10  and  C_14
REMARK                            x       y       z     vdW  Elec       q    Type
REMARK                         _______ _______ _______ _____ _____    ______ ____
ROOT
ATOM      5  O   UNL     1      11.193   3.612   3.105  0.00  0.00    -0.252 OA
ATOM      7  N   UNL     1      11.941   5.060   1.489  0.00  0.00    -0.285 N 
ATOM      9  N   UNL     1      11.176   5.905   3.533  0.00  0.00    -0.269 N 
ATOM     10  C   UNL     1      12.442   4.727  -0.812  0.00  0.00    +0.094 C 
ATOM     11  C   UNL     1      12.996   6.086  -0.362  0.00  0.00    +0.033 C 
ATOM     12  C   UNL     1      12.243   4.007   0.526  0.00  0.00    +0.122 C 
ATOM     13  C   UNL     1      12.254   6.376   0.938  0.00  0.00    +0.110 C 
ATOM     15  C   UNL     1      11.415   4.772   2.755  0.00  0.00    +0.306 C 
ATOM     29  H   UNL     1      11.376   6.812   3.123  0.00  0.00    +0.156 HD
ENDROOT
BRANCH  10  14
ATOM      4  O   UNL     1      10.424   5.969  -1.415  0.00  0.00    -0.439 OA
ATOM      8  N   UNL     1      10.803   4.122  -2.674  0.00  0.00    -0.213 NA
ATOM     14  C   UNL     1      11.210   4.889  -1.687  0.00  0.00    +0.201 A 
ATOM     16  C   UNL     1       9.416   5.869  -2.329  0.00  0.00    +0.155 A 
ATOM     17  C   UNL     1       9.650   4.738  -3.098  0.00  0.00    +0.110 A 
ATOM     19  C   UNL     1       8.333   6.726  -2.491  0.00  0.00    +0.048 A 
ATOM     20  C   UNL     1       8.746   4.413  -4.119  0.00  0.00    +0.031 A 
ATOM     21  C   UNL     1       7.441   6.387  -3.514  0.00  0.00    +0.004 A 
ATOM     22  C   UNL     1       7.641   5.255  -4.313  0.00  0.00    +0.002 A 
ENDBRANCH  10  14
BRANCH   9  18
ATOM     18  C   UNL     1      10.652   5.962   4.847  0.00  0.00    +0.035 A 
ATOM     23  C   UNL     1      11.500   6.225   5.924  0.00  0.00    +0.027 A 
ATOM     24  C   UNL     1       9.291   5.754   5.066  0.00  0.00    +0.027 A 
ATOM     25  C   UNL     1      10.984   6.281   7.220  0.00  0.00    +0.048 A 
ATOM     26  C   UNL     1       8.776   5.808   6.361  0.00  0.00    +0.048 A 
ATOM     27  C   UNL     1       9.622   6.072   7.437  0.00  0.00    +0.130 A 
BRANCH  27   6
ATOM      6  O   UNL     1       9.119   6.127   8.701  0.00  0.00    -0.406 OA
BRANCH   6  28
ATOM      1  F   UNL     1      10.402   5.145  10.277  0.00  0.00    -0.133 F 
ATOM      2  F   UNL     1       8.238   4.863  10.392  0.00  0.00    -0.133 F 
ATOM      3  F   UNL     1       9.414   3.861   8.810  0.00  0.00    -0.133 F 
ATOM     28  C   UNL     1       9.279   4.989   9.541  0.00  0.00    +0.575 C 
ENDBRANCH   6  28
ENDBRANCH  27   6
ENDBRANCH   9  18
TORSDOF 4
ENDMDL
MODEL 6
REMARK VINA RESULT:      -6.8     18.656     20.950
REMARK  Name = 45784008
REMARK  4 active torsions:
REMARK  status: ('A' for Active; 'I' for Inactive)
REMARK    1  A    between atoms: O_6  and  C_27
REMARK    2  A    between atoms: O_6  and  C_28
REMARK    3  A    between atoms: N_9  and  C_18
REMARK    4  A    between atoms: C_10  and  C_14
REMARK                            x       y       z     vdW  Elec       q    Type
REMARK                         _______ _______ _______ _____ _____    ______ ____
ROOT
ATOM      5  O   UNL     1       9.363   9.566   3.717  0.00  0.00    -0.252 OA
ATOM      7  N   UNL     1       7.211   9.993   3.041  0.00  0.00    -0.285 N 
ATOM      9  N   UNL     1       7.590   8.563   4.855  0.00  0.00    -0.269 N 
ATOM     10  C   UNL     1       6.354  11.037   1.083  0.00  0.00    +0.094 C 
ATOM     11  C   UNL     1       5.233  10.909   2.125  0.00  0.00    +0.033 C 
ATOM     12  C   UNL     1       7.609  10.873   1.948  0.00  0.00    +0.122 C 
ATOM     13  C   UNL     1       5.757   9.868   3.107  0.00  0.00    +0.110 C 
ATOM     15  C   UNL     1       8.155   9.379   3.874  0.00  0.00    +0.306 C 
ATOM     29  H   UNL     1       6.580   8.468   4.867  0.00  0.00    +0.156 HD
ENDROOT
BRANCH  10  14
ATOM      4  O   UNL     1       7.323   9.587  -0.630  0.00  0.00    -0.439 OA
ATOM      8  N   UNL     1       5.057   9.570  -0.555  0.00  0.00    -0.213 NA
ATOM     14  C   UNL     1       6.176  10.045  -0.053  0.00  0.00    +0.201 A 
ATOM     16  C   UNL     1       6.877   8.733  -1.596  0.00  0.00    +0.155 A 
ATOM     17  C   UNL     1       5.490   8.724  -1.548  0.00  0.00    +0.110 A 
ATOM     19  C   UNL     1       7.642   7.988  -2.486  0.00  0.00    +0.048 A 
ATOM     20  C   UNL     1       4.786   7.916  -2.451  0.00  0.00    +0.031 A 
ATOM     21  C   UNL     1       6.923   7.187  -3.380  0.00  0.00    +0.004 A 
ATOM     22  C   UNL     1       5.524   7.149  -3.364  0.00  0.00    +0.002 A 
ENDBRANCH  10  14
BRANCH   9  18
ATOM     18  C   UNL     1       8.260   7.805   5.846  0.00  0.00    +0.035 A 
ATOM     23  C   UNL     1       8.657   8.414   7.037  0.00  0.00    +0.027 A 
ATOM     24  C   UNL     1       8.522   6.453   5.634  0.00  0.00    +0.027 A 
ATOM     25  C   UNL     1       9.318   7.669   8.015  0.00  0.00    +0.048 A 
ATOM     26  C   UNL     1       9.182   5.708   6.610  0.00  0.00    +0.048 A 
ATOM     27  C   UNL     1       9.580   6.316   7.801  0.00  0.00    +0.130 A 
BRANCH  27   6
ATOM      6  O   UNL     1      10.224   5.589   8.755  0.00  0.00    -0.406 OA
BRANCH   6  28
ATOM      1  F   UNL     1       8.288   5.323   9.885  0.00  0.00    -0.133 F 
ATOM      2  F   UNL     1       9.157   3.571   8.909  0.00  0.00    -0.133 F 
ATOM      3  F   UNL     1      10.097   4.424  10.719  0.00  0.00    -0.133 F 
ATOM     28  C   UNL     1       9.452   4.712   9.569  0.00  0.00    +0.575 C 
ENDBRANCH   6  28
ENDBRANCH  27   6
ENDBRANCH   9  18
TORSDOF 4
ENDMDL
MODEL 7
REMARK VINA RESULT:      -6.7     28.670     30.827
REMARK  Name = 45784008
REMARK  4 active torsions:
REMARK  status: ('A' for Active; 'I' for Inactive)
REMARK    1  A    between atoms: O_6  and  C_27
REMARK    2  A    between atoms: O_6  and  C_28
REMARK    3  A    between atoms: N_9  and  C_18
REMARK    4  A    between atoms: C_10  and  C_14
REMARK                            x       y       z     vdW  Elec       q    Type
REMARK                         _______ _______ _______ _____ _____    ______ ____
ROOT
ATOM      5  O   UNL     1      -3.538  -9.219   9.704  0.00  0.00    -0.252 OA
ATOM      7  N   UNL     1      -3.112 -11.014  11.071  0.00  0.00    -0.285 N 
ATOM      9  N   UNL     1      -4.524 -11.279   9.224  0.00  0.00    -0.269 N 
ATOM     10  C   UNL     1      -2.087 -11.151  13.213  0.00  0.00    +0.094 C 
ATOM     11  C   UNL     1      -2.201 -12.560  12.611  0.00  0.00    +0.033 C 
ATOM     12  C   UNL     1      -2.245 -10.264  11.973  0.00  0.00    +0.122 C 
ATOM     13  C   UNL     1      -3.233 -12.405  11.500  0.00  0.00    +0.110 C 
ATOM     15  C   UNL     1      -3.719 -10.410   9.962  0.00  0.00    +0.306 C 
ATOM     29  H   UNL     1      -4.616 -12.234   9.553  0.00  0.00    +0.156 HD
ENDROOT
BRANCH  10  14
ATOM      4  O   UNL     1      -2.698 -11.358  15.571  0.00  0.00    -0.439 OA
ATOM      8  N   UNL     1      -4.290 -10.407  14.266  0.00  0.00    -0.213 NA
ATOM     14  C   UNL     1      -3.090 -10.941  14.334  0.00  0.00    +0.201 A 
ATOM     16  C   UNL     1      -3.766 -11.054  16.364  0.00  0.00    +0.155 A 
ATOM     17  C   UNL     1      -4.738 -10.473  15.564  0.00  0.00    +0.110 A 
ATOM     19  C   UNL     1      -3.893 -11.272  17.731  0.00  0.00    +0.048 A 
ATOM     20  C   UNL     1      -5.946 -10.067  16.150  0.00  0.00    +0.031 A 
ATOM     21  C   UNL     1      -5.104 -10.861  18.300  0.00  0.00    +0.004 A 
ATOM     22  C   UNL     1      -6.110 -10.270  17.527  0.00  0.00    +0.002 A 
ENDBRANCH  10  14
BRANCH   9  18
ATOM     18  C   UNL     1      -5.272 -10.988   8.057  0.00  0.00    +0.035 A 
ATOM     23  C   UNL     1      -4.741 -11.277   6.799  0.00  0.00    +0.027 A 
ATOM     24  C   UNL     1      -6.539 -10.415   8.164  0.00  0.00    +0.027 A 
ATOM     25  C   UNL     1      -5.478 -10.991   5.649  0.00  0.00    +0.048 A 
ATOM     26  C   UNL     1      -7.274 -10.128   7.015  0.00  0.00    +0.048 A 
ATOM     27  C   UNL     1      -6.744 -10.416   5.758  0.00  0.00    +0.130 A 
BRANCH  27   6
ATOM      6  O   UNL     1      -7.463 -10.138   4.636  0.00  0.00    -0.406 OA
BRANCH   6  28
ATOM      1  F   UNL     1      -7.668  -8.656   2.946  0.00  0.00    -0.133 F 
ATOM      2  F   UNL     1      -8.877  -8.343   4.740  0.00  0.00    -0.133 F 
ATOM      3  F   UNL     1      -6.695  -7.989   4.785  0.00  0.00    -0.133 F 
ATOM     28  C   UNL     1      -7.677  -8.773   4.293  0.00  0.00    +0.575 C 
ENDBRANCH   6  28
ENDBRANCH  27   6
ENDBRANCH   9  18
TORSDOF 4
ENDMDL
MODEL 8
REMARK VINA RESULT:      -6.7     27.853     30.806
REMARK  Name = 45784008
REMARK  4 active torsions:
REMARK  status: ('A' for Active; 'I' for Inactive)
REMARK    1  A    between atoms: O_6  and  C_27
REMARK    2  A    between atoms: O_6  and  C_28
REMARK    3  A    between atoms: N_9  and  C_18
REMARK    4  A    between atoms: C_10  and  C_14
REMARK                            x       y       z     vdW  Elec       q    Type
REMARK                         _______ _______ _______ _____ _____    ______ ____
ROOT
ATOM      5  O   UNL     1     -14.310   6.092  34.833  0.00  0.00    -0.252 OA
ATOM      7  N   UNL     1     -13.288   7.737  33.600  0.00  0.00    -0.285 N 
ATOM      9  N   UNL     1     -13.546   5.599  32.685  0.00  0.00    -0.269 N 
ATOM     10  C   UNL     1     -12.477   9.888  34.213  0.00  0.00    +0.094 C 
ATOM     11  C   UNL     1     -12.530   9.781  32.682  0.00  0.00    +0.033 C 
ATOM     12  C   UNL     1     -13.410   8.751  34.643  0.00  0.00    +0.122 C 
ATOM     13  C   UNL     1     -12.623   8.282  32.419  0.00  0.00    +0.110 C 
ATOM     15  C   UNL     1     -13.763   6.432  33.783  0.00  0.00    +0.306 C 
ATOM     29  H   UNL     1     -13.059   5.989  31.884  0.00  0.00    +0.156 HD
ENDROOT
BRANCH  10  14
ATOM      4  O   UNL     1     -10.829   8.990  35.779  0.00  0.00    -0.439 OA
ATOM      8  N   UNL     1      -9.994  10.479  34.287  0.00  0.00    -0.213 NA
ATOM     14  C   UNL     1     -11.048   9.827  34.726  0.00  0.00    +0.201 A 
ATOM     16  C   UNL     1      -9.494   9.131  36.027  0.00  0.00    +0.155 A 
ATOM     17  C   UNL     1      -8.986  10.042  35.113  0.00  0.00    +0.110 A 
ATOM     19  C   UNL     1      -8.745   8.493  37.009  0.00  0.00    +0.048 A 
ATOM     20  C   UNL     1      -7.622  10.361  35.160  0.00  0.00    +0.031 A 
ATOM     21  C   UNL     1      -7.385   8.823  37.042  0.00  0.00    +0.004 A 
ATOM     22  C   UNL     1      -6.833   9.737  36.137  0.00  0.00    +0.002 A 
ENDBRANCH  10  14
BRANCH   9  18
ATOM     18  C   UNL     1     -13.900   4.235  32.545  0.00  0.00    +0.035 A 
ATOM     23  C   UNL     1     -15.042   3.744  33.181  0.00  0.00    +0.027 A 
ATOM     24  C   UNL     1     -13.110   3.383  31.775  0.00  0.00    +0.027 A 
ATOM     25  C   UNL     1     -15.391   2.400  33.045  0.00  0.00    +0.048 A 
ATOM     26  C   UNL     1     -13.459   2.040  31.639  0.00  0.00    +0.048 A 
ATOM     27  C   UNL     1     -14.600   1.549  32.274  0.00  0.00    +0.130 A 
BRANCH  27   6
ATOM      6  O   UNL     1     -14.942   0.238  32.140  0.00  0.00    -0.406 OA
BRANCH   6  28
ATOM      1  F   UNL     1     -16.085  -1.338  30.998  0.00  0.00    -0.133 F 
ATOM      2  F   UNL     1     -16.046   0.692  30.190  0.00  0.00    -0.133 F 
ATOM      3  F   UNL     1     -14.234  -0.573  30.122  0.00  0.00    -0.133 F 
ATOM     28  C   UNL     1     -15.319  -0.233  30.851  0.00  0.00    +0.575 C 
ENDBRANCH   6  28
ENDBRANCH  27   6
ENDBRANCH   9  18
TORSDOF 4
ENDMDL
MODEL 9
REMARK VINA RESULT:      -6.7     27.968     30.026
REMARK  Name = 45784008
REMARK  4 active torsions:
REMARK  status: ('A' for Active; 'I' for Inactive)
REMARK    1  A    between atoms: O_6  and  C_27
REMARK    2  A    between atoms: O_6  and  C_28
REMARK    3  A    between atoms: N_9  and  C_18
REMARK    4  A    between atoms: C_10  and  C_14
REMARK                            x       y       z     vdW  Elec       q    Type
REMARK                         _______ _______ _______ _____ _____    ______ ____
ROOT
ATOM      5  O   UNL     1      -7.393 -10.702  10.426  0.00  0.00    -0.252 OA
ATOM      7  N   UNL     1      -7.587  -8.842   9.094  0.00  0.00    -0.285 N 
ATOM      9  N   UNL     1      -5.680  -9.118  10.423  0.00  0.00    -0.269 N 
ATOM     10  C   UNL     1      -9.438  -7.952   7.895  0.00  0.00    +0.094 C 
ATOM     11  C   UNL     1      -8.148  -7.263   7.425  0.00  0.00    +0.033 C 
ATOM     12  C   UNL     1      -8.894  -9.217   8.568  0.00  0.00    +0.122 C 
ATOM     13  C   UNL     1      -7.141  -7.571   8.528  0.00  0.00    +0.110 C 
ATOM     15  C   UNL     1      -6.909  -9.643  10.022  0.00  0.00    +0.306 C 
ATOM     29  H   UNL     1      -5.401  -8.221  10.039  0.00  0.00    +0.156 HD
ENDROOT
BRANCH  10  14
ATOM      4  O   UNL     1     -10.125  -5.694   8.531  0.00  0.00    -0.439 OA
ATOM      8  N   UNL     1     -11.138  -7.350   9.702  0.00  0.00    -0.213 NA
ATOM     14  C   UNL     1     -10.279  -7.029   8.760  0.00  0.00    +0.201 A 
ATOM     16  C   UNL     1     -10.979  -5.116   9.426  0.00  0.00    +0.155 A 
ATOM     17  C   UNL     1     -11.597  -6.131  10.140  0.00  0.00    +0.110 A 
ATOM     19  C   UNL     1     -11.214  -3.759   9.615  0.00  0.00    +0.048 A 
ATOM     20  C   UNL     1     -12.530  -5.793  11.130  0.00  0.00    +0.031 A 
ATOM     21  C   UNL     1     -12.148  -3.439  10.606  0.00  0.00    +0.004 A 
ATOM     22  C   UNL     1     -12.794  -4.433  11.350  0.00  0.00    +0.002 A 
ENDBRANCH  10  14
BRANCH   9  18
ATOM     18  C   UNL     1      -4.756  -9.673  11.341  0.00  0.00    +0.035 A 
ATOM     23  C   UNL     1      -5.171 -10.004  12.632  0.00  0.00    +0.027 A 
ATOM     24  C   UNL     1      -3.433  -9.887  10.958  0.00  0.00    +0.027 A 
ATOM     25  C   UNL     1      -4.261 -10.551  13.538  0.00  0.00    +0.048 A 
ATOM     26  C   UNL     1      -2.523 -10.432  11.863  0.00  0.00    +0.048 A 
ATOM     27  C   UNL     1      -2.937 -10.764  13.153  0.00  0.00    +0.130 A 
BRANCH  27   6
ATOM      6  O   UNL     1      -2.050 -11.298  14.036  0.00  0.00    -0.406 OA
BRANCH   6  28
ATOM      1  F   UNL     1      -0.458 -11.082  15.622  0.00  0.00    -0.133 F 
ATOM      2  F   UNL     1      -1.037  -9.300  14.497  0.00  0.00    -0.133 F 
ATOM      3  F   UNL     1      -2.410 -10.172  15.995  0.00  0.00    -0.133 F 
ATOM     28  C   UNL     1      -1.499 -10.448  15.037  0.00  0.00    +0.575 C 
ENDBRANCH   6  28
ENDBRANCH  27   6
ENDBRANCH   9  18
TORSDOF 4
ENDMDL
MODEL 10
REMARK VINA RESULT:      -6.6     28.544     31.394
REMARK  Name = 45784008
REMARK  4 active torsions:
REMARK  status: ('A' for Active; 'I' for Inactive)
REMARK    1  A    between atoms: O_6  and  C_27
REMARK    2  A    between atoms: O_6  and  C_28
REMARK    3  A    between atoms: N_9  and  C_18
REMARK    4  A    between atoms: C_10  and  C_14
REMARK                            x       y       z     vdW  Elec       q    Type
REMARK                         _______ _______ _______ _____ _____    ______ ____
ROOT
ATOM      5  O   UNL     1      -9.479 -10.887  15.800  0.00  0.00    -0.252 OA
ATOM      7  N   UNL     1      -7.854 -10.799  17.419  0.00  0.00    -0.285 N 
ATOM      9  N   UNL     1      -9.348  -9.013  17.185  0.00  0.00    -0.269 N 
ATOM     10  C   UNL     1      -5.928 -12.145  17.790  0.00  0.00    +0.094 C 
ATOM     11  C   UNL     1      -6.193 -11.282  19.032  0.00  0.00    +0.033 C 
ATOM     12  C   UNL     1      -7.284 -12.097  17.076  0.00  0.00    +0.122 C 
ATOM     13  C   UNL     1      -7.128 -10.188  18.530  0.00  0.00    +0.110 C 
ATOM     15  C   UNL     1      -8.950 -10.270  16.727  0.00  0.00    +0.306 C 
ATOM     29  H   UNL     1      -8.815  -8.594  17.940  0.00  0.00    +0.156 HD
ENDROOT
BRANCH  10  14
ATOM      4  O   UNL     1      -4.917 -11.476  15.667  0.00  0.00    -0.439 OA
ATOM      8  N   UNL     1      -3.528 -11.342  17.454  0.00  0.00    -0.213 NA
ATOM     14  C   UNL     1      -4.728 -11.640  17.007  0.00  0.00    +0.201 A 
ATOM     16  C   UNL     1      -3.706 -11.026  15.226  0.00  0.00    +0.155 A 
ATOM     17  C   UNL     1      -2.859 -10.945  16.321  0.00  0.00    +0.110 A 
ATOM     19  C   UNL     1      -3.350 -10.697  13.923  0.00  0.00    +0.048 A 
ATOM     20  C   UNL     1      -1.542 -10.502  16.128  0.00  0.00    +0.031 A 
ATOM     21  C   UNL     1      -2.033 -10.257  13.749  0.00  0.00    +0.004 A 
ATOM     22  C   UNL     1      -1.146 -10.161  14.827  0.00  0.00    +0.002 A 
ENDBRANCH  10  14
BRANCH   9  18
ATOM     18  C   UNL     1     -10.411  -8.210  16.705  0.00  0.00    +0.035 A 
ATOM     23  C   UNL     1     -11.731  -8.640  16.854  0.00  0.00    +0.027 A 
ATOM     24  C   UNL     1     -10.141  -6.992  16.083  0.00  0.00    +0.027 A 
ATOM     25  C   UNL     1     -12.779  -7.849  16.381  0.00  0.00    +0.048 A 
ATOM     26  C   UNL     1     -11.188  -6.202  15.610  0.00  0.00    +0.048 A 
ATOM     27  C   UNL     1     -12.507  -6.631  15.759  0.00  0.00    +0.130 A 
BRANCH  27   6
ATOM      6  O   UNL     1     -13.530  -5.860  15.298  0.00  0.00    -0.406 OA
BRANCH   6  28
ATOM      1  F   UNL     1     -13.033  -4.644  13.463  0.00  0.00    -0.133 F 
ATOM      2  F   UNL     1     -13.199  -6.813  13.245  0.00  0.00    -0.133 F 
ATOM      3  F   UNL     1     -15.005  -5.580  13.572  0.00  0.00    -0.133 F 
ATOM     28  C   UNL     1     -13.702  -5.739  13.890  0.00  0.00    +0.575 C 
ENDBRANCH   6  28
ENDBRANCH  27   6
ENDBRANCH   9  18
TORSDOF 4
ENDMDL
