REMARK  Name = 56775701
REMARK  6 active torsions:
REMARK  status: ('A' for Active; 'I' for Inactive)
REMARK    1  A    between atoms: N_4  and  C_7
REMARK    2  A    between atoms: N_4  and  C_11
REMARK    3  A    between atoms: C_7  and  C_10
REMARK    4  A    between atoms: C_10  and  C_12
REMARK    5  A    between atoms: C_11  and  C_13
REMARK    6  A    between atoms: C_15  and  C_18
REMARK                            x       y       z     vdW  Elec       q    Type
REMARK                         _______ _______ _______ _____ _____    ______ ____
ROOT
ATOM      2  O   UNL     1      -2.211  -3.831   1.062  0.00  0.00    -0.376 OA
ATOM      7  C   UNL     1      -1.345  -2.233  -0.057  0.00  0.00    +0.072 C 
ATOM      8  C   UNL     1      -2.575  -3.129  -0.149  0.00  0.00    +0.184 C 
ATOM      9  C   UNL     1      -0.979  -3.080   1.157  0.00  0.00    +0.184 C 
ENDROOT
BRANCH   7   4
ATOM      4  N   UNL     1      -1.762  -0.906   0.403  0.00  0.00    -0.302 NA
ATOM     26  H   UNL     1      -1.028  -0.348   0.837  0.00  0.00    +0.123 HD
BRANCH   4  11
ATOM     11  C   UNL     1      -2.344  -0.170  -0.720  0.00  0.00    +0.120 C 
BRANCH  11  13
ATOM      1  F   UNL     1      -1.662   2.572  -0.712  0.00  0.00    -0.205 F 
ATOM     13  C   UNL     1      -3.286   0.897  -0.273  0.00  0.00    +0.002 A 
ATOM     16  C   UNL     1      -2.889   2.234  -0.292  0.00  0.00    +0.128 A 
ATOM     17  C   UNL     1      -4.565   0.555   0.165  0.00  0.00    +0.008 A 
ATOM     19  C   UNL     1      -3.773   3.229   0.126  0.00  0.00    +0.038 A 
ATOM     20  C   UNL     1      -5.448   1.550   0.584  0.00  0.00    +0.000 A 
ATOM     21  C   UNL     1      -5.052   2.887   0.564  0.00  0.00    +0.003 A 
ENDBRANCH  11  13
ENDBRANCH   4  11
ENDBRANCH   7   4
BRANCH   7  10
ATOM     10  C   UNL     1      -0.399  -2.178  -1.217  0.00  0.00    +0.085 C 
BRANCH  10  12
ATOM      3  O   UNL     1       2.990  -1.716  -0.050  0.00  0.00    -0.353 OA
ATOM      5  N   UNL     1       1.895  -2.512  -0.364  0.00  0.00    -0.083 NA
ATOM     12  C   UNL     1       0.956  -1.658  -0.783  0.00  0.00    +0.086 A 
ATOM     14  C   UNL     1       1.397  -0.324  -0.755  0.00  0.00    +0.077 A 
ATOM     15  C   UNL     1       2.681  -0.415  -0.287  0.00  0.00    +0.186 A 
BRANCH  15  18
ATOM      6  N   UNL     1       4.869  -0.011   0.455  0.00  0.00    -0.252 NA
ATOM     18  C   UNL     1       3.721   0.532  -0.009  0.00  0.00    +0.109 A 
ATOM     22  C   UNL     1       3.532   1.890  -0.212  0.00  0.00    +0.031 A 
ATOM     23  C   UNL     1       4.590   2.744   0.080  0.00  0.00    +0.004 A 
ATOM     24  C   UNL     1       5.874   0.850   0.728  0.00  0.00    +0.111 A 
ATOM     25  C   UNL     1       5.786   2.223   0.559  0.00  0.00    +0.020 A 
ENDBRANCH  15  18
ENDBRANCH  10  12
ENDBRANCH   7  10
TORSDOF 6
