MODEL 1
REMARK VINA RESULT:      -6.1      0.000      0.000
REMARK  Name = 75537130
REMARK  3 active torsions:
REMARK  status: ('A' for Active; 'I' for Inactive)
REMARK    1  A    between atoms: N_2  and  C_8
REMARK    2  A    between atoms: N_4  and  C_19
REMARK    3  A    between atoms: C_19  and  C_20
REMARK                            x       y       z     vdW  Elec       q    Type
REMARK                         _______ _______ _______ _____ _____    ______ ____
ROOT
ATOM      1  O   UNL     1      -8.085 -10.810  19.732  0.00  0.00    -0.252 OA
ATOM      2  N   UNL     1      -8.350  -9.871  17.585  0.00  0.00    -0.281 N 
ATOM      3  N   UNL     1      -6.528 -11.118  17.999  0.00  0.00    -0.278 N 
ATOM      4  N   UNL     1      -4.033 -11.292  16.713  0.00  0.00    -0.292 NA
ATOM      7  C   UNL     1      -6.443 -10.809  16.588  0.00  0.00    +0.109 C 
ATOM      9  C   UNL     1      -7.552  -9.781  16.373  0.00  0.00    +0.133 C 
ATOM     10  C   UNL     1      -5.039 -10.323  16.233  0.00  0.00    +0.109 C 
ATOM     13  C   UNL     1      -7.704 -10.627  18.584  0.00  0.00    +0.305 C 
ATOM     14  C   UNL     1      -5.505 -11.943  18.608  0.00  0.00    +0.125 C 
ATOM     15  C   UNL     1      -4.119 -11.457  18.179  0.00  0.00    +0.104 C 
ENDROOT
BRANCH   2   8
ATOM      8  C   UNL     1      -9.577  -9.130  17.749  0.00  0.00    +0.078 C 
ATOM     11  C   UNL     1     -10.787 -10.059  17.610  0.00  0.00    +0.022 C 
ATOM     12  C   UNL     1      -9.648  -7.971  16.751  0.00  0.00    +0.022 C 
ATOM     16  C   UNL     1     -12.102  -9.293  17.726  0.00  0.00    +0.002 C 
ATOM     17  C   UNL     1     -10.964  -7.207  16.871  0.00  0.00    +0.002 C 
ATOM     18  C   UNL     1     -12.168  -8.134  16.734  0.00  0.00    +0.000 C 
ENDBRANCH   2   8
BRANCH   4  19
ATOM     19  C   UNL     1      -2.689 -10.867  16.326  0.00  0.00    +0.158 C 
BRANCH  19  20
ATOM      5  N   UNL     1      -2.055 -12.662  14.696  0.00  0.00    -0.347 N 
ATOM      6  N   UNL     1      -2.224 -10.611  13.859  0.00  0.00    -0.239 NA
ATOM     20  C   UNL     1      -2.326 -11.345  14.945  0.00  0.00    +0.121 A 
ATOM     21  C   UNL     1      -1.762 -12.775  13.366  0.00  0.00    +0.104 A 
ATOM     22  C   UNL     1      -1.873 -11.497  12.871  0.00  0.00    +0.130 A 
ATOM     23  H   UNL     1      -2.070 -13.414  15.370  0.00  0.00    +0.167 HD
ENDBRANCH  19  20
ENDBRANCH   4  19
TORSDOF 3
ENDMDL
MODEL 2
REMARK VINA RESULT:      -6.1     27.126     29.878
REMARK  Name = 75537130
REMARK  3 active torsions:
REMARK  status: ('A' for Active; 'I' for Inactive)
REMARK    1  A    between atoms: N_2  and  C_8
REMARK    2  A    between atoms: N_4  and  C_19
REMARK    3  A    between atoms: C_19  and  C_20
REMARK                            x       y       z     vdW  Elec       q    Type
REMARK                         _______ _______ _______ _____ _____    ______ ____
ROOT
ATOM      1  O   UNL     1      15.712   6.248  19.166  0.00  0.00    -0.252 OA
ATOM      2  N   UNL     1      16.379   7.685  20.913  0.00  0.00    -0.281 N 
ATOM      3  N   UNL     1      14.194   7.226  20.668  0.00  0.00    -0.278 N 
ATOM      4  N   UNL     1      11.881   8.542  21.578  0.00  0.00    -0.292 NA
ATOM      7  C   UNL     1      14.266   8.016  21.879  0.00  0.00    +0.109 C 
ATOM      9  C   UNL     1      15.711   8.509  21.906  0.00  0.00    +0.133 C 
ATOM     10  C   UNL     1      13.211   9.121  21.857  0.00  0.00    +0.109 C 
ATOM     13  C   UNL     1      15.460   6.959  20.129  0.00  0.00    +0.305 C 
ATOM     14  C   UNL     1      12.909   6.732  20.219  0.00  0.00    +0.125 C 
ATOM     15  C   UNL     1      11.870   7.855  20.270  0.00  0.00    +0.104 C 
ENDROOT
BRANCH   2   8
ATOM      8  C   UNL     1      17.804   7.755  20.694  0.00  0.00    +0.078 C 
ATOM     11  C   UNL     1      18.461   6.407  21.006  0.00  0.00    +0.022 C 
ATOM     12  C   UNL     1      18.425   8.882  21.523  0.00  0.00    +0.022 C 
ATOM     16  C   UNL     1      19.976   6.467  20.834  0.00  0.00    +0.002 C 
ATOM     17  C   UNL     1      19.940   8.938  21.348  0.00  0.00    +0.002 C 
ATOM     18  C   UNL     1      20.593   7.594  21.658  0.00  0.00    +0.000 C 
ENDBRANCH   2   8
BRANCH   4  19
ATOM     19  C   UNL     1      10.854   9.583  21.615  0.00  0.00    +0.158 C 
BRANCH  19  20
ATOM      5  N   UNL     1      11.064  10.113  24.055  0.00  0.00    -0.347 N 
ATOM      6  N   UNL     1      11.272  11.837  22.669  0.00  0.00    -0.239 NA
ATOM     20  C   UNL     1      11.067  10.540  22.756  0.00  0.00    +0.121 A 
ATOM     21  C   UNL     1      11.280  11.205  24.846  0.00  0.00    +0.104 A 
ATOM     22  C   UNL     1      11.406  12.256  23.969  0.00  0.00    +0.130 A 
ATOM     23  H   UNL     1      10.927   9.163  24.372  0.00  0.00    +0.167 HD
ENDBRANCH  19  20
ENDBRANCH   4  19
TORSDOF 3
ENDMDL
MODEL 3
REMARK VINA RESULT:      -6.0     27.503     29.691
REMARK  Name = 75537130
REMARK  3 active torsions:
REMARK  status: ('A' for Active; 'I' for Inactive)
REMARK    1  A    between atoms: N_2  and  C_8
REMARK    2  A    between atoms: N_4  and  C_19
REMARK    3  A    between atoms: C_19  and  C_20
REMARK                            x       y       z     vdW  Elec       q    Type
REMARK                         _______ _______ _______ _____ _____    ______ ____
ROOT
ATOM      1  O   UNL     1      15.331  10.279  19.080  0.00  0.00    -0.252 OA
ATOM      2  N   UNL     1      15.207   8.147  20.081  0.00  0.00    -0.281 N 
ATOM      3  N   UNL     1      13.421   9.504  20.208  0.00  0.00    -0.278 N 
ATOM      4  N   UNL     1      11.198   9.534  21.931  0.00  0.00    -0.292 NA
ATOM      7  C   UNL     1      12.975   8.261  20.800  0.00  0.00    +0.109 C 
ATOM      9  C   UNL     1      14.254   7.433  20.914  0.00  0.00    +0.133 C 
ATOM     10  C   UNL     1      12.262   8.527  22.125  0.00  0.00    +0.109 C 
ATOM     13  C   UNL     1      14.728   9.419  19.706  0.00  0.00    +0.305 C 
ATOM     14  C   UNL     1      12.496  10.614  20.106  0.00  0.00    +0.125 C 
ATOM     15  C   UNL     1      11.762  10.806  21.435  0.00  0.00    +0.104 C 
ENDROOT
BRANCH   2   8
ATOM      8  C   UNL     1      16.531   7.636  19.823  0.00  0.00    +0.078 C 
ATOM     11  C   UNL     1      16.456   6.233  19.213  0.00  0.00    +0.022 C 
ATOM     12  C   UNL     1      17.373   7.642  21.102  0.00  0.00    +0.022 C 
ATOM     16  C   UNL     1      17.845   5.646  18.979  0.00  0.00    +0.002 C 
ATOM     17  C   UNL     1      18.761   7.054  20.864  0.00  0.00    +0.002 C 
ATOM     18  C   UNL     1      18.683   5.657  20.254  0.00  0.00    +0.000 C 
ENDBRANCH   2   8
BRANCH   4  19
ATOM     19  C   UNL     1      10.469   9.751  23.180  0.00  0.00    +0.158 C 
BRANCH  19  20
ATOM      5  N   UNL     1      12.328  10.895  24.412  0.00  0.00    -0.347 N 
ATOM      6  N   UNL     1      10.408  12.006  24.311  0.00  0.00    -0.239 NA
ATOM     20  C   UNL     1      11.036  10.904  23.966  0.00  0.00    +0.121 A 
ATOM     21  C   UNL     1      12.537  12.066  25.084  0.00  0.00    +0.104 A 
ATOM     22  C   UNL     1      11.339  12.735  25.008  0.00  0.00    +0.130 A 
ATOM     23  H   UNL     1      13.006  10.158  24.270  0.00  0.00    +0.167 HD
ENDBRANCH  19  20
ENDBRANCH   4  19
TORSDOF 3
ENDMDL
MODEL 4
REMARK VINA RESULT:      -5.9     26.646     28.388
REMARK  Name = 75537130
REMARK  3 active torsions:
REMARK  status: ('A' for Active; 'I' for Inactive)
REMARK    1  A    between atoms: N_2  and  C_8
REMARK    2  A    between atoms: N_4  and  C_19
REMARK    3  A    between atoms: C_19  and  C_20
REMARK                            x       y       z     vdW  Elec       q    Type
REMARK                         _______ _______ _______ _____ _____    ______ ____
ROOT
ATOM      1  O   UNL     1      14.423  11.253  23.176  0.00  0.00    -0.252 OA
ATOM      2  N   UNL     1      12.108  11.233  22.725  0.00  0.00    -0.281 N 
ATOM      3  N   UNL     1      13.340   9.454  22.122  0.00  0.00    -0.278 N 
ATOM      4  N   UNL     1      12.882   7.387  20.271  0.00  0.00    -0.292 NA
ATOM      7  C   UNL     1      11.977   9.070  21.821  0.00  0.00    +0.109 C 
ATOM      9  C   UNL     1      11.185  10.361  22.019  0.00  0.00    +0.133 C 
ATOM     10  C   UNL     1      11.890   8.471  20.418  0.00  0.00    +0.109 C 
ATOM     13  C   UNL     1      13.418  10.713  22.734  0.00  0.00    +0.305 C 
ATOM     14  C   UNL     1      14.414   8.514  21.872  0.00  0.00    +0.125 C 
ATOM     15  C   UNL     1      14.253   7.896  20.481  0.00  0.00    +0.104 C 
ENDROOT
BRANCH   2   8
ATOM      8  C   UNL     1      11.714  12.534  23.208  0.00  0.00    +0.078 C 
ATOM     11  C   UNL     1      10.843  12.401  24.461  0.00  0.00    +0.022 C 
ATOM     12  C   UNL     1      10.993  13.324  22.111  0.00  0.00    +0.022 C 
ATOM     16  C   UNL     1      10.368  13.762  24.963  0.00  0.00    +0.002 C 
ATOM     17  C   UNL     1      10.520  14.683  22.617  0.00  0.00    +0.002 C 
ATOM     18  C   UNL     1       9.654  14.549  23.867  0.00  0.00    +0.000 C 
ENDBRANCH   2   8
BRANCH   4  19
ATOM     19  C   UNL     1      12.766   6.766  18.952  0.00  0.00    +0.158 C 
BRANCH  19  20
ATOM      5  N   UNL     1      13.291   8.679  17.420  0.00  0.00    -0.347 N 
ATOM      6  N   UNL     1      11.216   7.896  17.312  0.00  0.00    -0.239 NA
ATOM     20  C   UNL     1      12.389   7.767  17.892  0.00  0.00    +0.121 A 
ATOM     21  C   UNL     1      12.654   9.438  16.480  0.00  0.00    +0.104 A 
ATOM     22  C   UNL     1      11.375   8.935  16.431  0.00  0.00    +0.130 A 
ATOM     23  H   UNL     1      14.255   8.775  17.713  0.00  0.00    +0.167 HD
ENDBRANCH  19  20
ENDBRANCH   4  19
TORSDOF 3
ENDMDL
MODEL 5
REMARK VINA RESULT:      -5.9     27.970     30.242
REMARK  Name = 75537130
REMARK  3 active torsions:
REMARK  status: ('A' for Active; 'I' for Inactive)
REMARK    1  A    between atoms: N_2  and  C_8
REMARK    2  A    between atoms: N_4  and  C_19
REMARK    3  A    between atoms: C_19  and  C_20
REMARK                            x       y       z     vdW  Elec       q    Type
REMARK                         _______ _______ _______ _____ _____    ______ ____
ROOT
ATOM      1  O   UNL     1      16.543   9.953  21.311  0.00  0.00    -0.252 OA
ATOM      2  N   UNL     1      15.870   7.875  20.421  0.00  0.00    -0.281 N 
ATOM      3  N   UNL     1      17.897   8.035  21.375  0.00  0.00    -0.278 N 
ATOM      4  N   UNL     1      20.208   6.445  21.164  0.00  0.00    -0.292 NA
ATOM      7  C   UNL     1      17.756   6.630  21.056  0.00  0.00    +0.109 C 
ATOM      9  C   UNL     1      16.486   6.576  20.210  0.00  0.00    +0.133 C 
ATOM     10  C   UNL     1      19.014   6.113  20.360  0.00  0.00    +0.109 C 
ATOM     13  C   UNL     1      16.743   8.771  21.071  0.00  0.00    +0.305 C 
ATOM     14  C   UNL     1      19.102   8.495  22.034  0.00  0.00    +0.125 C 
ATOM     15  C   UNL     1      20.334   7.906  21.341  0.00  0.00    +0.104 C 
ENDROOT
BRANCH   2   8
ATOM      8  C   UNL     1      14.575   8.205  19.878  0.00  0.00    +0.078 C 
ATOM     11  C   UNL     1      13.681   6.962  19.826  0.00  0.00    +0.022 C 
ATOM     12  C   UNL     1      14.715   8.849  18.496  0.00  0.00    +0.022 C 
ATOM     16  C   UNL     1      12.322   7.272  19.205  0.00  0.00    +0.002 C 
ATOM     17  C   UNL     1      13.353   9.157  17.879  0.00  0.00    +0.002 C 
ATOM     18  C   UNL     1      12.464   7.918  17.830  0.00  0.00    +0.000 C 
ENDBRANCH   2   8
BRANCH   4  19
ATOM     19  C   UNL     1      21.412   5.902  20.537  0.00  0.00    +0.158 C 
BRANCH  19  20
ATOM      5  N   UNL     1      22.717   3.765  20.645  0.00  0.00    -0.347 N 
ATOM      6  N   UNL     1      21.703   4.374  22.524  0.00  0.00    -0.239 NA
ATOM     20  C   UNL     1      21.927   4.691  21.268  0.00  0.00    +0.121 A 
ATOM     21  C   UNL     1      23.016   2.797  21.561  0.00  0.00    +0.104 A 
ATOM     22  C   UNL     1      22.379   3.195  22.713  0.00  0.00    +0.130 A 
ATOM     23  H   UNL     1      23.026   3.792  19.682  0.00  0.00    +0.167 HD
ENDBRANCH  19  20
ENDBRANCH   4  19
TORSDOF 3
ENDMDL
MODEL 6
REMARK VINA RESULT:      -5.8     18.179     20.002
REMARK  Name = 75537130
REMARK  3 active torsions:
REMARK  status: ('A' for Active; 'I' for Inactive)
REMARK    1  A    between atoms: N_2  and  C_8
REMARK    2  A    between atoms: N_4  and  C_19
REMARK    3  A    between atoms: C_19  and  C_20
REMARK                            x       y       z     vdW  Elec       q    Type
REMARK                         _______ _______ _______ _____ _____    ______ ____
ROOT
ATOM      1  O   UNL     1     -15.775   7.307  19.644  0.00  0.00    -0.252 OA
ATOM      2  N   UNL     1     -13.630   6.962  20.561  0.00  0.00    -0.281 N 
ATOM      3  N   UNL     1     -15.344   5.732  21.333  0.00  0.00    -0.278 N 
ATOM      4  N   UNL     1     -15.694   4.272  23.711  0.00  0.00    -0.292 NA
ATOM      7  C   UNL     1     -14.180   5.192  22.003  0.00  0.00    +0.109 C 
ATOM      9  C   UNL     1     -13.068   6.177  21.648  0.00  0.00    +0.133 C 
ATOM     10  C   UNL     1     -14.450   5.040  23.499  0.00  0.00    +0.109 C 
ATOM     13  C   UNL     1     -15.014   6.736  20.412  0.00  0.00    +0.305 C 
ATOM     14  C   UNL     1     -16.644   5.146  21.587  0.00  0.00    +0.125 C 
ATOM     15  C   UNL     1     -16.847   4.957  23.092  0.00  0.00    +0.104 C 
ENDROOT
BRANCH   2   8
ATOM      8  C   UNL     1     -12.856   7.950  19.851  0.00  0.00    +0.078 C 
ATOM     11  C   UNL     1     -11.726   7.282  19.062  0.00  0.00    +0.022 C 
ATOM     12  C   UNL     1     -12.311   9.008  20.816  0.00  0.00    +0.022 C 
ATOM     16  C   UNL     1     -10.857   8.311  18.343  0.00  0.00    +0.002 C 
ATOM     17  C   UNL     1     -11.443  10.034  20.093  0.00  0.00    +0.002 C 
ATOM     18  C   UNL     1     -10.319   9.366  19.306  0.00  0.00    +0.000 C 
ENDBRANCH   2   8
BRANCH   4  19
ATOM     19  C   UNL     1     -15.929   4.068  25.140  0.00  0.00    +0.158 C 
BRANCH  19  20
ATOM      5  N   UNL     1     -16.608   2.245  26.720  0.00  0.00    -0.347 N 
ATOM      6  N   UNL     1     -16.631   1.714  24.564  0.00  0.00    -0.239 NA
ATOM     20  C   UNL     1     -16.390   2.666  25.438  0.00  0.00    +0.121 A 
ATOM     21  C   UNL     1     -17.012   0.942  26.661  0.00  0.00    +0.104 A 
ATOM     22  C   UNL     1     -17.020   0.637  25.320  0.00  0.00    +0.130 A 
ATOM     23  H   UNL     1     -16.491   2.797  27.560  0.00  0.00    +0.167 HD
ENDBRANCH  19  20
ENDBRANCH   4  19
TORSDOF 3
ENDMDL
MODEL 7
REMARK VINA RESULT:      -5.7      1.849      7.485
REMARK  Name = 75537130
REMARK  3 active torsions:
REMARK  status: ('A' for Active; 'I' for Inactive)
REMARK    1  A    between atoms: N_2  and  C_8
REMARK    2  A    between atoms: N_4  and  C_19
REMARK    3  A    between atoms: C_19  and  C_20
REMARK                            x       y       z     vdW  Elec       q    Type
REMARK                         _______ _______ _______ _____ _____    ______ ____
ROOT
ATOM      1  O   UNL     1      -5.070 -12.229  18.209  0.00  0.00    -0.252 OA
ATOM      2  N   UNL     1      -5.105 -10.706  16.408  0.00  0.00    -0.281 N 
ATOM      3  N   UNL     1      -6.767 -10.629  17.918  0.00  0.00    -0.278 N 
ATOM      4  N   UNL     1      -9.358  -9.542  17.811  0.00  0.00    -0.292 NA
ATOM      7  C   UNL     1      -7.022  -9.507  17.040  0.00  0.00    +0.109 C 
ATOM      9  C   UNL     1      -6.028  -9.706  15.897  0.00  0.00    +0.133 C 
ATOM     10  C   UNL     1      -8.490  -9.484  16.618  0.00  0.00    +0.109 C 
ATOM     13  C   UNL     1      -5.581 -11.303  17.593  0.00  0.00    +0.305 C 
ATOM     14  C   UNL     1      -7.651 -10.868  19.039  0.00  0.00    +0.125 C 
ATOM     15  C   UNL     1      -9.110 -10.777  18.583  0.00  0.00    +0.104 C 
ENDROOT
BRANCH   2   8
ATOM      8  C   UNL     1      -3.932 -11.111  15.673  0.00  0.00    +0.078 C 
ATOM     11  C   UNL     1      -2.669 -10.525  16.312  0.00  0.00    +0.022 C 
ATOM     12  C   UNL     1      -4.048 -10.706  14.200  0.00  0.00    +0.022 C 
ATOM     16  C   UNL     1      -1.416 -10.894  15.523  0.00  0.00    +0.002 C 
ATOM     17  C   UNL     1      -2.793 -11.076  13.415  0.00  0.00    +0.002 C 
ATOM     18  C   UNL     1      -1.536 -10.494  14.055  0.00  0.00    +0.000 C 
ENDBRANCH   2   8
BRANCH   4  19
ATOM     19  C   UNL     1     -10.766  -9.460  17.422  0.00  0.00    +0.158 C 
BRANCH  19  20
ATOM      5  N   UNL     1     -11.567  -8.299  15.351  0.00  0.00    -0.347 N 
ATOM      6  N   UNL     1     -10.859  -6.975  16.988  0.00  0.00    -0.239 NA
ATOM     20  C   UNL     1     -11.052  -8.222  16.615  0.00  0.00    +0.121 A 
ATOM     21  C   UNL     1     -11.711  -7.021  14.888  0.00  0.00    +0.104 A 
ATOM     22  C   UNL     1     -11.269  -6.223  15.917  0.00  0.00    +0.130 A 
ATOM     23  H   UNL     1     -11.799  -9.145  14.849  0.00  0.00    +0.167 HD
ENDBRANCH  19  20
ENDBRANCH   4  19
TORSDOF 3
ENDMDL
MODEL 8
REMARK VINA RESULT:      -5.5      2.477      7.203
REMARK  Name = 75537130
REMARK  3 active torsions:
REMARK  status: ('A' for Active; 'I' for Inactive)
REMARK    1  A    between atoms: N_2  and  C_8
REMARK    2  A    between atoms: N_4  and  C_19
REMARK    3  A    between atoms: C_19  and  C_20
REMARK                            x       y       z     vdW  Elec       q    Type
REMARK                         _______ _______ _______ _____ _____    ______ ____
ROOT
ATOM      1  O   UNL     1      -4.840 -13.601  13.958  0.00  0.00    -0.252 OA
ATOM      2  N   UNL     1      -3.645 -11.586  14.234  0.00  0.00    -0.281 N 
ATOM      3  N   UNL     1      -4.552 -12.559  16.044  0.00  0.00    -0.278 N 
ATOM      4  N   UNL     1      -5.204 -11.560  18.591  0.00  0.00    -0.292 NA
ATOM      7  C   UNL     1      -3.803 -11.439  16.571  0.00  0.00    +0.109 C 
ATOM      9  C   UNL     1      -3.387 -10.661  15.324  0.00  0.00    +0.133 C 
ATOM     10  C   UNL     1      -4.654 -10.650  17.565  0.00  0.00    +0.109 C 
ATOM     13  C   UNL     1      -4.398 -12.700  14.657  0.00  0.00    +0.305 C 
ATOM     14  C   UNL     1      -5.257 -13.434  16.957  0.00  0.00    +0.125 C 
ATOM     15  C   UNL     1      -6.048 -12.602  17.971  0.00  0.00    +0.104 C 
ENDROOT
BRANCH   2   8
ATOM      8  C   UNL     1      -3.285 -11.281  12.870  0.00  0.00    +0.078 C 
ATOM     11  C   UNL     1      -2.057 -10.367  12.831  0.00  0.00    +0.022 C 
ATOM     12  C   UNL     1      -4.468 -10.657  12.124  0.00  0.00    +0.022 C 
ATOM     16  C   UNL     1      -1.685  -9.985  11.401  0.00  0.00    +0.002 C 
ATOM     17  C   UNL     1      -4.092 -10.276  10.695  0.00  0.00    +0.002 C 
ATOM     18  C   UNL     1      -2.867  -9.367  10.657  0.00  0.00    +0.000 C 
ENDBRANCH   2   8
BRANCH   4  19
ATOM     19  C   UNL     1      -5.971 -10.807  19.582  0.00  0.00    +0.158 C 
BRANCH  19  20
ATOM      5  N   UNL     1      -7.876  -9.911  18.223  0.00  0.00    -0.347 N 
ATOM      6  N   UNL     1      -8.416 -11.397  19.783  0.00  0.00    -0.239 NA
ATOM     20  C   UNL     1      -7.431 -10.731  19.223  0.00  0.00    +0.121 A 
ATOM     21  C   UNL     1      -9.231 -10.064  18.141  0.00  0.00    +0.104 A 
ATOM     22  C   UNL     1      -9.540 -10.986  19.113  0.00  0.00    +0.130 A 
ATOM     23  H   UNL     1      -7.308  -9.303  17.649  0.00  0.00    +0.167 HD
ENDBRANCH  19  20
ENDBRANCH   4  19
TORSDOF 3
ENDMDL
MODEL 9
REMARK VINA RESULT:      -5.5      3.121      8.132
REMARK  Name = 75537130
REMARK  3 active torsions:
REMARK  status: ('A' for Active; 'I' for Inactive)
REMARK    1  A    between atoms: N_2  and  C_8
REMARK    2  A    between atoms: N_4  and  C_19
REMARK    3  A    between atoms: C_19  and  C_20
REMARK                            x       y       z     vdW  Elec       q    Type
REMARK                         _______ _______ _______ _____ _____    ______ ____
ROOT
ATOM      1  O   UNL     1      -8.054 -11.391  14.560  0.00  0.00    -0.252 OA
ATOM      2  N   UNL     1      -7.548 -10.634  16.736  0.00  0.00    -0.281 N 
ATOM      3  N   UNL     1      -9.389  -9.844  15.719  0.00  0.00    -0.278 N 
ATOM      4  N   UNL     1     -10.956  -7.553  16.177  0.00  0.00    -0.292 NA
ATOM      7  C   UNL     1      -9.444  -9.285  17.054  0.00  0.00    +0.109 C 
ATOM      9  C   UNL     1      -8.084  -9.640  17.652  0.00  0.00    +0.133 C 
ATOM     10  C   UNL     1      -9.747  -7.789  16.993  0.00  0.00    +0.109 C 
ATOM     13  C   UNL     1      -8.302 -10.712  15.547  0.00  0.00    +0.305 C 
ATOM     14  C   UNL     1     -10.455  -9.550  14.783  0.00  0.00    +0.125 C 
ATOM     15  C   UNL     1     -10.766  -8.052  14.800  0.00  0.00    +0.104 C 
ENDROOT
BRANCH   2   8
ATOM      8  C   UNL     1      -6.307 -11.322  16.994  0.00  0.00    +0.078 C 
ATOM     11  C   UNL     1      -6.295 -11.895  18.414  0.00  0.00    +0.022 C 
ATOM     12  C   UNL     1      -5.113 -10.391  16.760  0.00  0.00    +0.022 C 
ATOM     16  C   UNL     1      -4.970 -12.583  18.732  0.00  0.00    +0.002 C 
ATOM     17  C   UNL     1      -3.791 -11.082  17.079  0.00  0.00    +0.002 C 
ATOM     18  C   UNL     1      -3.782 -11.655  18.494  0.00  0.00    +0.000 C 
ENDBRANCH   2   8
BRANCH   4  19
ATOM     19  C   UNL     1     -11.291  -6.130  16.162  0.00  0.00    +0.158 C 
BRANCH  19  20
ATOM      5  N   UNL     1     -11.925  -5.013  14.010  0.00  0.00    -0.347 N 
ATOM      6  N   UNL     1     -13.530  -6.188  15.000  0.00  0.00    -0.239 NA
ATOM     20  C   UNL     1     -12.276  -5.797  15.074  0.00  0.00    +0.121 A 
ATOM     21  C   UNL     1     -13.024  -4.896  13.208  0.00  0.00    +0.104 A 
ATOM     22  C   UNL     1     -14.001  -5.629  13.838  0.00  0.00    +0.130 A 
ATOM     23  H   UNL     1     -11.019  -4.596  13.847  0.00  0.00    +0.167 HD
ENDBRANCH  19  20
ENDBRANCH   4  19
TORSDOF 3
ENDMDL
MODEL 10
REMARK VINA RESULT:      -5.3      4.823      7.040
REMARK  Name = 75537130
REMARK  3 active torsions:
REMARK  status: ('A' for Active; 'I' for Inactive)
REMARK    1  A    between atoms: N_2  and  C_8
REMARK    2  A    between atoms: N_4  and  C_19
REMARK    3  A    between atoms: C_19  and  C_20
REMARK                            x       y       z     vdW  Elec       q    Type
REMARK                         _______ _______ _______ _____ _____    ______ ____
ROOT
ATOM      1  O   UNL     1      -2.351 -11.679  14.142  0.00  0.00    -0.252 OA
ATOM      2  N   UNL     1      -4.520 -11.077  14.847  0.00  0.00    -0.281 N 
ATOM      3  N   UNL     1      -3.988 -10.848  12.676  0.00  0.00    -0.278 N 
ATOM      4  N   UNL     1      -5.127  -9.318  10.610  0.00  0.00    -0.292 NA
ATOM      7  C   UNL     1      -5.395 -10.518  12.742  0.00  0.00    +0.109 C 
ATOM      9  C   UNL     1      -5.684 -10.454  14.240  0.00  0.00    +0.133 C 
ATOM     10  C   UNL     1      -5.675  -9.224  11.979  0.00  0.00    +0.109 C 
ATOM     13  C   UNL     1      -3.477 -11.259  13.916  0.00  0.00    +0.305 C 
ATOM     14  C   UNL     1      -3.312 -10.825  11.395  0.00  0.00    +0.125 C 
ATOM     15  C   UNL     1      -3.667  -9.541  10.641  0.00  0.00    +0.104 C 
ENDROOT
BRANCH   2   8
ATOM      8  C   UNL     1      -4.434 -11.320  16.266  0.00  0.00    +0.078 C 
ATOM     11  C   UNL     1      -4.850 -12.758  16.591  0.00  0.00    +0.022 C 
ATOM     12  C   UNL     1      -5.281 -10.307  17.042  0.00  0.00    +0.022 C 
ATOM     16  C   UNL     1      -4.820 -13.027  18.093  0.00  0.00    +0.002 C 
ATOM     17  C   UNL     1      -5.249 -10.580  18.543  0.00  0.00    +0.002 C 
ATOM     18  C   UNL     1      -5.661 -12.013  18.864  0.00  0.00    +0.000 C 
ENDBRANCH   2   8
BRANCH   4  19
ATOM     19  C   UNL     1      -5.442  -8.108   9.851  0.00  0.00    +0.158 C 
BRANCH  19  20
ATOM      5  N   UNL     1      -7.084  -7.334   8.123  0.00  0.00    -0.347 N 
ATOM      6  N   UNL     1      -7.596  -9.228   9.164  0.00  0.00    -0.239 NA
ATOM     20  C   UNL     1      -6.716  -8.256   9.063  0.00  0.00    +0.121 A 
ATOM     21  C   UNL     1      -8.273  -7.743   7.591  0.00  0.00    +0.104 A 
ATOM     22  C   UNL     1      -8.568  -8.914   8.248  0.00  0.00    +0.130 A 
ATOM     23  H   UNL     1      -6.570  -6.501   7.868  0.00  0.00    +0.167 HD
ENDBRANCH  19  20
ENDBRANCH   4  19
TORSDOF 3
ENDMDL
