MODEL 1
REMARK VINA RESULT:      -7.3      0.000      0.000
REMARK  Name = 26743586
REMARK  6 active torsions:
REMARK  status: ('A' for Active; 'I' for Inactive)
REMARK    1  A    between atoms: O_1  and  C_9
REMARK    2  A    between atoms: N_3  and  C_11
REMARK    3  A    between atoms: N_4  and  C_20
REMARK    4  A    between atoms: C_7  and  C_12
REMARK    5  A    between atoms: C_11  and  C_13
REMARK    6  A    between atoms: C_18  and  C_23
REMARK                            x       y       z     vdW  Elec       q    Type
REMARK                         _______ _______ _______ _____ _____    ______ ____
ROOT
ATOM      3  N   UNL     1      12.257  10.932  23.314  0.00  0.00    -0.285 NA
ATOM      7  C   UNL     1      13.309  11.898  22.937  0.00  0.00    +0.149 C 
ATOM      8  C   UNL     1      13.727  12.563  24.263  0.00  0.00    +0.061 C 
ATOM      9  C   UNL     1      12.823  11.939  25.319  0.00  0.00    +0.130 C 
ATOM     10  C   UNL     1      11.624  11.461  24.521  0.00  0.00    +0.116 C 
ENDROOT
BRANCH   7  12
ATOM      2  O   UNL     1      15.227  12.050  21.430  0.00  0.00    -0.336 OA
ATOM      5  N   UNL     1      14.863   9.995  22.242  0.00  0.00    -0.190 NA
ATOM      6  N   UNL     1      16.222  11.233  20.881  0.00  0.00    -0.056 NA
ATOM     12  C   UNL     1      14.471  11.244  22.219  0.00  0.00    +0.245 A 
ATOM     18  C   UNL     1      15.941  10.036  21.406  0.00  0.00    +0.202 A 
BRANCH  18  23
ATOM     23  C   UNL     1      16.717   8.865  21.118  0.00  0.00    +0.022 A 
ATOM     24  C   UNL     1      17.998   8.728  21.653  0.00  0.00    +0.012 A 
ATOM     25  C   UNL     1      16.191   7.862  20.304  0.00  0.00    +0.012 A 
ATOM     26  C   UNL     1      18.752   7.590  21.373  0.00  0.00    +0.001 A 
ATOM     27  C   UNL     1      16.946   6.723  20.025  0.00  0.00    +0.001 A 
ATOM     28  C   UNL     1      18.226   6.587  20.559  0.00  0.00    +0.000 A 
ENDBRANCH  18  23
ENDBRANCH   7  12
BRANCH   9   1
ATOM      1  O   UNL     1      12.457  12.896  26.294  0.00  0.00    -0.390 OA
ATOM     29  H   UNL     1      11.516  12.760  26.498  0.00  0.00    +0.210 HD
ENDBRANCH   9   1
BRANCH   3  11
ATOM     11  C   UNL     1      11.291  10.691  22.250  0.00  0.00    +0.122 C 
BRANCH  11  13
ATOM      4  N   UNL     1      11.377   7.129  21.334  0.00  0.00    -0.349 N 
ATOM     13  C   UNL     1      11.460   9.325  21.639  0.00  0.00    -0.008 A 
ATOM     14  C   UNL     1      12.083   9.025  20.396  0.00  0.00    +0.004 A 
ATOM     15  C   UNL     1      11.037   8.139  22.192  0.00  0.00    +0.091 A 
ATOM     16  C   UNL     1      12.017   7.641  20.228  0.00  0.00    +0.049 A 
ATOM     17  C   UNL     1      12.697   9.802  19.393  0.00  0.00    +0.010 A 
ATOM     19  C   UNL     1      12.537   6.990  19.103  0.00  0.00    +0.026 A 
ATOM     20  C   UNL     1      11.099   5.728  21.571  0.00  0.00    +0.149 C 
ATOM     21  C   UNL     1      13.223   9.165  18.262  0.00  0.00    +0.001 A 
ATOM     22  C   UNL     1      13.143   7.781  18.122  0.00  0.00    +0.002 A 
ENDBRANCH  11  13
ENDBRANCH   3  11
TORSDOF 5
ENDMDL
MODEL 2
REMARK VINA RESULT:      -7.3      2.325      6.758
REMARK  Name = 26743586
REMARK  6 active torsions:
REMARK  status: ('A' for Active; 'I' for Inactive)
REMARK    1  A    between atoms: O_1  and  C_9
REMARK    2  A    between atoms: N_3  and  C_11
REMARK    3  A    between atoms: N_4  and  C_20
REMARK    4  A    between atoms: C_7  and  C_12
REMARK    5  A    between atoms: C_11  and  C_13
REMARK    6  A    between atoms: C_18  and  C_23
REMARK                            x       y       z     vdW  Elec       q    Type
REMARK                         _______ _______ _______ _____ _____    ______ ____
ROOT
ATOM      3  N   UNL     1      13.139   8.053  20.579  0.00  0.00    -0.285 NA
ATOM      7  C   UNL     1      11.838   8.711  20.340  0.00  0.00    +0.149 C 
ATOM      8  C   UNL     1      10.792   7.734  20.911  0.00  0.00    +0.061 C 
ATOM      9  C   UNL     1      11.598   6.539  21.407  0.00  0.00    +0.130 C 
ATOM     10  C   UNL     1      12.878   6.615  20.597  0.00  0.00    +0.116 C 
ENDROOT
BRANCH   7  12
ATOM      2  O   UNL     1      12.211  11.122  20.212  0.00  0.00    -0.336 OA
ATOM      5  N   UNL     1      11.310  10.438  22.145  0.00  0.00    -0.190 NA
ATOM      6  N   UNL     1      12.037  12.274  20.990  0.00  0.00    -0.056 NA
ATOM     12  C   UNL     1      11.757  10.087  20.965  0.00  0.00    +0.245 A 
ATOM     18  C   UNL     1      11.501  11.789  22.114  0.00  0.00    +0.202 A 
BRANCH  18  23
ATOM     23  C   UNL     1      11.146  12.626  23.223  0.00  0.00    +0.022 A 
ATOM     24  C   UNL     1      10.996  12.071  24.495  0.00  0.00    +0.012 A 
ATOM     25  C   UNL     1      10.950  13.993  23.032  0.00  0.00    +0.012 A 
ATOM     26  C   UNL     1      10.650  12.884  25.573  0.00  0.00    +0.001 A 
ATOM     27  C   UNL     1      10.604  14.806  24.111  0.00  0.00    +0.001 A 
ATOM     28  C   UNL     1      10.454  14.252  25.382  0.00  0.00    +0.000 A 
ENDBRANCH  18  23
ENDBRANCH   7  12
BRANCH   9   1
ATOM      1  O   UNL     1      10.899   5.332  21.173  0.00  0.00    -0.390 OA
ATOM     29  H   UNL     1      10.129   5.543  20.617  0.00  0.00    +0.210 HD
ENDBRANCH   9   1
BRANCH   3  11
ATOM     11  C   UNL     1      14.155   8.414  19.598  0.00  0.00    +0.122 C 
BRANCH  11  13
ATOM      4  N   UNL     1      17.148   9.628  21.359  0.00  0.00    -0.349 N 
ATOM     13  C   UNL     1      15.493   8.660  20.241  0.00  0.00    -0.008 A 
ATOM     14  C   UNL     1      16.606   7.773  20.245  0.00  0.00    +0.004 A 
ATOM     15  C   UNL     1      15.857   9.791  20.933  0.00  0.00    +0.091 A 
ATOM     16  C   UNL     1      17.631   8.405  20.953  0.00  0.00    +0.049 A 
ATOM     17  C   UNL     1      16.840   6.489  19.713  0.00  0.00    +0.010 A 
ATOM     19  C   UNL     1      18.884   7.815  21.156  0.00  0.00    +0.026 A 
ATOM     20  C   UNL     1      17.886  10.612  22.123  0.00  0.00    +0.149 C 
ATOM     21  C   UNL     1      18.089   5.887  19.908  0.00  0.00    +0.001 A 
ATOM     22  C   UNL     1      19.093   6.541  20.619  0.00  0.00    +0.002 A 
ENDBRANCH  11  13
ENDBRANCH   3  11
TORSDOF 5
ENDMDL
MODEL 3
REMARK VINA RESULT:      -6.7      2.357      5.477
REMARK  Name = 26743586
REMARK  6 active torsions:
REMARK  status: ('A' for Active; 'I' for Inactive)
REMARK    1  A    between atoms: O_1  and  C_9
REMARK    2  A    between atoms: N_3  and  C_11
REMARK    3  A    between atoms: N_4  and  C_20
REMARK    4  A    between atoms: C_7  and  C_12
REMARK    5  A    between atoms: C_11  and  C_13
REMARK    6  A    between atoms: C_18  and  C_23
REMARK                            x       y       z     vdW  Elec       q    Type
REMARK                         _______ _______ _______ _____ _____    ______ ____
ROOT
ATOM      3  N   UNL     1      12.128   8.959  19.720  0.00  0.00    -0.285 NA
ATOM      7  C   UNL     1      12.887   7.698  19.591  0.00  0.00    +0.149 C 
ATOM      8  C   UNL     1      12.613   7.220  18.152  0.00  0.00    +0.061 C 
ATOM      9  C   UNL     1      11.657   8.252  17.568  0.00  0.00    +0.130 C 
ATOM     10  C   UNL     1      11.002   8.861  18.794  0.00  0.00    +0.116 C 
ENDROOT
BRANCH   7  12
ATOM      2  O   UNL     1      14.826   9.149  19.913  0.00  0.00    -0.336 OA
ATOM      5  N   UNL     1      15.278   6.964  20.104  0.00  0.00    -0.190 NA
ATOM      6  N   UNL     1      16.195   9.058  20.192  0.00  0.00    -0.056 NA
ATOM     12  C   UNL     1      14.363   7.873  19.880  0.00  0.00    +0.245 A 
ATOM     18  C   UNL     1      16.386   7.739  20.291  0.00  0.00    +0.202 A 
BRANCH  18  23
ATOM     23  C   UNL     1      17.669   7.164  20.576  0.00  0.00    +0.022 A 
ATOM     24  C   UNL     1      18.103   6.044  19.866  0.00  0.00    +0.012 A 
ATOM     25  C   UNL     1      18.482   7.724  21.561  0.00  0.00    +0.012 A 
ATOM     26  C   UNL     1      19.350   5.485  20.143  0.00  0.00    +0.001 A 
ATOM     27  C   UNL     1      19.729   7.164  21.837  0.00  0.00    +0.001 A 
ATOM     28  C   UNL     1      20.163   6.045  21.129  0.00  0.00    +0.000 A 
ENDBRANCH  18  23
ENDBRANCH   7  12
BRANCH   9   1
ATOM      1  O   UNL     1      10.709   7.634  16.719  0.00  0.00    -0.390 OA
ATOM     29  H   UNL     1      10.543   6.741  17.068  0.00  0.00    +0.210 HD
ENDBRANCH   9   1
BRANCH   3  11
ATOM     11  C   UNL     1      11.694   9.232  21.084  0.00  0.00    +0.122 C 
BRANCH  11  13
ATOM      4  N   UNL     1      12.440  12.825  21.350  0.00  0.00    -0.349 N 
ATOM     13  C   UNL     1      11.903  10.674  21.461  0.00  0.00    -0.008 A 
ATOM     14  C   UNL     1      11.620  11.269  22.723  0.00  0.00    +0.004 A 
ATOM     15  C   UNL     1      12.406  11.655  20.639  0.00  0.00    +0.091 A 
ATOM     16  C   UNL     1      11.965  12.618  22.626  0.00  0.00    +0.049 A 
ATOM     17  C   UNL     1      11.101  10.787  23.941  0.00  0.00    +0.010 A 
ATOM     19  C   UNL     1      11.818  13.515  23.691  0.00  0.00    +0.026 A 
ATOM     20  C   UNL     1      12.912  14.087  20.823  0.00  0.00    +0.149 C 
ATOM     21  C   UNL     1      10.948  11.672  25.015  0.00  0.00    +0.001 A 
ATOM     22  C   UNL     1      11.301  13.014  24.890  0.00  0.00    +0.002 A 
ENDBRANCH  11  13
ENDBRANCH   3  11
TORSDOF 5
ENDMDL
MODEL 4
REMARK VINA RESULT:      -6.5     26.893     29.583
REMARK  Name = 26743586
REMARK  6 active torsions:
REMARK  status: ('A' for Active; 'I' for Inactive)
REMARK    1  A    between atoms: O_1  and  C_9
REMARK    2  A    between atoms: N_3  and  C_11
REMARK    3  A    between atoms: N_4  and  C_20
REMARK    4  A    between atoms: C_7  and  C_12
REMARK    5  A    between atoms: C_11  and  C_13
REMARK    6  A    between atoms: C_18  and  C_23
REMARK                            x       y       z     vdW  Elec       q    Type
REMARK                         _______ _______ _______ _____ _____    ______ ____
ROOT
ATOM      3  N   UNL     1      -4.274 -11.095  14.891  0.00  0.00    -0.285 NA
ATOM      7  C   UNL     1      -4.720 -11.487  16.245  0.00  0.00    +0.149 C 
ATOM      8  C   UNL     1      -3.535 -11.138  17.165  0.00  0.00    +0.061 C 
ATOM      9  C   UNL     1      -2.456 -10.600  16.234  0.00  0.00    +0.130 C 
ATOM     10  C   UNL     1      -2.817 -11.203  14.889  0.00  0.00    +0.116 C 
ENDROOT
BRANCH   7  12
ATOM      2  O   UNL     1      -6.225  -9.565  16.134  0.00  0.00    -0.336 OA
ATOM      5  N   UNL     1      -6.952 -11.219  17.457  0.00  0.00    -0.190 NA
ATOM      6  N   UNL     1      -7.454  -9.138  16.652  0.00  0.00    -0.056 NA
ATOM     12  C   UNL     1      -6.005 -10.799  16.657  0.00  0.00    +0.245 A 
ATOM     18  C   UNL     1      -7.820 -10.166  17.423  0.00  0.00    +0.202 A 
BRANCH  18  23
ATOM     23  C   UNL     1      -9.044 -10.175  18.169  0.00  0.00    +0.022 A 
ATOM     24  C   UNL     1      -9.145 -10.936  19.334  0.00  0.00    +0.012 A 
ATOM     25  C   UNL     1     -10.134  -9.422  17.732  0.00  0.00    +0.012 A 
ATOM     26  C   UNL     1     -10.336 -10.944  20.060  0.00  0.00    +0.001 A 
ATOM     27  C   UNL     1     -11.324  -9.431  18.459  0.00  0.00    +0.001 A 
ATOM     28  C   UNL     1     -11.426 -10.192  19.622  0.00  0.00    +0.000 A 
ENDBRANCH  18  23
ENDBRANCH   7  12
BRANCH   9   1
ATOM      1  O   UNL     1      -1.172 -11.008  16.665  0.00  0.00    -0.390 OA
ATOM     29  H   UNL     1      -0.518 -10.502  16.153  0.00  0.00    +0.210 HD
ENDBRANCH   9   1
BRANCH   3  11
ATOM     11  C   UNL     1      -4.885 -11.890  13.833  0.00  0.00    +0.122 C 
BRANCH  11  13
ATOM      4  N   UNL     1      -6.937  -9.934  11.489  0.00  0.00    -0.349 N 
ATOM     13  C   UNL     1      -5.474 -11.025  12.751  0.00  0.00    -0.008 A 
ATOM     14  C   UNL     1      -4.758 -10.344  11.728  0.00  0.00    +0.004 A 
ATOM     15  C   UNL     1      -6.811 -10.754  12.578  0.00  0.00    +0.091 A 
ATOM     16  C   UNL     1      -5.699  -9.666  10.951  0.00  0.00    +0.049 A 
ATOM     17  C   UNL     1      -3.394 -10.237  11.389  0.00  0.00    +0.010 A 
ATOM     19  C   UNL     1      -5.344  -8.885   9.845  0.00  0.00    +0.026 A 
ATOM     20  C   UNL     1      -8.198  -9.431  10.988  0.00  0.00    +0.149 C 
ATOM     21  C   UNL     1      -3.024  -9.459  10.285  0.00  0.00    +0.001 A 
ATOM     22  C   UNL     1      -3.986  -8.794   9.527  0.00  0.00    +0.002 A 
ENDBRANCH  11  13
ENDBRANCH   3  11
TORSDOF 5
ENDMDL
MODEL 5
REMARK VINA RESULT:      -6.4     27.315     29.042
REMARK  Name = 26743586
REMARK  6 active torsions:
REMARK  status: ('A' for Active; 'I' for Inactive)
REMARK    1  A    between atoms: O_1  and  C_9
REMARK    2  A    between atoms: N_3  and  C_11
REMARK    3  A    between atoms: N_4  and  C_20
REMARK    4  A    between atoms: C_7  and  C_12
REMARK    5  A    between atoms: C_11  and  C_13
REMARK    6  A    between atoms: C_18  and  C_23
REMARK                            x       y       z     vdW  Elec       q    Type
REMARK                         _______ _______ _______ _____ _____    ______ ____
ROOT
ATOM      3  N   UNL     1      -3.229 -11.696  14.507  0.00  0.00    -0.285 NA
ATOM      7  C   UNL     1      -2.194 -11.615  13.455  0.00  0.00    +0.149 C 
ATOM      8  C   UNL     1      -1.857 -13.080  13.120  0.00  0.00    +0.061 C 
ATOM      9  C   UNL     1      -2.718 -13.909  14.065  0.00  0.00    +0.130 C 
ATOM     10  C   UNL     1      -3.004 -12.957  15.211  0.00  0.00    +0.116 C 
ENDROOT
BRANCH   7  12
ATOM      2  O   UNL     1      -1.741  -9.992  11.685  0.00  0.00    -0.336 OA
ATOM      5  N   UNL     1      -3.817 -10.829  11.648  0.00  0.00    -0.190 NA
ATOM      6  N   UNL     1      -2.386  -9.384  10.601  0.00  0.00    -0.056 NA
ATOM     12  C   UNL     1      -2.653 -10.828  12.246  0.00  0.00    +0.245 A 
ATOM     18  C   UNL     1      -3.606  -9.928  10.645  0.00  0.00    +0.202 A 
BRANCH  18  23
ATOM     23  C   UNL     1      -4.634  -9.595   9.702  0.00  0.00    +0.022 A 
ATOM     24  C   UNL     1      -5.618  -8.667  10.042  0.00  0.00    +0.012 A 
ATOM     25  C   UNL     1      -4.650 -10.199   8.444  0.00  0.00    +0.012 A 
ATOM     26  C   UNL     1      -6.617  -8.343   9.125  0.00  0.00    +0.001 A 
ATOM     27  C   UNL     1      -5.650  -9.874   7.528  0.00  0.00    +0.001 A 
ATOM     28  C   UNL     1      -6.634  -8.947   7.868  0.00  0.00    +0.000 A 
ENDBRANCH  18  23
ENDBRANCH   7  12
BRANCH   9   1
ATOM      1  O   UNL     1      -2.021 -15.060  14.499  0.00  0.00    -0.390 OA
ATOM     29  H   UNL     1      -1.109 -14.993  14.167  0.00  0.00    +0.210 HD
ENDBRANCH   9   1
BRANCH   3  11
ATOM     11  C   UNL     1      -3.219 -10.554  15.411  0.00  0.00    +0.122 C 
BRANCH  11  13
ATOM      4  N   UNL     1      -6.640  -9.849  16.567  0.00  0.00    -0.349 N 
ATOM     13  C   UNL     1      -4.535 -10.394  16.126  0.00  0.00    -0.008 A 
ATOM     14  C   UNL     1      -4.840 -10.831  17.445  0.00  0.00    +0.004 A 
ATOM     15  C   UNL     1      -5.661  -9.794  15.612  0.00  0.00    +0.091 A 
ATOM     16  C   UNL     1      -6.167 -10.477  17.697  0.00  0.00    +0.049 A 
ATOM     17  C   UNL     1      -4.113 -11.496  18.452  0.00  0.00    +0.010 A 
ATOM     19  C   UNL     1      -6.807 -10.755  18.910  0.00  0.00    +0.026 A 
ATOM     20  C   UNL     1      -7.975  -9.316  16.398  0.00  0.00    +0.149 C 
ATOM     21  C   UNL     1      -4.739 -11.781  19.671  0.00  0.00    +0.001 A 
ATOM     22  C   UNL     1      -6.065 -11.416  19.894  0.00  0.00    +0.002 A 
ENDBRANCH  11  13
ENDBRANCH   3  11
TORSDOF 5
ENDMDL
MODEL 6
REMARK VINA RESULT:      -6.2      1.349      2.507
REMARK  Name = 26743586
REMARK  6 active torsions:
REMARK  status: ('A' for Active; 'I' for Inactive)
REMARK    1  A    between atoms: O_1  and  C_9
REMARK    2  A    between atoms: N_3  and  C_11
REMARK    3  A    between atoms: N_4  and  C_20
REMARK    4  A    between atoms: C_7  and  C_12
REMARK    5  A    between atoms: C_11  and  C_13
REMARK    6  A    between atoms: C_18  and  C_23
REMARK                            x       y       z     vdW  Elec       q    Type
REMARK                         _______ _______ _______ _____ _____    ______ ____
ROOT
ATOM      3  N   UNL     1      12.456  11.520  22.294  0.00  0.00    -0.285 NA
ATOM      7  C   UNL     1      13.713  11.951  22.941  0.00  0.00    +0.149 C 
ATOM      8  C   UNL     1      13.454  11.789  24.451  0.00  0.00    +0.061 C 
ATOM      9  C   UNL     1      12.013  11.307  24.555  0.00  0.00    +0.130 C 
ATOM     10  C   UNL     1      11.387  11.779  23.256  0.00  0.00    +0.116 C 
ENDROOT
BRANCH   7  12
ATOM      2  O   UNL     1      16.111  11.803  22.493  0.00  0.00    -0.336 OA
ATOM      5  N   UNL     1      14.976   9.932  22.020  0.00  0.00    -0.190 NA
ATOM      6  N   UNL     1      17.054  10.886  22.014  0.00  0.00    -0.056 NA
ATOM     12  C   UNL     1      14.914  11.161  22.465  0.00  0.00    +0.245 A 
ATOM     18  C   UNL     1      16.309   9.807  21.756  0.00  0.00    +0.202 A 
BRANCH  18  23
ATOM     23  C   UNL     1      16.864   8.591  21.237  0.00  0.00    +0.022 A 
ATOM     24  C   UNL     1      18.181   8.241  21.539  0.00  0.00    +0.012 A 
ATOM     25  C   UNL     1      16.088   7.757  20.433  0.00  0.00    +0.012 A 
ATOM     26  C   UNL     1      18.721   7.059  21.034  0.00  0.00    +0.001 A 
ATOM     27  C   UNL     1      16.629   6.574  19.928  0.00  0.00    +0.001 A 
ATOM     28  C   UNL     1      17.945   6.225  20.229  0.00  0.00    +0.000 A 
ENDBRANCH  18  23
ENDBRANCH   7  12
BRANCH   9   1
ATOM      1  O   UNL     1      11.374  11.874  25.682  0.00  0.00    -0.390 OA
ATOM     29  H   UNL     1      10.573  12.328  25.367  0.00  0.00    +0.210 HD
ENDBRANCH   9   1
BRANCH   3  11
ATOM     11  C   UNL     1      12.215  12.176  21.015  0.00  0.00    +0.122 C 
BRANCH  11  13
ATOM      4  N   UNL     1      13.782  10.824  17.974  0.00  0.00    -0.349 N 
ATOM     13  C   UNL     1      12.755  11.371  19.863  0.00  0.00    -0.008 A 
ATOM     14  C   UNL     1      12.609   9.970  19.667  0.00  0.00    +0.004 A 
ATOM     15  C   UNL     1      13.480  11.869  18.806  0.00  0.00    +0.091 A 
ATOM     16  C   UNL     1      13.263   9.652  18.475  0.00  0.00    +0.049 A 
ATOM     17  C   UNL     1      11.982   8.937  20.393  0.00  0.00    +0.010 A 
ATOM     19  C   UNL     1      13.322   8.348  17.969  0.00  0.00    +0.026 A 
ATOM     20  C   UNL     1      14.538  10.952  16.746  0.00  0.00    +0.149 C 
ATOM     21  C   UNL     1      12.032   7.628  19.899  0.00  0.00    +0.001 A 
ATOM     22  C   UNL     1      12.692   7.341  18.706  0.00  0.00    +0.002 A 
ENDBRANCH  11  13
ENDBRANCH   3  11
TORSDOF 5
ENDMDL
MODEL 7
REMARK VINA RESULT:      -6.2     26.005     29.118
REMARK  Name = 26743586
REMARK  6 active torsions:
REMARK  status: ('A' for Active; 'I' for Inactive)
REMARK    1  A    between atoms: O_1  and  C_9
REMARK    2  A    between atoms: N_3  and  C_11
REMARK    3  A    between atoms: N_4  and  C_20
REMARK    4  A    between atoms: C_7  and  C_12
REMARK    5  A    between atoms: C_11  and  C_13
REMARK    6  A    between atoms: C_18  and  C_23
REMARK                            x       y       z     vdW  Elec       q    Type
REMARK                         _______ _______ _______ _____ _____    ______ ____
ROOT
ATOM      3  N   UNL     1      -6.460 -10.551  16.714  0.00  0.00    -0.285 NA
ATOM      7  C   UNL     1      -7.534 -10.934  15.774  0.00  0.00    +0.149 C 
ATOM      8  C   UNL     1      -8.711 -10.002  16.121  0.00  0.00    +0.061 C 
ATOM      9  C   UNL     1      -8.219  -9.165  17.295  0.00  0.00    +0.130 C 
ATOM     10  C   UNL     1      -7.122 -10.018  17.903  0.00  0.00    +0.116 C 
ENDROOT
BRANCH   7  12
ATOM      2  O   UNL     1      -7.809 -11.566  13.430  0.00  0.00    -0.336 OA
ATOM      5  N   UNL     1      -6.145 -10.112  13.796  0.00  0.00    -0.190 NA
ATOM      6  N   UNL     1      -7.239 -11.304  12.178  0.00  0.00    -0.056 NA
ATOM     12  C   UNL     1      -7.107 -10.825  14.326  0.00  0.00    +0.245 A 
ATOM     18  C   UNL     1      -6.265 -10.439  12.476  0.00  0.00    +0.202 A 
BRANCH  18  23
ATOM     23  C   UNL     1      -5.396  -9.881  11.480  0.00  0.00    +0.022 A 
ATOM     24  C   UNL     1      -5.897  -8.972  10.548  0.00  0.00    +0.012 A 
ATOM     25  C   UNL     1      -4.051 -10.248  11.443  0.00  0.00    +0.012 A 
ATOM     26  C   UNL     1      -5.053  -8.430   9.580  0.00  0.00    +0.001 A 
ATOM     27  C   UNL     1      -3.207  -9.705  10.474  0.00  0.00    +0.001 A 
ATOM     28  C   UNL     1      -3.707  -8.797   9.543  0.00  0.00    +0.000 A 
ENDBRANCH  18  23
ENDBRANCH   7  12
BRANCH   9   1
ATOM      1  O   UNL     1      -9.268  -8.924  18.214  0.00  0.00    -0.390 OA
ATOM     29  H   UNL     1     -10.106  -9.104  17.754  0.00  0.00    +0.210 HD
ENDBRANCH   9   1
BRANCH   3  11
ATOM     11  C   UNL     1      -5.558 -11.650  17.035  0.00  0.00    +0.122 C 
BRANCH  11  13
ATOM      4  N   UNL     1      -2.199 -10.856  15.762  0.00  0.00    -0.349 N 
ATOM     13  C   UNL     1      -4.242 -11.523  16.315  0.00  0.00    -0.008 A 
ATOM     14  C   UNL     1      -3.832 -12.252  15.165  0.00  0.00    +0.004 A 
ATOM     15  C   UNL     1      -3.217 -10.672  16.658  0.00  0.00    +0.091 A 
ATOM     16  C   UNL     1      -2.547 -11.815  14.838  0.00  0.00    +0.049 A 
ATOM     17  C   UNL     1      -4.433 -13.247  14.368  0.00  0.00    +0.010 A 
ATOM     19  C   UNL     1      -1.829 -12.324  13.750  0.00  0.00    +0.026 A 
ATOM     20  C   UNL     1      -0.945 -10.134  15.793  0.00  0.00    +0.149 C 
ATOM     21  C   UNL     1      -3.727 -13.766  13.275  0.00  0.00    +0.001 A 
ATOM     22  C   UNL     1      -2.446 -13.310  12.973  0.00  0.00    +0.002 A 
ENDBRANCH  11  13
ENDBRANCH   3  11
TORSDOF 5
ENDMDL
MODEL 8
REMARK VINA RESULT:      -6.2      2.813      5.537
REMARK  Name = 26743586
REMARK  6 active torsions:
REMARK  status: ('A' for Active; 'I' for Inactive)
REMARK    1  A    between atoms: O_1  and  C_9
REMARK    2  A    between atoms: N_3  and  C_11
REMARK    3  A    between atoms: N_4  and  C_20
REMARK    4  A    between atoms: C_7  and  C_12
REMARK    5  A    between atoms: C_11  and  C_13
REMARK    6  A    between atoms: C_18  and  C_23
REMARK                            x       y       z     vdW  Elec       q    Type
REMARK                         _______ _______ _______ _____ _____    ______ ____
ROOT
ATOM      3  N   UNL     1      13.671   8.801  20.638  0.00  0.00    -0.285 NA
ATOM      7  C   UNL     1      13.718   7.339  20.429  0.00  0.00    +0.149 C 
ATOM      8  C   UNL     1      12.744   7.077  19.264  0.00  0.00    +0.061 C 
ATOM      9  C   UNL     1      12.166   8.444  18.918  0.00  0.00    +0.130 C 
ATOM     10  C   UNL     1      12.349   9.239  20.197  0.00  0.00    +0.116 C 
ENDROOT
BRANCH   7  12
ATOM      2  O   UNL     1      15.329   6.289  18.921  0.00  0.00    -0.336 OA
ATOM      5  N   UNL     1      16.175   6.845  20.919  0.00  0.00    -0.190 NA
ATOM      6  N   UNL     1      16.674   5.902  18.895  0.00  0.00    -0.056 NA
ATOM     12  C   UNL     1      15.118   6.835  20.147  0.00  0.00    +0.245 A 
ATOM     18  C   UNL     1      17.105   6.262  20.108  0.00  0.00    +0.202 A 
BRANCH  18  23
ATOM     23  C   UNL     1      18.457   6.056  20.540  0.00  0.00    +0.022 A 
ATOM     24  C   UNL     1      18.990   6.842  21.562  0.00  0.00    +0.012 A 
ATOM     25  C   UNL     1      19.240   5.071  19.938  0.00  0.00    +0.012 A 
ATOM     26  C   UNL     1      20.304   6.641  21.982  0.00  0.00    +0.001 A 
ATOM     27  C   UNL     1      20.555   4.871  20.359  0.00  0.00    +0.001 A 
ATOM     28  C   UNL     1      21.087   5.656  21.380  0.00  0.00    +0.000 A 
ENDBRANCH  18  23
ENDBRANCH   7  12
BRANCH   9   1
ATOM      1  O   UNL     1      10.803   8.335  18.558  0.00  0.00    -0.390 OA
ATOM     29  H   UNL     1      10.461   9.236  18.429  0.00  0.00    +0.210 HD
ENDBRANCH   9   1
BRANCH   3  11
ATOM     11  C   UNL     1      13.948   9.193  22.014  0.00  0.00    +0.122 C 
BRANCH  11  13
ATOM      4  N   UNL     1      15.047  12.677  22.451  0.00  0.00    -0.349 N 
ATOM     13  C   UNL     1      14.646  10.525  22.088  0.00  0.00    -0.008 A 
ATOM     14  C   UNL     1      15.987  10.799  21.700  0.00  0.00    +0.004 A 
ATOM     15  C   UNL     1      14.094  11.698  22.545  0.00  0.00    +0.091 A 
ATOM     16  C   UNL     1      16.213  12.156  21.938  0.00  0.00    +0.049 A 
ATOM     17  C   UNL     1      17.034  10.020  21.168  0.00  0.00    +0.010 A 
ATOM     19  C   UNL     1      17.439  12.777  21.670  0.00  0.00    +0.026 A 
ATOM     20  C   UNL     1      14.840  14.056  22.837  0.00  0.00    +0.149 C 
ATOM     21  C   UNL     1      18.266  10.628  20.893  0.00  0.00    +0.001 A 
ATOM     22  C   UNL     1      18.462  11.985  21.142  0.00  0.00    +0.002 A 
ENDBRANCH  11  13
ENDBRANCH   3  11
TORSDOF 5
ENDMDL
MODEL 9
REMARK VINA RESULT:      -6.2     30.181     31.725
REMARK  Name = 26743586
REMARK  6 active torsions:
REMARK  status: ('A' for Active; 'I' for Inactive)
REMARK    1  A    between atoms: O_1  and  C_9
REMARK    2  A    between atoms: N_3  and  C_11
REMARK    3  A    between atoms: N_4  and  C_20
REMARK    4  A    between atoms: C_7  and  C_12
REMARK    5  A    between atoms: C_11  and  C_13
REMARK    6  A    between atoms: C_18  and  C_23
REMARK                            x       y       z     vdW  Elec       q    Type
REMARK                         _______ _______ _______ _____ _____    ______ ____
ROOT
ATOM      3  N   UNL     1     -15.185   0.973  29.755  0.00  0.00    -0.285 NA
ATOM      7  C   UNL     1     -14.972   0.448  31.119  0.00  0.00    +0.149 C 
ATOM      8  C   UNL     1     -13.763  -0.497  30.993  0.00  0.00    +0.061 C 
ATOM      9  C   UNL     1     -13.396  -0.473  29.514  0.00  0.00    +0.130 C 
ATOM     10  C   UNL     1     -14.685  -0.048  28.836  0.00  0.00    +0.116 C 
ENDROOT
BRANCH   7  12
ATOM      2  O   UNL     1     -14.843   1.188  33.445  0.00  0.00    -0.336 OA
ATOM      5  N   UNL     1     -14.485   2.814  31.948  0.00  0.00    -0.190 NA
ATOM      6  N   UNL     1     -14.607   2.353  34.185  0.00  0.00    -0.056 NA
ATOM     12  C   UNL     1     -14.752   1.547  32.138  0.00  0.00    +0.245 A 
ATOM     18  C   UNL     1     -14.404   3.268  33.232  0.00  0.00    +0.202 A 
BRANCH  18  23
ATOM     23  C   UNL     1     -14.118   4.641  33.530  0.00  0.00    +0.022 A 
ATOM     24  C   UNL     1     -13.877   5.544  32.493  0.00  0.00    +0.012 A 
ATOM     25  C   UNL     1     -14.081   5.076  34.854  0.00  0.00    +0.012 A 
ATOM     26  C   UNL     1     -13.599   6.879  32.782  0.00  0.00    +0.001 A 
ATOM     27  C   UNL     1     -13.802   6.412  35.142  0.00  0.00    +0.001 A 
ATOM     28  C   UNL     1     -13.561   7.313  34.107  0.00  0.00    +0.000 A 
ENDBRANCH  18  23
ENDBRANCH   7  12
BRANCH   9   1
ATOM      1  O   UNL     1     -12.973  -1.752  29.082  0.00  0.00    -0.390 OA
ATOM     29  H   UNL     1     -13.767  -2.252  28.825  0.00  0.00    +0.210 HD
ENDBRANCH   9   1
BRANCH   3  11
ATOM     11  C   UNL     1     -16.574   1.321  29.484  0.00  0.00    +0.122 C 
BRANCH  11  13
ATOM      4  N   UNL     1     -16.782   4.111  27.094  0.00  0.00    -0.349 N 
ATOM     13  C   UNL     1     -16.690   2.625  28.740  0.00  0.00    -0.008 A 
ATOM     14  C   UNL     1     -16.870   3.914  29.315  0.00  0.00    +0.004 A 
ATOM     15  C   UNL     1     -16.640   2.779  27.374  0.00  0.00    +0.091 A 
ATOM     16  C   UNL     1     -16.925   4.828  28.261  0.00  0.00    +0.049 A 
ATOM     17  C   UNL     1     -16.992   4.392  30.635  0.00  0.00    +0.010 A 
ATOM     19  C   UNL     1     -17.096   6.203  28.461  0.00  0.00    +0.026 A 
ATOM     20  C   UNL     1     -16.778   4.670  25.759  0.00  0.00    +0.149 C 
ATOM     21  C   UNL     1     -17.164   5.765  30.851  0.00  0.00    +0.001 A 
ATOM     22  C   UNL     1     -17.215   6.654  29.779  0.00  0.00    +0.002 A 
ENDBRANCH  11  13
ENDBRANCH   3  11
TORSDOF 5
ENDMDL
MODEL 10
REMARK VINA RESULT:      -6.1      3.288      6.982
REMARK  Name = 26743586
REMARK  6 active torsions:
REMARK  status: ('A' for Active; 'I' for Inactive)
REMARK    1  A    between atoms: O_1  and  C_9
REMARK    2  A    between atoms: N_3  and  C_11
REMARK    3  A    between atoms: N_4  and  C_20
REMARK    4  A    between atoms: C_7  and  C_12
REMARK    5  A    between atoms: C_11  and  C_13
REMARK    6  A    between atoms: C_18  and  C_23
REMARK                            x       y       z     vdW  Elec       q    Type
REMARK                         _______ _______ _______ _____ _____    ______ ____
ROOT
ATOM      3  N   UNL     1      13.649   8.884  19.016  0.00  0.00    -0.285 NA
ATOM      7  C   UNL     1      12.740   8.014  19.790  0.00  0.00    +0.149 C 
ATOM      8  C   UNL     1      13.646   6.905  20.360  0.00  0.00    +0.061 C 
ATOM      9  C   UNL     1      15.035   7.211  19.814  0.00  0.00    +0.130 C 
ATOM     10  C   UNL     1      14.754   8.036  18.572  0.00  0.00    +0.116 C 
ENDROOT
BRANCH   7  12
ATOM      2  O   UNL     1      10.917   8.137  21.413  0.00  0.00    -0.336 OA
ATOM      5  N   UNL     1      12.219   9.958  21.362  0.00  0.00    -0.190 NA
ATOM      6  N   UNL     1      10.394   9.016  22.369  0.00  0.00    -0.056 NA
ATOM     12  C   UNL     1      11.989   8.767  20.868  0.00  0.00    +0.245 A 
ATOM     18  C   UNL     1      11.215  10.067  22.280  0.00  0.00    +0.202 A 
BRANCH  18  23
ATOM     23  C   UNL     1      11.061  11.238  23.092  0.00  0.00    +0.022 A 
ATOM     24  C   UNL     1      11.046  11.125  24.483  0.00  0.00    +0.012 A 
ATOM     25  C   UNL     1      10.928  12.491  22.494  0.00  0.00    +0.012 A 
ATOM     26  C   UNL     1      10.897  12.264  25.273  0.00  0.00    +0.001 A 
ATOM     27  C   UNL     1      10.778  13.630  23.285  0.00  0.00    +0.001 A 
ATOM     28  C   UNL     1      10.763  13.516  24.675  0.00  0.00    +0.000 A 
ENDBRANCH  18  23
ENDBRANCH   7  12
BRANCH   9   1
ATOM      1  O   UNL     1      15.728   6.017  19.506  0.00  0.00    -0.390 OA
ATOM     29  H   UNL     1      16.635   6.111  19.843  0.00  0.00    +0.210 HD
ENDBRANCH   9   1
BRANCH   3  11
ATOM     11  C   UNL     1      12.992   9.556  17.903  0.00  0.00    +0.122 C 
BRANCH  11  13
ATOM      4  N   UNL     1      14.316  12.983  17.704  0.00  0.00    -0.349 N 
ATOM     13  C   UNL     1      13.649  10.870  17.575  0.00  0.00    -0.008 A 
ATOM     14  C   UNL     1      14.432  11.161  16.423  0.00  0.00    +0.004 A 
ATOM     15  C   UNL     1      13.596  12.009  18.343  0.00  0.00    +0.091 A 
ATOM     16  C   UNL     1      14.839  12.492  16.529  0.00  0.00    +0.049 A 
ATOM     17  C   UNL     1      14.836  10.415  15.297  0.00  0.00    +0.010 A 
ATOM     19  C   UNL     1      15.632  13.120  15.561  0.00  0.00    +0.026 A 
ATOM     20  C   UNL     1      14.492  14.329  18.205  0.00  0.00    +0.149 C 
ATOM     21  C   UNL     1      15.629  11.030  14.320  0.00  0.00    +0.001 A 
ATOM     22  C   UNL     1      16.019  12.361  14.453  0.00  0.00    +0.002 A 
ENDBRANCH  11  13
ENDBRANCH   3  11
TORSDOF 5
ENDMDL
