MODEL 1
REMARK VINA RESULT:      -8.4      0.000      0.000
REMARK  Name = 7135498
REMARK  2 active torsions:
REMARK  status: ('A' for Active; 'I' for Inactive)
REMARK    1  A    between atoms: C_18  and  C_22
REMARK    2  A    between atoms: C_21  and  C_24
REMARK                            x       y       z     vdW  Elec       q    Type
REMARK                         _______ _______ _______ _____ _____    ______ ____
ROOT
ATOM      2  O   UNL     1      22.408   7.947  21.823  0.00  0.00    -0.273 OA
ATOM      3  O   UNL     1      18.615   5.079  19.513  0.00  0.00    -0.270 OA
ATOM      4  O   UNL     1      24.553   5.084  23.748  0.00  0.00    -0.269 OA
ATOM      7  N   UNL     1      20.342   5.520  20.987  0.00  0.00    -0.283 N 
ATOM      8  N   UNL     1      23.010   5.010  22.027  0.00  0.00    -0.293 N 
ATOM      9  N   UNL     1      20.228   8.446  21.399  0.00  0.00    -0.283 N 
ATOM     10  C   UNL     1      20.801   6.185  22.198  0.00  0.00    +0.180 C 
ATOM     11  C   UNL     1      21.914   5.412  22.915  0.00  0.00    +0.140 C 
ATOM     12  C   UNL     1      21.171   4.433  20.464  0.00  0.00    +0.128 C 
ATOM     13  C   UNL     1      22.655   4.727  20.630  0.00  0.00    +0.127 C 
ATOM     14  C   UNL     1      21.233   7.578  21.768  0.00  0.00    +0.239 C 
ATOM     15  C   UNL     1      19.096   5.763  20.418  0.00  0.00    +0.249 C 
ATOM     16  C   UNL     1      18.302   6.927  20.895  0.00  0.00    +0.059 A 
ATOM     17  C   UNL     1      18.853   8.172  21.240  0.00  0.00    +0.046 A 
ATOM     18  C   UNL     1      24.298   4.835  22.569  0.00  0.00    +0.253 C 
ATOM     19  C   UNL     1      16.904   6.790  20.812  0.00  0.00    +0.023 A 
ATOM     20  C   UNL     1      17.992   9.269  21.423  0.00  0.00    +0.024 A 
ATOM     21  C   UNL     1      16.063   7.878  21.045  0.00  0.00    -0.017 A 
ATOM     23  C   UNL     1      16.608   9.121  21.338  0.00  0.00    +0.010 A 
ATOM     34  H   UNL     1      20.498   9.424  21.329  0.00  0.00    +0.155 HD
ENDROOT
BRANCH  21  24
ATOM      5  O   UNL     1      11.502   8.502  22.714  0.00  0.00    -0.453 OA
ATOM      6  O   UNL     1      10.543   7.329  20.839  0.00  0.00    -0.453 OA
ATOM     24  C   UNL     1      14.629   7.717  20.960  0.00  0.00    -0.014 A 
ATOM     26  C   UNL     1      13.810   8.242  21.964  0.00  0.00    +0.058 A 
ATOM     27  C   UNL     1      14.068   7.032  19.866  0.00  0.00    +0.012 A 
ATOM     28  C   UNL     1      12.448   8.064  21.838  0.00  0.00    +0.167 A 
ATOM     29  C   UNL     1      11.900   7.393  20.768  0.00  0.00    +0.166 A 
ATOM     30  C   UNL     1      12.684   6.865  19.764  0.00  0.00    +0.050 A 
ATOM     33  C   UNL     1      10.297   8.034  22.073  0.00  0.00    +0.466 C 
ENDBRANCH  21  24
BRANCH  18  22
ATOM      1  S   UNL     1      26.283   5.448  20.793  0.00  0.00    -0.092 S 
ATOM     22  C   UNL     1      25.338   4.331  21.675  0.00  0.00    +0.074 A 
ATOM     25  C   UNL     1      25.692   3.028  21.423  0.00  0.00    +0.021 A 
ATOM     31  C   UNL     1      26.763   2.943  20.486  0.00  0.00    +0.008 A 
ATOM     32  C   UNL     1      27.180   4.186  20.063  0.00  0.00    +0.046 A 
ENDBRANCH  18  22
TORSDOF 2
ENDMDL
MODEL 2
REMARK VINA RESULT:      -8.2      4.157     10.710
REMARK  Name = 7135498
REMARK  2 active torsions:
REMARK  status: ('A' for Active; 'I' for Inactive)
REMARK    1  A    between atoms: C_18  and  C_22
REMARK    2  A    between atoms: C_21  and  C_24
REMARK                            x       y       z     vdW  Elec       q    Type
REMARK                         _______ _______ _______ _____ _____    ______ ____
ROOT
ATOM      2  O   UNL     1      13.442   8.308  19.573  0.00  0.00    -0.273 OA
ATOM      3  O   UNL     1      18.149   9.382  21.726  0.00  0.00    -0.270 OA
ATOM      4  O   UNL     1      10.915   9.175  22.634  0.00  0.00    -0.269 OA
ATOM      7  N   UNL     1      15.877   8.950  21.698  0.00  0.00    -0.283 N 
ATOM      8  N   UNL     1      13.120   9.725  22.203  0.00  0.00    -0.293 N 
ATOM      9  N   UNL     1      15.469   7.320  19.265  0.00  0.00    -0.283 N 
ATOM     10  C   UNL     1      14.799   7.984  21.543  0.00  0.00    +0.180 C 
ATOM     11  C   UNL     1      13.560   8.337  22.374  0.00  0.00    +0.140 C 
ATOM     12  C   UNL     1      15.546  10.227  22.332  0.00  0.00    +0.128 C 
ATOM     13  C   UNL     1      14.165  10.718  21.922  0.00  0.00    +0.127 C 
ATOM     14  C   UNL     1      14.510   7.921  20.051  0.00  0.00    +0.239 C 
ATOM     15  C   UNL     1      17.207   8.649  21.423  0.00  0.00    +0.249 C 
ATOM     16  C   UNL     1      17.523   7.391  20.695  0.00  0.00    +0.059 A 
ATOM     17  C   UNL     1      16.751   6.869  19.643  0.00  0.00    +0.046 A 
ATOM     18  C   UNL     1      11.760  10.040  22.400  0.00  0.00    +0.253 C 
ATOM     19  C   UNL     1      18.772   6.812  20.986  0.00  0.00    +0.023 A 
ATOM     20  C   UNL     1      17.282   5.828  18.862  0.00  0.00    +0.024 A 
ATOM     21  C   UNL     1      19.261   5.747  20.231  0.00  0.00    -0.017 A 
ATOM     23  C   UNL     1      18.521   5.263  19.160  0.00  0.00    +0.010 A 
ATOM     34  H   UNL     1      15.175   7.085  18.320  0.00  0.00    +0.155 HD
ENDROOT
BRANCH  21  24
ATOM      5  O   UNL     1      24.103   5.983  20.929  0.00  0.00    -0.453 OA
ATOM      6  O   UNL     1      24.252   3.630  21.429  0.00  0.00    -0.453 OA
ATOM     24  C   UNL     1      20.546   5.162  20.547  0.00  0.00    -0.014 A 
ATOM     26  C   UNL     1      21.690   5.966  20.561  0.00  0.00    +0.058 A 
ATOM     27  C   UNL     1      20.634   3.789  20.839  0.00  0.00    +0.012 A 
ATOM     28  C   UNL     1      22.892   5.364  20.869  0.00  0.00    +0.167 A 
ATOM     29  C   UNL     1      22.978   4.020  21.154  0.00  0.00    +0.166 A 
ATOM     30  C   UNL     1      21.865   3.204  21.147  0.00  0.00    +0.050 A 
ATOM     33  C   UNL     1      24.960   4.879  21.285  0.00  0.00    +0.466 C 
ENDBRANCH  21  24
BRANCH  18  22
ATOM      1  S   UNL     1      10.916  12.255  23.759  0.00  0.00    -0.092 S 
ATOM     22  C   UNL     1      11.381  11.448  22.326  0.00  0.00    +0.074 A 
ATOM     25  C   UNL     1      11.338  12.266  21.225  0.00  0.00    +0.021 A 
ATOM     31  C   UNL     1      10.916  13.585  21.562  0.00  0.00    +0.008 A 
ATOM     32  C   UNL     1      10.653  13.716  22.908  0.00  0.00    +0.046 A 
ENDBRANCH  18  22
TORSDOF 2
ENDMDL
MODEL 3
REMARK VINA RESULT:      -7.7     30.552     34.261
REMARK  Name = 7135498
REMARK  2 active torsions:
REMARK  status: ('A' for Active; 'I' for Inactive)
REMARK    1  A    between atoms: C_18  and  C_22
REMARK    2  A    between atoms: C_21  and  C_24
REMARK                            x       y       z     vdW  Elec       q    Type
REMARK                         _______ _______ _______ _____ _____    ______ ____
ROOT
ATOM      2  O   UNL     1     -15.488   7.382  19.111  0.00  0.00    -0.273 OA
ATOM      3  O   UNL     1     -12.665   4.644  22.643  0.00  0.00    -0.270 OA
ATOM      4  O   UNL     1     -13.651  11.005  19.213  0.00  0.00    -0.269 OA
ATOM      7  N   UNL     1     -13.443   6.527  21.549  0.00  0.00    -0.283 N 
ATOM      8  N   UNL     1     -13.017   8.893  19.912  0.00  0.00    -0.293 N 
ATOM      9  N   UNL     1     -16.122   5.752  20.567  0.00  0.00    -0.283 N 
ATOM     10  C   UNL     1     -14.527   7.473  21.323  0.00  0.00    +0.180 C 
ATOM     11  C   UNL     1     -14.026   8.880  20.977  0.00  0.00    +0.140 C 
ATOM     12  C   UNL     1     -12.102   6.931  21.124  0.00  0.00    +0.128 C 
ATOM     13  C   UNL     1     -12.137   7.721  19.823  0.00  0.00    +0.127 C 
ATOM     14  C   UNL     1     -15.386   6.865  20.225  0.00  0.00    +0.239 C 
ATOM     15  C   UNL     1     -13.604   5.356  22.281  0.00  0.00    +0.249 C 
ATOM     16  C   UNL     1     -14.979   4.906  22.627  0.00  0.00    +0.059 A 
ATOM     17  C   UNL     1     -16.086   5.017  21.771  0.00  0.00    +0.046 A 
ATOM     18  C   UNL     1     -12.891  10.042  19.106  0.00  0.00    +0.253 C 
ATOM     19  C   UNL     1     -15.100   4.170  23.821  0.00  0.00    +0.023 A 
ATOM     20  C   UNL     1     -17.268   4.327  22.095  0.00  0.00    +0.024 A 
ATOM     21  C   UNL     1     -16.296   3.533  24.150  0.00  0.00    -0.017 A 
ATOM     23  C   UNL     1     -17.377   3.602  23.280  0.00  0.00    +0.010 A 
ATOM     34  H   UNL     1     -16.850   5.490  19.907  0.00  0.00    +0.155 HD
ENDROOT
BRANCH  21  24
ATOM      5  O   UNL     1     -15.884   3.054  29.006  0.00  0.00    -0.453 OA
ATOM      6  O   UNL     1     -16.662   0.773  28.953  0.00  0.00    -0.453 OA
ATOM     24  C   UNL     1     -16.404   2.785  25.383  0.00  0.00    -0.014 A 
ATOM     26  C   UNL     1     -16.057   3.390  26.594  0.00  0.00    +0.058 A 
ATOM     27  C   UNL     1     -16.857   1.454  25.353  0.00  0.00    +0.012 A 
ATOM     28  C   UNL     1     -16.176   2.636  27.744  0.00  0.00    +0.167 A 
ATOM     29  C   UNL     1     -16.619   1.333  27.714  0.00  0.00    +0.166 A 
ATOM     30  C   UNL     1     -16.969   0.713  26.532  0.00  0.00    +0.050 A 
ATOM     33  C   UNL     1     -16.195   1.869  29.767  0.00  0.00    +0.466 C 
ENDBRANCH  21  24
BRANCH  18  22
ATOM      1  S   UNL     1     -12.093   9.437  16.563  0.00  0.00    -0.092 S 
ATOM     22  C   UNL     1     -11.806  10.059  18.129  0.00  0.00    +0.074 A 
ATOM     25  C   UNL     1     -10.523  10.523  18.282  0.00  0.00    +0.021 A 
ATOM     31  C   UNL     1      -9.757  10.367  17.091  0.00  0.00    +0.008 A 
ATOM     32  C   UNL     1     -10.490   9.788  16.077  0.00  0.00    +0.046 A 
ENDBRANCH  18  22
TORSDOF 2
ENDMDL
MODEL 4
REMARK VINA RESULT:      -7.6     28.510     33.240
REMARK  Name = 7135498
REMARK  2 active torsions:
REMARK  status: ('A' for Active; 'I' for Inactive)
REMARK    1  A    between atoms: C_18  and  C_22
REMARK    2  A    between atoms: C_21  and  C_24
REMARK                            x       y       z     vdW  Elec       q    Type
REMARK                         _______ _______ _______ _____ _____    ______ ____
ROOT
ATOM      2  O   UNL     1      -6.249 -12.333  18.745  0.00  0.00    -0.273 OA
ATOM      3  O   UNL     1      -9.260  -8.202  17.398  0.00  0.00    -0.270 OA
ATOM      4  O   UNL     1      -4.477 -13.254  15.206  0.00  0.00    -0.269 OA
ATOM      7  N   UNL     1      -7.946 -10.074  17.051  0.00  0.00    -0.283 N 
ATOM      8  N   UNL     1      -5.573 -11.369  15.980  0.00  0.00    -0.293 N 
ATOM      9  N   UNL     1      -8.292 -11.681  19.508  0.00  0.00    -0.283 N 
ATOM     10  C   UNL     1      -7.814 -11.523  17.095  0.00  0.00    +0.180 C 
ATOM     11  C   UNL     1      -6.862 -12.066  16.022  0.00  0.00    +0.140 C 
ATOM     12  C   UNL     1      -6.968  -9.335  16.251  0.00  0.00    +0.128 C 
ATOM     13  C   UNL     1      -5.578  -9.949  16.354  0.00  0.00    +0.127 C 
ATOM     14  C   UNL     1      -7.360 -11.855  18.508  0.00  0.00    +0.239 C 
ATOM     15  C   UNL     1      -9.036  -9.399  17.591  0.00  0.00    +0.249 C 
ATOM     16  C   UNL     1      -9.973 -10.139  18.478  0.00  0.00    +0.059 A 
ATOM     17  C   UNL     1      -9.577 -11.108  19.414  0.00  0.00    +0.046 A 
ATOM     18  C   UNL     1      -4.438 -12.060  15.510  0.00  0.00    +0.253 C 
ATOM     19  C   UNL     1     -11.305  -9.686  18.475  0.00  0.00    +0.023 A 
ATOM     20  C   UNL     1     -10.508 -11.547  20.373  0.00  0.00    +0.024 A 
ATOM     21  C   UNL     1     -12.228 -10.169  19.402  0.00  0.00    -0.017 A 
ATOM     23  C   UNL     1     -11.825 -11.091  20.360  0.00  0.00    +0.010 A 
ATOM     34  H   UNL     1      -8.059 -12.108  20.401  0.00  0.00    +0.155 HD
ENDROOT
BRANCH  21  24
ATOM      5  O   UNL     1     -16.374  -8.728  21.574  0.00  0.00    -0.453 OA
ATOM      6  O   UNL     1     -17.473  -8.351  19.461  0.00  0.00    -0.453 OA
ATOM     24  C   UNL     1     -13.594  -9.695  19.381  0.00  0.00    -0.014 A 
ATOM     26  C   UNL     1     -14.266  -9.460  20.584  0.00  0.00    +0.058 A 
ATOM     27  C   UNL     1     -14.237  -9.476  18.149  0.00  0.00    +0.012 A 
ATOM     28  C   UNL     1     -15.567  -9.008  20.513  0.00  0.00    +0.167 A 
ATOM     29  C   UNL     1     -16.196  -8.794  19.307  0.00  0.00    +0.166 A 
ATOM     30  C   UNL     1     -15.556  -9.018  18.106  0.00  0.00    +0.050 A 
ATOM     33  C   UNL     1     -17.579  -8.312  20.900  0.00  0.00    +0.466 C 
ENDBRANCH  21  24
BRANCH  18  22
ATOM      1  S   UNL     1      -2.776 -10.657  13.857  0.00  0.00    -0.092 S 
ATOM     22  C   UNL     1      -3.197 -11.302  15.382  0.00  0.00    +0.074 A 
ATOM     25  C   UNL     1      -2.268 -11.011  16.350  0.00  0.00    +0.021 A 
ATOM     31  C   UNL     1      -1.186 -10.242  15.832  0.00  0.00    +0.008 A 
ATOM     32  C   UNL     1      -1.336  -9.979  14.488  0.00  0.00    +0.046 A 
ENDBRANCH  18  22
TORSDOF 2
ENDMDL
MODEL 5
REMARK VINA RESULT:      -7.5      2.150      3.101
REMARK  Name = 7135498
REMARK  2 active torsions:
REMARK  status: ('A' for Active; 'I' for Inactive)
REMARK    1  A    between atoms: C_18  and  C_22
REMARK    2  A    between atoms: C_21  and  C_24
REMARK                            x       y       z     vdW  Elec       q    Type
REMARK                         _______ _______ _______ _____ _____    ______ ____
ROOT
ATOM      2  O   UNL     1      22.991   4.341  20.287  0.00  0.00    -0.273 OA
ATOM      3  O   UNL     1      19.513   6.632  23.543  0.00  0.00    -0.270 OA
ATOM      4  O   UNL     1      26.379   6.433  21.091  0.00  0.00    -0.269 OA
ATOM      7  N   UNL     1      21.485   6.419  22.353  0.00  0.00    -0.283 N 
ATOM      8  N   UNL     1      24.379   6.171  22.224  0.00  0.00    -0.293 N 
ATOM      9  N   UNL     1      20.764   4.738  20.030  0.00  0.00    -0.283 N 
ATOM     10  C   UNL     1      22.173   6.472  21.071  0.00  0.00    +0.180 C 
ATOM     11  C   UNL     1      23.636   6.912  21.200  0.00  0.00    +0.140 C 
ATOM     12  C   UNL     1      22.311   6.473  23.560  0.00  0.00    +0.128 C 
ATOM     13  C   UNL     1      23.613   5.704  23.386  0.00  0.00    +0.127 C 
ATOM     14  C   UNL     1      22.025   5.086  20.463  0.00  0.00    +0.239 C 
ATOM     15  C   UNL     1      20.100   6.484  22.470  0.00  0.00    +0.249 C 
ATOM     16  C   UNL     1      19.267   6.334  21.247  0.00  0.00    +0.059 A 
ATOM     17  C   UNL     1      19.556   5.448  20.196  0.00  0.00    +0.046 A 
ATOM     18  C   UNL     1      25.774   6.026  22.084  0.00  0.00    +0.253 C 
ATOM     19  C   UNL     1      18.032   7.008  21.261  0.00  0.00    +0.023 A 
ATOM     20  C   UNL     1      18.571   5.203  19.223  0.00  0.00    +0.024 A 
ATOM     21  C   UNL     1      17.085   6.788  20.261  0.00  0.00    -0.017 A 
ATOM     23  C   UNL     1      17.350   5.875  19.248  0.00  0.00    +0.010 A 
ATOM     34  H   UNL     1      20.719   3.915  19.434  0.00  0.00    +0.155 HD
ENDROOT
BRANCH  21  24
ATOM      5  O   UNL     1      12.224   7.042  19.724  0.00  0.00    -0.453 OA
ATOM      6  O   UNL     1      12.173   9.374  20.332  0.00  0.00    -0.453 OA
ATOM     24  C   UNL     1      15.823   7.493  20.290  0.00  0.00    -0.014 A 
ATOM     26  C   UNL     1      14.643   6.816  19.965  0.00  0.00    +0.058 A 
ATOM     27  C   UNL     1      15.791   8.853  20.644  0.00  0.00    +0.012 A 
ATOM     28  C   UNL     1      13.463   7.530  20.008  0.00  0.00    +0.167 A 
ATOM     29  C   UNL     1      13.433   8.862  20.354  0.00  0.00    +0.166 A 
ATOM     30  C   UNL     1      14.582   9.553  20.679  0.00  0.00    +0.050 A 
ATOM     33  C   UNL     1      11.412   8.216  19.932  0.00  0.00    +0.466 C 
ENDBRANCH  21  24
BRANCH  18  22
ATOM      1  S   UNL     1      26.708   3.681  23.131  0.00  0.00    -0.092 S 
ATOM     22  C   UNL     1      26.493   5.376  23.177  0.00  0.00    +0.074 A 
ATOM     25  C   UNL     1      27.053   5.947  24.292  0.00  0.00    +0.021 A 
ATOM     31  C   UNL     1      27.673   4.974  25.130  0.00  0.00    +0.008 A 
ATOM     32  C   UNL     1      27.559   3.701  24.616  0.00  0.00    +0.046 A 
ENDBRANCH  18  22
TORSDOF 2
ENDMDL
MODEL 6
REMARK VINA RESULT:      -7.4     16.701     20.563
REMARK  Name = 7135498
REMARK  2 active torsions:
REMARK  status: ('A' for Active; 'I' for Inactive)
REMARK    1  A    between atoms: C_18  and  C_22
REMARK    2  A    between atoms: C_21  and  C_24
REMARK                            x       y       z     vdW  Elec       q    Type
REMARK                         _______ _______ _______ _____ _____    ______ ____
ROOT
ATOM      2  O   UNL     1       8.747   8.162   8.521  0.00  0.00    -0.273 OA
ATOM      3  O   UNL     1       9.605   9.062   3.383  0.00  0.00    -0.270 OA
ATOM      4  O   UNL     1      10.664  11.303  10.242  0.00  0.00    -0.269 OA
ATOM      7  N   UNL     1       9.924   9.300   5.661  0.00  0.00    -0.283 N 
ATOM      8  N   UNL     1       9.916  10.897   8.091  0.00  0.00    -0.293 N 
ATOM      9  N   UNL     1       9.065   6.709   6.798  0.00  0.00    -0.283 N 
ATOM     10  C   UNL     1      10.442   8.751   6.906  0.00  0.00    +0.180 C 
ATOM     11  C   UNL     1      10.906   9.835   7.886  0.00  0.00    +0.140 C 
ATOM     12  C   UNL     1       9.627  10.733   5.633  0.00  0.00    +0.128 C 
ATOM     13  C   UNL     1       9.043  11.213   6.954  0.00  0.00    +0.127 C 
ATOM     14  C   UNL     1       9.329   7.882   7.471  0.00  0.00    +0.239 C 
ATOM     15  C   UNL     1       9.858   8.565   4.482  0.00  0.00    +0.249 C 
ATOM     16  C   UNL     1      10.071   7.094   4.537  0.00  0.00    +0.059 A 
ATOM     17  C   UNL     1       9.603   6.266   5.571  0.00  0.00    +0.046 A 
ATOM     18  C   UNL     1       9.914  11.601   9.312  0.00  0.00    +0.253 C 
ATOM     19  C   UNL     1      10.622   6.511   3.382  0.00  0.00    +0.023 A 
ATOM     20  C   UNL     1       9.631   4.872   5.390  0.00  0.00    +0.024 A 
ATOM     21  C   UNL     1      10.687   5.125   3.241  0.00  0.00    -0.017 A 
ATOM     23  C   UNL     1      10.180   4.305   4.241  0.00  0.00    +0.010 A 
ATOM     34  H   UNL     1       8.485   6.039   7.298  0.00  0.00    +0.155 HD
ENDROOT
BRANCH  21  24
ATOM      5  O   UNL     1      10.542   3.839  -1.482  0.00  0.00    -0.453 OA
ATOM      6  O   UNL     1      12.770   2.920  -1.409  0.00  0.00    -0.453 OA
ATOM     24  C   UNL     1      11.261   4.543   2.048  0.00  0.00    -0.014 A 
ATOM     26  C   UNL     1      10.520   4.518   0.862  0.00  0.00    +0.058 A 
ATOM     27  C   UNL     1      12.560   4.007   2.089  0.00  0.00    +0.012 A 
ATOM     28  C   UNL     1      11.109   3.953  -0.250  0.00  0.00    +0.167 A 
ATOM     29  C   UNL     1      12.381   3.428  -0.208  0.00  0.00    +0.166 A 
ATOM     30  C   UNL     1      13.134   3.440   0.948  0.00  0.00    +0.050 A 
ATOM     33  C   UNL     1      11.601   3.184  -2.212  0.00  0.00    +0.466 C 
ENDBRANCH  21  24
BRANCH  18  22
ATOM      1  S   UNL     1       9.475  14.266   8.895  0.00  0.00    -0.092 S 
ATOM     22  C   UNL     1       8.985  12.721   9.437  0.00  0.00    +0.074 A 
ATOM     25  C   UNL     1       7.711  12.724   9.950  0.00  0.00    +0.021 A 
ATOM     31  C   UNL     1       7.122  14.020   9.898  0.00  0.00    +0.008 A 
ATOM     32  C   UNL     1       7.973  14.953   9.346  0.00  0.00    +0.046 A 
ENDBRANCH  18  22
TORSDOF 2
ENDMDL
MODEL 7
REMARK VINA RESULT:      -7.4      2.690      3.607
REMARK  Name = 7135498
REMARK  2 active torsions:
REMARK  status: ('A' for Active; 'I' for Inactive)
REMARK    1  A    between atoms: C_18  and  C_22
REMARK    2  A    between atoms: C_21  and  C_24
REMARK                            x       y       z     vdW  Elec       q    Type
REMARK                         _______ _______ _______ _____ _____    ______ ____
ROOT
ATOM      2  O   UNL     1      23.130   5.814  20.455  0.00  0.00    -0.273 OA
ATOM      3  O   UNL     1      19.152   8.440  22.739  0.00  0.00    -0.270 OA
ATOM      4  O   UNL     1      25.897   8.752  19.980  0.00  0.00    -0.269 OA
ATOM      7  N   UNL     1      21.134   8.183  21.575  0.00  0.00    -0.283 N 
ATOM      8  N   UNL     1      24.004   8.563  21.297  0.00  0.00    -0.293 N 
ATOM      9  N   UNL     1      20.878   5.547  20.261  0.00  0.00    -0.283 N 
ATOM     10  C   UNL     1      21.807   7.829  20.334  0.00  0.00    +0.180 C 
ATOM     11  C   UNL     1      23.118   8.599  20.129  0.00  0.00    +0.140 C 
ATOM     12  C   UNL     1      21.904   8.940  22.564  0.00  0.00    +0.128 C 
ATOM     13  C   UNL     1      23.356   8.486  22.613  0.00  0.00    +0.127 C 
ATOM     14  C   UNL     1      22.010   6.323  20.387  0.00  0.00    +0.239 C 
ATOM     15  C   UNL     1      19.774   7.978  21.781  0.00  0.00    +0.249 C 
ATOM     16  C   UNL     1      19.020   7.130  20.818  0.00  0.00    +0.059 A 
ATOM     17  C   UNL     1      19.532   5.967  20.220  0.00  0.00    +0.046 A 
ATOM     18  C   UNL     1      25.394   8.690  21.104  0.00  0.00    +0.253 C 
ATOM     19  C   UNL     1      17.658   7.446  20.660  0.00  0.00    +0.023 A 
ATOM     20  C   UNL     1      18.650   5.109  19.539  0.00  0.00    +0.024 A 
ATOM     21  C   UNL     1      16.808   6.608  19.939  0.00  0.00    -0.017 A 
ATOM     23  C   UNL     1      17.302   5.432  19.389  0.00  0.00    +0.010 A 
ATOM     34  H   UNL     1      21.043   4.561  20.075  0.00  0.00    +0.155 HD
ENDROOT
BRANCH  21  24
ATOM      5  O   UNL     1      12.266   7.263  21.648  0.00  0.00    -0.453 OA
ATOM      6  O   UNL     1      11.428   7.898  19.479  0.00  0.00    -0.453 OA
ATOM     24  C   UNL     1      15.412   6.951  19.783  0.00  0.00    -0.014 A 
ATOM     26  C   UNL     1      14.560   6.911  20.891  0.00  0.00    +0.058 A 
ATOM     27  C   UNL     1      14.922   7.321  18.518  0.00  0.00    +0.012 A 
ATOM     28  C   UNL     1      13.237   7.247  20.693  0.00  0.00    +0.167 A 
ATOM     29  C   UNL     1      12.757   7.609  19.455  0.00  0.00    +0.166 A 
ATOM     30  C   UNL     1      13.576   7.656  18.346  0.00  0.00    +0.050 A 
ATOM     33  C   UNL     1      11.123   7.677  20.872  0.00  0.00    +0.466 C 
ENDBRANCH  21  24
BRANCH  18  22
ATOM      1  S   UNL     1      26.591  10.287  22.970  0.00  0.00    -0.092 S 
ATOM     22  C   UNL     1      26.233   8.758  22.297  0.00  0.00    +0.074 A 
ATOM     25  C   UNL     1      26.808   7.727  22.998  0.00  0.00    +0.021 A 
ATOM     31  C   UNL     1      27.558   8.200  24.114  0.00  0.00    +0.008 A 
ATOM     32  C   UNL     1      27.524   9.573  24.215  0.00  0.00    +0.046 A 
ENDBRANCH  18  22
TORSDOF 2
ENDMDL
MODEL 8
REMARK VINA RESULT:      -7.1     29.714     34.963
REMARK  Name = 7135498
REMARK  2 active torsions:
REMARK  status: ('A' for Active; 'I' for Inactive)
REMARK    1  A    between atoms: C_18  and  C_22
REMARK    2  A    between atoms: C_21  and  C_24
REMARK                            x       y       z     vdW  Elec       q    Type
REMARK                         _______ _______ _______ _____ _____    ______ ____
ROOT
ATOM      2  O   UNL     1     -11.991  -9.742  19.327  0.00  0.00    -0.273 OA
ATOM      3  O   UNL     1      -7.728 -12.791  20.016  0.00  0.00    -0.270 OA
ATOM      4  O   UNL     1     -14.989 -12.482  19.401  0.00  0.00    -0.269 OA
ATOM      7  N   UNL     1      -9.939 -12.311  19.537  0.00  0.00    -0.283 N 
ATOM      8  N   UNL     1     -12.784 -12.536  20.098  0.00  0.00    -0.293 N 
ATOM      9  N   UNL     1      -9.882  -9.546  18.492  0.00  0.00    -0.283 N 
ATOM     10  C   UNL     1     -10.919 -11.780  18.601  0.00  0.00    +0.180 C 
ATOM     11  C   UNL     1     -12.287 -12.463  18.720  0.00  0.00    +0.140 C 
ATOM     12  C   UNL     1     -10.439 -13.152  20.626  0.00  0.00    +0.128 C 
ATOM     13  C   UNL     1     -11.774 -12.648  21.158  0.00  0.00    +0.127 C 
ATOM     14  C   UNL     1     -10.982 -10.284  18.871  0.00  0.00    +0.239 C 
ATOM     15  C   UNL     1      -8.567 -12.189  19.344  0.00  0.00    +0.249 C 
ATOM     16  C   UNL     1      -8.068 -11.261  18.294  0.00  0.00    +0.059 A 
ATOM     17  C   UNL     1      -8.643 -10.013  18.004  0.00  0.00    +0.046 A 
ATOM     18  C   UNL     1     -14.175 -12.581  20.321  0.00  0.00    +0.253 C 
ATOM     19  C   UNL     1      -6.841 -11.610  17.701  0.00  0.00    +0.023 A 
ATOM     20  C   UNL     1      -7.938  -9.114  17.183  0.00  0.00    +0.024 A 
ATOM     21  C   UNL     1      -6.180 -10.725  16.849  0.00  0.00    -0.017 A 
ATOM     23  C   UNL     1      -6.723  -9.472  16.601  0.00  0.00    +0.010 A 
ATOM     34  H   UNL     1     -10.018  -8.538  18.471  0.00  0.00    +0.155 HD
ENDROOT
BRANCH  21  24
ATOM      5  O   UNL     1      -3.409 -13.537  13.952  0.00  0.00    -0.453 OA
ATOM      6  O   UNL     1      -1.415 -12.282  14.464  0.00  0.00    -0.453 OA
ATOM     24  C   UNL     1      -4.922 -11.103  16.245  0.00  0.00    -0.014 A 
ATOM     26  C   UNL     1      -4.872 -12.192  15.370  0.00  0.00    +0.058 A 
ATOM     27  C   UNL     1      -3.758 -10.372  16.543  0.00  0.00    +0.012 A 
ATOM     28  C   UNL     1      -3.649 -12.515  14.818  0.00  0.00    +0.167 A 
ATOM     29  C   UNL     1      -2.510 -11.799  15.111  0.00  0.00    +0.166 A 
ATOM     30  C   UNL     1      -2.532 -10.720  15.970  0.00  0.00    +0.050 A 
ATOM     33  C   UNL     1      -1.992 -13.383  13.731  0.00  0.00    +0.466 C 
ENDBRANCH  21  24
BRANCH  18  22
ATOM      1  S   UNL     1     -14.867 -14.346  22.288  0.00  0.00    -0.092 S 
ATOM     22  C   UNL     1     -14.628 -12.760  21.697  0.00  0.00    +0.074 A 
ATOM     25  C   UNL     1     -14.905 -11.801  22.639  0.00  0.00    +0.021 A 
ATOM     31  C   UNL     1     -15.322 -12.377  23.874  0.00  0.00    +0.008 A 
ATOM     32  C   UNL     1     -15.346 -13.753  23.821  0.00  0.00    +0.046 A 
ENDBRANCH  18  22
TORSDOF 2
ENDMDL
MODEL 9
REMARK VINA RESULT:      -7.0     33.570     36.583
REMARK  Name = 7135498
REMARK  2 active torsions:
REMARK  status: ('A' for Active; 'I' for Inactive)
REMARK    1  A    between atoms: C_18  and  C_22
REMARK    2  A    between atoms: C_21  and  C_24
REMARK                            x       y       z     vdW  Elec       q    Type
REMARK                         _______ _______ _______ _____ _____    ______ ____
ROOT
ATOM      2  O   UNL     1     -12.118  -3.902  12.354  0.00  0.00    -0.273 OA
ATOM      3  O   UNL     1     -15.122  -6.855  15.548  0.00  0.00    -0.270 OA
ATOM      4  O   UNL     1     -13.794  -4.639   8.727  0.00  0.00    -0.269 OA
ATOM      7  N   UNL     1     -14.242  -6.126  13.537  0.00  0.00    -0.283 N 
ATOM      8  N   UNL     1     -14.534  -4.939  10.898  0.00  0.00    -0.293 N 
ATOM      9  N   UNL     1     -11.582  -5.047  14.247  0.00  0.00    -0.283 N 
ATOM     10  C   UNL     1     -13.113  -6.086  12.618  0.00  0.00    +0.180 C 
ATOM     11  C   UNL     1     -13.546  -5.994  11.150  0.00  0.00    +0.140 C 
ATOM     12  C   UNL     1     -15.556  -5.769  13.001  0.00  0.00    +0.128 C 
ATOM     13  C   UNL     1     -15.463  -4.632  11.993  0.00  0.00    +0.127 C 
ATOM     14  C   UNL     1     -12.263  -4.904  13.058  0.00  0.00    +0.239 C 
ATOM     15  C   UNL     1     -14.146  -6.637  14.827  0.00  0.00    +0.249 C 
ATOM     16  C   UNL     1     -12.799  -6.910  15.395  0.00  0.00    +0.059 A 
ATOM     17  C   UNL     1     -11.673  -6.098  15.184  0.00  0.00    +0.046 A 
ATOM     18  C   UNL     1     -14.595  -4.352   9.619  0.00  0.00    +0.253 C 
ATOM     19  C   UNL     1     -12.731  -7.952  16.339  0.00  0.00    +0.023 A 
ATOM     20  C   UNL     1     -10.528  -6.304  15.975  0.00  0.00    +0.024 A 
ATOM     21  C   UNL     1     -11.571  -8.172  17.080  0.00  0.00    -0.017 A 
ATOM     23  C   UNL     1     -10.473  -7.339  16.907  0.00  0.00    +0.010 A 
ATOM     34  H   UNL     1     -10.855  -4.357  14.420  0.00  0.00    +0.155 HD
ENDROOT
BRANCH  21  24
ATOM      5  O   UNL     1      -9.292 -11.833  19.401  0.00  0.00    -0.453 OA
ATOM      6  O   UNL     1     -11.237 -12.338  20.734  0.00  0.00    -0.453 OA
ATOM     24  C   UNL     1     -11.518  -9.251  18.042  0.00  0.00    -0.014 A 
ATOM     26  C   UNL     1     -10.342  -9.991  18.191  0.00  0.00    +0.058 A 
ATOM     27  C   UNL     1     -12.652  -9.547  18.820  0.00  0.00    +0.012 A 
ATOM     28  C   UNL     1     -10.340 -11.010  19.121  0.00  0.00    +0.167 A 
ATOM     29  C   UNL     1     -11.450 -11.299  19.882  0.00  0.00    +0.166 A 
ATOM     30  C   UNL     1     -12.623 -10.584  19.755  0.00  0.00    +0.050 A 
ATOM     33  C   UNL     1      -9.867 -12.672  20.424  0.00  0.00    +0.466 C 
ENDBRANCH  21  24
BRANCH  18  22
ATOM      1  S   UNL     1     -17.149  -3.934   8.742  0.00  0.00    -0.092 S 
ATOM     22  C   UNL     1     -15.660  -3.384   9.376  0.00  0.00    +0.074 A 
ATOM     25  C   UNL     1     -15.650  -2.028   9.591  0.00  0.00    +0.021 A 
ATOM     31  C   UNL     1     -16.890  -1.425   9.229  0.00  0.00    +0.008 A 
ATOM     32  C   UNL     1     -17.794  -2.349   8.751  0.00  0.00    +0.046 A 
ENDBRANCH  18  22
TORSDOF 2
ENDMDL
MODEL 10
REMARK VINA RESULT:      -7.0     29.356     32.962
REMARK  Name = 7135498
REMARK  2 active torsions:
REMARK  status: ('A' for Active; 'I' for Inactive)
REMARK    1  A    between atoms: C_18  and  C_22
REMARK    2  A    between atoms: C_21  and  C_24
REMARK                            x       y       z     vdW  Elec       q    Type
REMARK                         _______ _______ _______ _____ _____    ______ ____
ROOT
ATOM      2  O   UNL     1      -3.313 -12.641  11.181  0.00  0.00    -0.273 OA
ATOM      3  O   UNL     1      -7.726 -10.100   9.759  0.00  0.00    -0.270 OA
ATOM      4  O   UNL     1      -1.985 -10.337  14.253  0.00  0.00    -0.269 OA
ATOM      7  N   UNL     1      -5.683 -10.382  10.807  0.00  0.00    -0.283 N 
ATOM      8  N   UNL     1      -4.034 -10.533  13.198  0.00  0.00    -0.293 N 
ATOM      9  N   UNL     1      -4.266 -12.364   9.132  0.00  0.00    -0.283 N 
ATOM     10  C   UNL     1      -4.233 -10.461  10.699  0.00  0.00    +0.180 C 
ATOM     11  C   UNL     1      -3.515  -9.953  11.955  0.00  0.00    +0.140 C 
ATOM     12  C   UNL     1      -6.244 -10.148  12.138  0.00  0.00    +0.128 C 
ATOM     13  C   UNL     1      -5.461 -10.882  13.217  0.00  0.00    +0.127 C 
ATOM     14  C   UNL     1      -3.920 -11.917  10.388  0.00  0.00    +0.239 C 
ATOM     15  C   UNL     1      -6.522 -10.357   9.698  0.00  0.00    +0.249 C 
ATOM     16  C   UNL     1      -5.959 -10.688   8.362  0.00  0.00    +0.059 A 
ATOM     17  C   UNL     1      -4.996 -11.685   8.134  0.00  0.00    +0.046 A 
ATOM     18  C   UNL     1      -3.177 -10.641  14.311  0.00  0.00    +0.253 C 
ATOM     19  C   UNL     1      -6.581 -10.066   7.264  0.00  0.00    +0.023 A 
ATOM     20  C   UNL     1      -4.733 -12.087   6.812  0.00  0.00    +0.024 A 
ATOM     21  C   UNL     1      -6.271 -10.443   5.957  0.00  0.00    -0.017 A 
ATOM     23  C   UNL     1      -5.356 -11.463   5.732  0.00  0.00    +0.010 A 
ATOM     34  H   UNL     1      -3.859 -13.255   8.858  0.00  0.00    +0.155 HD
ENDROOT
BRANCH  21  24
ATOM      5  O   UNL     1      -8.207 -10.400   1.459  0.00  0.00    -0.453 OA
ATOM      6  O   UNL     1      -8.750  -8.055   1.601  0.00  0.00    -0.453 OA
ATOM     24  C   UNL     1      -6.918  -9.789   4.841  0.00  0.00    -0.014 A 
ATOM     26  C   UNL     1      -7.222 -10.521   3.690  0.00  0.00    +0.058 A 
ATOM     27  C   UNL     1      -7.235  -8.422   4.922  0.00  0.00    +0.012 A 
ATOM     28  C   UNL     1      -7.839  -9.855   2.651  0.00  0.00    +0.167 A 
ATOM     29  C   UNL     1      -8.149  -8.516   2.731  0.00  0.00    +0.166 A 
ATOM     30  C   UNL     1      -7.860  -7.770   3.856  0.00  0.00    +0.050 A 
ATOM     33  C   UNL     1      -8.784  -9.254   0.799  0.00  0.00    +0.466 C 
ENDBRANCH  21  24
BRANCH  18  22
ATOM      1  S   UNL     1      -4.134 -12.784  15.711  0.00  0.00    -0.092 S 
ATOM     22  C   UNL     1      -3.759 -11.124  15.561  0.00  0.00    +0.074 A 
ATOM     25  C   UNL     1      -4.066 -10.411  16.693  0.00  0.00    +0.021 A 
ATOM     31  C   UNL     1      -4.621 -11.243  17.708  0.00  0.00    +0.008 A 
ATOM     32  C   UNL     1      -4.714 -12.558  17.306  0.00  0.00    +0.046 A 
ENDBRANCH  18  22
TORSDOF 2
ENDMDL
