MODEL 1
REMARK VINA RESULT:      -7.0      0.000      0.000
REMARK  Name = 75536762
REMARK  7 active torsions:
REMARK  status: ('A' for Active; 'I' for Inactive)
REMARK    1  A    between atoms: O_2  and  C_10
REMARK    2  A    between atoms: N_5  and  C_9
REMARK    3  A    between atoms: N_5  and  C_14
REMARK    4  A    between atoms: N_6  and  C_13
REMARK    5  A    between atoms: C_11  and  C_13
REMARK    6  A    between atoms: C_14  and  C_18
REMARK    7  A    between atoms: C_23  and  C_26
REMARK                            x       y       z     vdW  Elec       q    Type
REMARK                         _______ _______ _______ _____ _____    ______ ____
ROOT
ATOM      1  O   UNL     1      11.629   7.133  19.972  0.00  0.00    -0.371 OA
ATOM      9  C   UNL     1      13.987   6.859  19.868  0.00  0.00    +0.111 C 
ATOM     10  C   UNL     1      13.630   7.596  21.145  0.00  0.00    +0.164 C 
ATOM     11  C   UNL     1      12.164   7.216  21.304  0.00  0.00    +0.165 C 
ATOM     12  C   UNL     1      12.725   7.059  19.044  0.00  0.00    +0.181 C 
ENDROOT
BRANCH  10   2
ATOM      2  O   UNL     1      14.406   7.176  22.252  0.00  0.00    -0.388 OA
ATOM     29  H   UNL     1      14.875   7.950  22.607  0.00  0.00    +0.210 HD
ENDBRANCH  10   2
BRANCH   9   5
ATOM      5  N   UNL     1      15.178   7.372  19.212  0.00  0.00    -0.305 NA
ATOM     27  H   UNL     1      15.546   8.153  19.754  0.00  0.00    +0.123 HD
BRANCH   5  14
ATOM     14  C   UNL     1      16.205   6.342  19.110  0.00  0.00    +0.116 C 
BRANCH  14  18
ATOM     18  C   UNL     1      17.414   6.672  19.946  0.00  0.00    -0.032 A 
ATOM     21  C   UNL     1      18.524   5.826  19.934  0.00  0.00    +0.023 A 
ATOM     22  C   UNL     1      17.423   7.823  20.733  0.00  0.00    +0.005 A 
ATOM     23  C   UNL     1      19.643   6.134  20.708  0.00  0.00    +0.052 A 
ATOM     24  C   UNL     1      18.542   8.130  21.508  0.00  0.00    +0.002 A 
ATOM     25  C   UNL     1      19.653   7.284  21.495  0.00  0.00    +0.019 A 
BRANCH  23  26
ATOM      8  N   UNL     1      21.704   4.567  20.685  0.00  0.00    -0.191 NA
ATOM     26  C   UNL     1      20.781   5.269  20.695  0.00  0.00    +0.099 C 
ENDBRANCH  23  26
ENDBRANCH  14  18
ENDBRANCH   5  14
ENDBRANCH   9   5
BRANCH  11  13
ATOM     13  C   UNL     1      11.367   8.222  22.115  0.00  0.00    +0.140 C 
BRANCH  13   6
ATOM      3  O   UNL     1      14.370  12.956  25.240  0.00  0.00    -0.377 OA
ATOM      4  O   UNL     1      10.502  10.698  23.138  0.00  0.00    -0.253 OA
ATOM      6  N   UNL     1      12.220   9.250  22.669  0.00  0.00    -0.297 N 
ATOM      7  N   UNL     1      12.667  11.351  23.655  0.00  0.00    -0.281 N 
ATOM     15  C   UNL     1      11.713  10.449  23.155  0.00  0.00    +0.302 C 
ATOM     16  C   UNL     1      14.127  11.201  23.575  0.00  0.00    +0.137 C 
ATOM     17  C   UNL     1      12.222  12.643  24.181  0.00  0.00    +0.137 C 
ATOM     19  C   UNL     1      14.789  11.639  24.877  0.00  0.00    +0.179 C 
ATOM     20  C   UNL     1      12.960  12.994  25.463  0.00  0.00    +0.179 C 
ATOM     28  H   UNL     1      13.210   9.053  22.665  0.00  0.00    +0.150 HD
ENDBRANCH  13   6
ENDBRANCH  11  13
TORSDOF 7
ENDMDL
MODEL 2
REMARK VINA RESULT:      -6.3     28.479     30.664
REMARK  Name = 75536762
REMARK  7 active torsions:
REMARK  status: ('A' for Active; 'I' for Inactive)
REMARK    1  A    between atoms: O_2  and  C_10
REMARK    2  A    between atoms: N_5  and  C_9
REMARK    3  A    between atoms: N_5  and  C_14
REMARK    4  A    between atoms: N_6  and  C_13
REMARK    5  A    between atoms: C_11  and  C_13
REMARK    6  A    between atoms: C_14  and  C_18
REMARK    7  A    between atoms: C_23  and  C_26
REMARK                            x       y       z     vdW  Elec       q    Type
REMARK                         _______ _______ _______ _____ _____    ______ ____
ROOT
ATOM      1  O   UNL     1     -12.049  -7.959  14.241  0.00  0.00    -0.371 OA
ATOM      9  C   UNL     1     -10.276  -8.115  15.814  0.00  0.00    +0.111 C 
ATOM     10  C   UNL     1     -10.765  -6.680  15.760  0.00  0.00    +0.164 C 
ATOM     11  C   UNL     1     -12.155  -6.865  15.168  0.00  0.00    +0.165 C 
ATOM     12  C   UNL     1     -10.828  -8.670  14.511  0.00  0.00    +0.181 C 
ENDROOT
BRANCH  10   2
ATOM      2  O   UNL     1     -10.813  -6.071  17.036  0.00  0.00    -0.388 OA
ATOM     29  H   UNL     1     -11.603  -5.506  17.075  0.00  0.00    +0.210 HD
ENDBRANCH  10   2
BRANCH   9   5
ATOM      5  N   UNL     1      -8.831  -8.237  15.914  0.00  0.00    -0.305 NA
ATOM     27  H   UNL     1      -8.541  -7.985  16.859  0.00  0.00    +0.123 HD
BRANCH   5  14
ATOM     14  C   UNL     1      -8.398  -9.600  15.634  0.00  0.00    +0.116 C 
BRANCH  14  18
ATOM     18  C   UNL     1      -7.115  -9.938  16.347  0.00  0.00    -0.032 A 
ATOM     21  C   UNL     1      -7.143 -10.334  17.684  0.00  0.00    +0.023 A 
ATOM     22  C   UNL     1      -5.899  -9.856  15.670  0.00  0.00    +0.005 A 
ATOM     23  C   UNL     1      -5.954 -10.649  18.343  0.00  0.00    +0.052 A 
ATOM     24  C   UNL     1      -4.710 -10.169  16.328  0.00  0.00    +0.002 A 
ATOM     25  C   UNL     1      -4.738 -10.566  17.666  0.00  0.00    +0.019 A 
BRANCH  23  26
ATOM      8  N   UNL     1      -6.004 -11.386  20.824  0.00  0.00    -0.191 NA
ATOM     26  C   UNL     1      -5.982 -11.055  19.713  0.00  0.00    +0.099 C 
ENDBRANCH  23  26
ENDBRANCH  14  18
ENDBRANCH   5  14
ENDBRANCH   9   5
BRANCH  11  13
ATOM     13  C   UNL     1     -12.671  -5.632  14.448  0.00  0.00    +0.140 C 
BRANCH  13   6
ATOM      3  O   UNL     1     -10.834  -5.045   8.325  0.00  0.00    -0.377 OA
ATOM      4  O   UNL     1     -12.341  -3.413  12.747  0.00  0.00    -0.253 OA
ATOM      6  N   UNL     1     -12.389  -5.689  13.030  0.00  0.00    -0.297 N 
ATOM      7  N   UNL     1     -11.976  -4.763  10.896  0.00  0.00    -0.281 N 
ATOM     15  C   UNL     1     -12.240  -4.544  12.258  0.00  0.00    +0.302 C 
ATOM     16  C   UNL     1     -11.989  -6.061  10.208  0.00  0.00    +0.137 C 
ATOM     17  C   UNL     1     -11.811  -3.611  10.006  0.00  0.00    +0.137 C 
ATOM     19  C   UNL     1     -10.836  -6.162   9.216  0.00  0.00    +0.179 C 
ATOM     20  C   UNL     1     -10.653  -3.825   9.046  0.00  0.00    +0.179 C 
ATOM     28  H   UNL     1     -12.325  -6.614  12.630  0.00  0.00    +0.150 HD
ENDBRANCH  13   6
ENDBRANCH  11  13
TORSDOF 7
ENDMDL
MODEL 3
REMARK VINA RESULT:      -6.2      1.990      3.305
REMARK  Name = 75536762
REMARK  7 active torsions:
REMARK  status: ('A' for Active; 'I' for Inactive)
REMARK    1  A    between atoms: O_2  and  C_10
REMARK    2  A    between atoms: N_5  and  C_9
REMARK    3  A    between atoms: N_5  and  C_14
REMARK    4  A    between atoms: N_6  and  C_13
REMARK    5  A    between atoms: C_11  and  C_13
REMARK    6  A    between atoms: C_14  and  C_18
REMARK    7  A    between atoms: C_23  and  C_26
REMARK                            x       y       z     vdW  Elec       q    Type
REMARK                         _______ _______ _______ _____ _____    ______ ____
ROOT
ATOM      1  O   UNL     1      15.838   6.194  19.007  0.00  0.00    -0.371 OA
ATOM      9  C   UNL     1      16.970   6.374  21.088  0.00  0.00    +0.111 C 
ATOM     10  C   UNL     1      15.706   7.212  21.138  0.00  0.00    +0.164 C 
ATOM     11  C   UNL     1      14.891   6.581  20.018  0.00  0.00    +0.165 C 
ATOM     12  C   UNL     1      17.154   6.196  19.590  0.00  0.00    +0.181 C 
ENDROOT
BRANCH  10   2
ATOM      2  O   UNL     1      15.043   7.126  22.385  0.00  0.00    -0.388 OA
ATOM     29  H   UNL     1      15.409   7.808  22.973  0.00  0.00    +0.210 HD
ENDBRANCH  10   2
BRANCH   9   5
ATOM      5  N   UNL     1      18.114   7.005  21.727  0.00  0.00    -0.305 NA
ATOM     27  H   UNL     1      18.257   6.581  22.644  0.00  0.00    +0.123 HD
BRANCH   5  14
ATOM     14  C   UNL     1      19.323   6.830  20.931  0.00  0.00    +0.116 C 
BRANCH  14  18
ATOM     18  C   UNL     1      20.412   6.142  21.711  0.00  0.00    -0.032 A 
ATOM     21  C   UNL     1      21.056   5.026  21.176  0.00  0.00    +0.023 A 
ATOM     22  C   UNL     1      20.778   6.622  22.968  0.00  0.00    +0.005 A 
ATOM     23  C   UNL     1      22.067   4.391  21.898  0.00  0.00    +0.052 A 
ATOM     24  C   UNL     1      21.788   5.987  23.691  0.00  0.00    +0.002 A 
ATOM     25  C   UNL     1      22.432   4.871  23.155  0.00  0.00    +0.019 A 
BRANCH  23  26
ATOM      8  N   UNL     1      23.264   2.321  20.906  0.00  0.00    -0.191 NA
ATOM     26  C   UNL     1      22.727   3.249  21.351  0.00  0.00    +0.099 C 
ENDBRANCH  23  26
ENDBRANCH  14  18
ENDBRANCH   5  14
ENDBRANCH   9   5
BRANCH  11  13
ATOM     13  C   UNL     1      13.861   7.523  19.420  0.00  0.00    +0.140 C 
BRANCH  13   6
ATOM      3  O   UNL     1      12.016  11.752  23.882  0.00  0.00    -0.377 OA
ATOM      4  O   UNL     1      11.402   8.014  20.698  0.00  0.00    -0.253 OA
ATOM      6  N   UNL     1      13.577   8.629  20.307  0.00  0.00    -0.297 N 
ATOM      7  N   UNL     1      12.209   9.928  21.731  0.00  0.00    -0.281 N 
ATOM     15  C   UNL     1      12.333   8.802  20.900  0.00  0.00    +0.302 C 
ATOM     16  C   UNL     1      13.210  10.990  21.906  0.00  0.00    +0.137 C 
ATOM     17  C   UNL     1      10.929  10.191  22.393  0.00  0.00    +0.137 C 
ATOM     19  C   UNL     1      13.305  11.411  23.368  0.00  0.00    +0.179 C 
ATOM     20  C   UNL     1      11.139  10.625  23.834  0.00  0.00    +0.179 C 
ATOM     28  H   UNL     1      14.334   9.282  20.456  0.00  0.00    +0.150 HD
ENDBRANCH  13   6
ENDBRANCH  11  13
TORSDOF 7
ENDMDL
MODEL 4
REMARK VINA RESULT:      -6.1     28.554     30.576
REMARK  Name = 75536762
REMARK  7 active torsions:
REMARK  status: ('A' for Active; 'I' for Inactive)
REMARK    1  A    between atoms: O_2  and  C_10
REMARK    2  A    between atoms: N_5  and  C_9
REMARK    3  A    between atoms: N_5  and  C_14
REMARK    4  A    between atoms: N_6  and  C_13
REMARK    5  A    between atoms: C_11  and  C_13
REMARK    6  A    between atoms: C_14  and  C_18
REMARK    7  A    between atoms: C_23  and  C_26
REMARK                            x       y       z     vdW  Elec       q    Type
REMARK                         _______ _______ _______ _____ _____    ______ ____
ROOT
ATOM      1  O   UNL     1     -12.091  -7.828  14.299  0.00  0.00    -0.371 OA
ATOM      9  C   UNL     1     -10.413  -8.052  15.966  0.00  0.00    +0.111 C 
ATOM     10  C   UNL     1     -10.832  -6.596  15.877  0.00  0.00    +0.164 C 
ATOM     11  C   UNL     1     -12.196  -6.723  15.213  0.00  0.00    +0.165 C 
ATOM     12  C   UNL     1     -10.921  -8.592  14.638  0.00  0.00    +0.181 C 
ENDROOT
BRANCH  10   2
ATOM      2  O   UNL     1     -10.919  -5.975  17.146  0.00  0.00    -0.388 OA
ATOM     29  H   UNL     1     -11.346  -5.110  17.033  0.00  0.00    +0.210 HD
ENDBRANCH  10   2
BRANCH   9   5
ATOM      5  N   UNL     1      -8.983  -8.238  16.143  0.00  0.00    -0.305 NA
ATOM     27  H   UNL     1      -8.541  -7.327  16.260  0.00  0.00    +0.123 HD
BRANCH   5  14
ATOM     14  C   UNL     1      -8.700  -9.055  17.317  0.00  0.00    +0.116 C 
BRANCH  14  18
ATOM     18  C   UNL     1      -7.319  -9.653  17.265  0.00  0.00    -0.032 A 
ATOM     21  C   UNL     1      -6.660  -9.784  16.042  0.00  0.00    +0.023 A 
ATOM     22  C   UNL     1      -6.698 -10.076  18.439  0.00  0.00    +0.005 A 
ATOM     23  C   UNL     1      -5.380 -10.336  15.995  0.00  0.00    +0.052 A 
ATOM     24  C   UNL     1      -5.419 -10.629  18.393  0.00  0.00    +0.002 A 
ATOM     25  C   UNL     1      -4.759 -10.759  17.170  0.00  0.00    +0.019 A 
BRANCH  23  26
ATOM      8  N   UNL     1      -4.155 -10.577  13.727  0.00  0.00    -0.191 NA
ATOM     26  C   UNL     1      -4.704 -10.469  14.743  0.00  0.00    +0.099 C 
ENDBRANCH  23  26
ENDBRANCH  14  18
ENDBRANCH   5  14
ENDBRANCH   9   5
BRANCH  11  13
ATOM     13  C   UNL     1     -12.615  -5.473  14.459  0.00  0.00    +0.140 C 
BRANCH  13   6
ATOM      3  O   UNL     1     -10.796  -5.152   8.312  0.00  0.00    -0.377 OA
ATOM      4  O   UNL     1     -12.267  -3.328  12.671  0.00  0.00    -0.253 OA
ATOM      6  N   UNL     1     -12.340  -5.590  13.045  0.00  0.00    -0.297 N 
ATOM      7  N   UNL     1     -11.925  -4.754  10.873  0.00  0.00    -0.281 N 
ATOM     15  C   UNL     1     -12.181  -4.478  12.227  0.00  0.00    +0.302 C 
ATOM     16  C   UNL     1     -11.956  -6.079  10.238  0.00  0.00    +0.137 C 
ATOM     17  C   UNL     1     -11.750  -3.640   9.938  0.00  0.00    +0.137 C 
ATOM     19  C   UNL     1     -10.808  -6.232   9.247  0.00  0.00    +0.179 C 
ATOM     20  C   UNL     1     -10.598  -3.906   8.983  0.00  0.00    +0.179 C 
ATOM     28  H   UNL     1     -12.289  -6.531  12.681  0.00  0.00    +0.150 HD
ENDBRANCH  13   6
ENDBRANCH  11  13
TORSDOF 7
ENDMDL
MODEL 5
REMARK VINA RESULT:      -6.1     27.774     30.625
REMARK  Name = 75536762
REMARK  7 active torsions:
REMARK  status: ('A' for Active; 'I' for Inactive)
REMARK    1  A    between atoms: O_2  and  C_10
REMARK    2  A    between atoms: N_5  and  C_9
REMARK    3  A    between atoms: N_5  and  C_14
REMARK    4  A    between atoms: N_6  and  C_13
REMARK    5  A    between atoms: C_11  and  C_13
REMARK    6  A    between atoms: C_14  and  C_18
REMARK    7  A    between atoms: C_23  and  C_26
REMARK                            x       y       z     vdW  Elec       q    Type
REMARK                         _______ _______ _______ _____ _____    ______ ____
ROOT
ATOM      1  O   UNL     1     -11.594  -9.730  16.451  0.00  0.00    -0.371 OA
ATOM      9  C   UNL     1      -9.775  -8.556  17.427  0.00  0.00    +0.111 C 
ATOM     10  C   UNL     1      -9.964  -8.077  16.000  0.00  0.00    +0.164 C 
ATOM     11  C   UNL     1     -11.404  -8.496  15.738  0.00  0.00    +0.165 C 
ATOM     12  C   UNL     1     -10.527  -9.877  17.403  0.00  0.00    +0.181 C 
ENDROOT
BRANCH  10   2
ATOM      2  O   UNL     1      -9.789  -6.679  15.865  0.00  0.00    -0.388 OA
ATOM     29  H   UNL     1     -10.228  -6.394  15.046  0.00  0.00    +0.210 HD
ENDBRANCH  10   2
BRANCH   9   5
ATOM      5  N   UNL     1      -8.381  -8.705  17.813  0.00  0.00    -0.305 NA
ATOM     27  H   UNL     1      -8.329  -9.273  18.658  0.00  0.00    +0.123 HD
BRANCH   5  14
ATOM     14  C   UNL     1      -7.611  -9.354  16.759  0.00  0.00    +0.116 C 
BRANCH  14  18
ATOM     18  C   UNL     1      -6.427 -10.104  17.311  0.00  0.00    -0.032 A 
ATOM     21  C   UNL     1      -5.222 -10.120  16.608  0.00  0.00    +0.023 A 
ATOM     22  C   UNL     1      -6.536 -10.782  18.524  0.00  0.00    +0.005 A 
ATOM     23  C   UNL     1      -4.125 -10.813  17.121  0.00  0.00    +0.052 A 
ATOM     24  C   UNL     1      -5.440 -11.476  19.037  0.00  0.00    +0.002 A 
ATOM     25  C   UNL     1      -4.234 -11.491  18.335  0.00  0.00    +0.019 A 
BRANCH  23  26
ATOM      8  N   UNL     1      -1.886 -10.842  15.822  0.00  0.00    -0.191 NA
ATOM     26  C   UNL     1      -2.890 -10.829  16.404  0.00  0.00    +0.099 C 
ENDBRANCH  23  26
ENDBRANCH  14  18
ENDBRANCH   5  14
ENDBRANCH   9   5
BRANCH  11  13
ATOM     13  C   UNL     1     -11.712  -8.701  14.265  0.00  0.00    +0.140 C 
BRANCH  13   6
ATOM      3  O   UNL     1     -13.700  -2.999  12.089  0.00  0.00    -0.377 OA
ATOM      4  O   UNL     1     -14.254  -7.515  14.036  0.00  0.00    -0.253 OA
ATOM      6  N   UNL     1     -12.002  -7.448  13.605  0.00  0.00    -0.297 N 
ATOM      7  N   UNL     1     -13.411  -5.705  12.854  0.00  0.00    -0.281 N 
ATOM     15  C   UNL     1     -13.289  -6.928  13.535  0.00  0.00    +0.302 C 
ATOM     16  C   UNL     1     -12.349  -5.021  12.104  0.00  0.00    +0.137 C 
ATOM     17  C   UNL     1     -14.733  -5.088  12.727  0.00  0.00    +0.137 C 
ATOM     19  C   UNL     1     -12.393  -3.517  12.349  0.00  0.00    +0.179 C 
ATOM     20  C   UNL     1     -14.660  -3.589  12.967  0.00  0.00    +0.179 C 
ATOM     28  H   UNL     1     -11.214  -6.980  13.180  0.00  0.00    +0.150 HD
ENDBRANCH  13   6
ENDBRANCH  11  13
TORSDOF 7
ENDMDL
MODEL 6
REMARK VINA RESULT:      -6.0     26.621     29.460
REMARK  Name = 75536762
REMARK  7 active torsions:
REMARK  status: ('A' for Active; 'I' for Inactive)
REMARK    1  A    between atoms: O_2  and  C_10
REMARK    2  A    between atoms: N_5  and  C_9
REMARK    3  A    between atoms: N_5  and  C_14
REMARK    4  A    between atoms: N_6  and  C_13
REMARK    5  A    between atoms: C_11  and  C_13
REMARK    6  A    between atoms: C_14  and  C_18
REMARK    7  A    between atoms: C_23  and  C_26
REMARK                            x       y       z     vdW  Elec       q    Type
REMARK                         _______ _______ _______ _____ _____    ______ ____
ROOT
ATOM      1  O   UNL     1      -7.572 -13.087  18.710  0.00  0.00    -0.371 OA
ATOM      9  C   UNL     1      -5.676 -11.655  18.684  0.00  0.00    +0.111 C 
ATOM     10  C   UNL     1      -6.896 -10.855  19.102  0.00  0.00    +0.164 C 
ATOM     11  C   UNL     1      -7.828 -11.963  19.570  0.00  0.00    +0.165 C 
ATOM     12  C   UNL     1      -6.322 -12.867  18.033  0.00  0.00    +0.181 C 
ENDROOT
BRANCH  10   2
ATOM      2  O   UNL     1      -6.615  -9.931  20.137  0.00  0.00    -0.388 OA
ATOM     29  H   UNL     1      -6.635  -9.036  19.761  0.00  0.00    +0.210 HD
ENDBRANCH  10   2
BRANCH   9   5
ATOM      5  N   UNL     1      -4.787 -10.937  17.785  0.00  0.00    -0.305 NA
ATOM     27  H   UNL     1      -3.869 -10.855  18.222  0.00  0.00    +0.123 HD
BRANCH   5  14
ATOM     14  C   UNL     1      -4.646 -11.637  16.515  0.00  0.00    +0.116 C 
BRANCH  14  18
ATOM     18  C   UNL     1      -3.504 -11.093  15.698  0.00  0.00    -0.032 A 
ATOM     21  C   UNL     1      -3.622 -10.995  14.311  0.00  0.00    +0.023 A 
ATOM     22  C   UNL     1      -2.329 -10.685  16.329  0.00  0.00    +0.005 A 
ATOM     23  C   UNL     1      -2.563 -10.488  13.556  0.00  0.00    +0.052 A 
ATOM     24  C   UNL     1      -1.271 -10.180  15.574  0.00  0.00    +0.002 A 
ATOM     25  C   UNL     1      -1.388 -10.081  14.187  0.00  0.00    +0.019 A 
BRANCH  23  26
ATOM      8  N   UNL     1      -2.779 -10.304  10.983  0.00  0.00    -0.191 NA
ATOM     26  C   UNL     1      -2.683 -10.387  12.136  0.00  0.00    +0.099 C 
ENDBRANCH  23  26
ENDBRANCH  14  18
ENDBRANCH   5  14
ENDBRANCH   9   5
BRANCH  11  13
ATOM     13  C   UNL     1      -9.297 -11.585  19.494  0.00  0.00    +0.140 C 
BRANCH  13   6
ATOM      3  O   UNL     1     -10.972  -7.053  15.269  0.00  0.00    -0.377 OA
ATOM      4  O   UNL     1     -10.002 -11.668  16.771  0.00  0.00    -0.253 OA
ATOM      6  N   UNL     1      -9.505 -10.436  18.642  0.00  0.00    -0.297 N 
ATOM      7  N   UNL     1     -10.013  -9.353  16.603  0.00  0.00    -0.281 N 
ATOM     15  C   UNL     1      -9.853 -10.562  17.302  0.00  0.00    +0.302 C 
ATOM     16  C   UNL     1      -9.710  -8.009  17.114  0.00  0.00    +0.137 C 
ATOM     17  C   UNL     1     -10.373  -9.392  15.184  0.00  0.00    +0.137 C 
ATOM     19  C   UNL     1     -10.779  -7.011  16.684  0.00  0.00    +0.179 C 
ATOM     20  C   UNL     1     -11.425  -8.344  14.859  0.00  0.00    +0.179 C 
ATOM     28  H   UNL     1      -9.364  -9.534  19.074  0.00  0.00    +0.150 HD
ENDBRANCH  13   6
ENDBRANCH  11  13
TORSDOF 7
ENDMDL
MODEL 7
REMARK VINA RESULT:      -6.0      4.349      9.646
REMARK  Name = 75536762
REMARK  7 active torsions:
REMARK  status: ('A' for Active; 'I' for Inactive)
REMARK    1  A    between atoms: O_2  and  C_10
REMARK    2  A    between atoms: N_5  and  C_9
REMARK    3  A    between atoms: N_5  and  C_14
REMARK    4  A    between atoms: N_6  and  C_13
REMARK    5  A    between atoms: C_11  and  C_13
REMARK    6  A    between atoms: C_14  and  C_18
REMARK    7  A    between atoms: C_23  and  C_26
REMARK                            x       y       z     vdW  Elec       q    Type
REMARK                         _______ _______ _______ _____ _____    ______ ____
ROOT
ATOM      1  O   UNL     1      19.927   6.255  20.670  0.00  0.00    -0.371 OA
ATOM      9  C   UNL     1      17.928   7.487  21.026  0.00  0.00    +0.111 C 
ATOM     10  C   UNL     1      18.898   7.782  22.154  0.00  0.00    +0.164 C 
ATOM     11  C   UNL     1      20.221   7.379  21.516  0.00  0.00    +0.165 C 
ATOM     12  C   UNL     1      18.505   6.199  20.461  0.00  0.00    +0.181 C 
ENDROOT
BRANCH  10   2
ATOM      2  O   UNL     1      18.892   9.144  22.538  0.00  0.00    -0.388 OA
ATOM     29  H   UNL     1      19.277   9.667  21.815  0.00  0.00    +0.210 HD
ENDBRANCH  10   2
BRANCH   9   5
ATOM      5  N   UNL     1      16.549   7.345  21.464  0.00  0.00    -0.305 NA
ATOM     27  H   UNL     1      16.064   8.232  21.329  0.00  0.00    +0.123 HD
BRANCH   5  14
ATOM     14  C   UNL     1      15.860   6.309  20.704  0.00  0.00    +0.116 C 
BRANCH  14  18
ATOM     18  C   UNL     1      14.690   6.864  19.934  0.00  0.00    -0.032 A 
ATOM     21  C   UNL     1      14.856   7.276  18.612  0.00  0.00    +0.023 A 
ATOM     22  C   UNL     1      13.440   6.964  20.544  0.00  0.00    +0.005 A 
ATOM     23  C   UNL     1      13.771   7.787  17.900  0.00  0.00    +0.052 A 
ATOM     24  C   UNL     1      12.355   7.477  19.833  0.00  0.00    +0.002 A 
ATOM     25  C   UNL     1      12.521   7.888  18.510  0.00  0.00    +0.019 A 
BRANCH  23  26
ATOM      8  N   UNL     1      14.076   8.550  15.445  0.00  0.00    -0.191 NA
ATOM     26  C   UNL     1      13.939   8.209  16.545  0.00  0.00    +0.099 C 
ENDBRANCH  23  26
ENDBRANCH  14  18
ENDBRANCH   5  14
ENDBRANCH   9   5
BRANCH  11  13
ATOM     13  C   UNL     1      21.284   6.993  22.530  0.00  0.00    +0.140 C 
BRANCH  13   6
ATOM      3  O   UNL     1      25.106   2.485  20.026  0.00  0.00    -0.377 OA
ATOM      4  O   UNL     1      21.826   4.325  23.243  0.00  0.00    -0.253 OA
ATOM      6  N   UNL     1      22.300   6.152  21.938  0.00  0.00    -0.297 N 
ATOM      7  N   UNL     1      23.534   4.152  21.681  0.00  0.00    -0.281 N 
ATOM     15  C   UNL     1      22.505   4.840  22.347  0.00  0.00    +0.302 C 
ATOM     16  C   UNL     1      24.482   4.731  20.719  0.00  0.00    +0.137 C 
ATOM     17  C   UNL     1      23.824   2.766  22.054  0.00  0.00    +0.137 C 
ATOM     19  C   UNL     1      24.721   3.778  19.553  0.00  0.00    +0.179 C 
ATOM     20  C   UNL     1      24.069   1.910  20.823  0.00  0.00    +0.179 C 
ATOM     28  H   UNL     1      22.865   6.581  21.219  0.00  0.00    +0.150 HD
ENDBRANCH  13   6
ENDBRANCH  11  13
TORSDOF 7
ENDMDL
MODEL 8
REMARK VINA RESULT:      -6.0     28.339     31.163
REMARK  Name = 75536762
REMARK  7 active torsions:
REMARK  status: ('A' for Active; 'I' for Inactive)
REMARK    1  A    between atoms: O_2  and  C_10
REMARK    2  A    between atoms: N_5  and  C_9
REMARK    3  A    between atoms: N_5  and  C_14
REMARK    4  A    between atoms: N_6  and  C_13
REMARK    5  A    between atoms: C_11  and  C_13
REMARK    6  A    between atoms: C_14  and  C_18
REMARK    7  A    between atoms: C_23  and  C_26
REMARK                            x       y       z     vdW  Elec       q    Type
REMARK                         _______ _______ _______ _____ _____    ______ ____
ROOT
ATOM      1  O   UNL     1     -16.590   4.183  25.406  0.00  0.00    -0.371 OA
ATOM      9  C   UNL     1     -15.985   4.143  23.109  0.00  0.00    +0.111 C 
ATOM     10  C   UNL     1     -16.387   2.745  23.540  0.00  0.00    +0.164 C 
ATOM     11  C   UNL     1     -17.211   3.046  24.784  0.00  0.00    +0.165 C 
ATOM     12  C   UNL     1     -15.712   4.804  24.451  0.00  0.00    +0.181 C 
ENDROOT
BRANCH  10   2
ATOM      2  O   UNL     1     -17.146   2.067  22.556  0.00  0.00    -0.388 OA
ATOM     29  H   UNL     1     -17.346   2.693  21.840  0.00  0.00    +0.210 HD
ENDBRANCH  10   2
BRANCH   9   5
ATOM      5  N   UNL     1     -14.836   4.172  22.220  0.00  0.00    -0.305 NA
ATOM     27  H   UNL     1     -15.148   4.428  21.282  0.00  0.00    +0.123 HD
BRANCH   5  14
ATOM     14  C   UNL     1     -13.847   5.144  22.670  0.00  0.00    +0.116 C 
BRANCH  14  18
ATOM     18  C   UNL     1     -13.450   6.092  21.569  0.00  0.00    -0.032 A 
ATOM     21  C   UNL     1     -14.430   6.789  20.861  0.00  0.00    +0.023 A 
ATOM     22  C   UNL     1     -12.103   6.272  21.257  0.00  0.00    +0.005 A 
ATOM     23  C   UNL     1     -14.060   7.668  19.842  0.00  0.00    +0.052 A 
ATOM     24  C   UNL     1     -11.734   7.150  20.238  0.00  0.00    +0.002 A 
ATOM     25  C   UNL     1     -12.713   7.848  19.530  0.00  0.00    +0.019 A 
BRANCH  23  26
ATOM      8  N   UNL     1     -15.876   8.965  18.529  0.00  0.00    -0.191 NA
ATOM     26  C   UNL     1     -15.062   8.384  19.117  0.00  0.00    +0.099 C 
ENDBRANCH  23  26
ENDBRANCH  14  18
ENDBRANCH   5  14
ENDBRANCH   9   5
BRANCH  11  13
ATOM     13  C   UNL     1     -17.262   1.888  25.765  0.00  0.00    +0.140 C 
BRANCH  13   6
ATOM      3  O   UNL     1     -13.859   2.181  31.200  0.00  0.00    -0.377 OA
ATOM      4  O   UNL     1     -17.241   0.321  28.103  0.00  0.00    -0.253 OA
ATOM      6  N   UNL     1     -16.527   2.186  26.974  0.00  0.00    -0.297 N 
ATOM      7  N   UNL     1     -15.807   1.786  29.189  0.00  0.00    -0.281 N 
ATOM     15  C   UNL     1     -16.569   1.358  28.089  0.00  0.00    +0.302 C 
ATOM     16  C   UNL     1     -15.105   3.071  29.311  0.00  0.00    +0.137 C 
ATOM     17  C   UNL     1     -15.799   0.976  30.410  0.00  0.00    +0.137 C 
ATOM     19  C   UNL     1     -13.739   2.885  29.962  0.00  0.00    +0.179 C 
ATOM     20  C   UNL     1     -14.397   0.875  30.988  0.00  0.00    +0.179 C 
ATOM     28  H   UNL     1     -15.993   3.044  26.967  0.00  0.00    +0.150 HD
ENDBRANCH  13   6
ENDBRANCH  11  13
TORSDOF 7
ENDMDL
MODEL 9
REMARK VINA RESULT:      -6.0     28.077     31.395
REMARK  Name = 75536762
REMARK  7 active torsions:
REMARK  status: ('A' for Active; 'I' for Inactive)
REMARK    1  A    between atoms: O_2  and  C_10
REMARK    2  A    between atoms: N_5  and  C_9
REMARK    3  A    between atoms: N_5  and  C_14
REMARK    4  A    between atoms: N_6  and  C_13
REMARK    5  A    between atoms: C_11  and  C_13
REMARK    6  A    between atoms: C_14  and  C_18
REMARK    7  A    between atoms: C_23  and  C_26
REMARK                            x       y       z     vdW  Elec       q    Type
REMARK                         _______ _______ _______ _____ _____    ______ ____
ROOT
ATOM      1  O   UNL     1     -16.919   3.282  26.742  0.00  0.00    -0.371 OA
ATOM      9  C   UNL     1     -16.650   3.038  24.394  0.00  0.00    +0.111 C 
ATOM     10  C   UNL     1     -16.569   1.670  25.047  0.00  0.00    +0.164 C 
ATOM     11  C   UNL     1     -17.267   1.936  26.374  0.00  0.00    +0.165 C 
ATOM     12  C   UNL     1     -16.397   3.953  25.582  0.00  0.00    +0.181 C 
ENDROOT
BRANCH  10   2
ATOM      2  O   UNL     1     -17.229   0.667  24.297  0.00  0.00    -0.388 OA
ATOM     29  H   UNL     1     -18.177   0.704  24.506  0.00  0.00    +0.210 HD
ENDBRANCH  10   2
BRANCH   9   5
ATOM      5  N   UNL     1     -15.692   3.229  23.318  0.00  0.00    -0.305 NA
ATOM     27  H   UNL     1     -16.198   3.407  22.450  0.00  0.00    +0.123 HD
BRANCH   5  14
ATOM     14  C   UNL     1     -14.813   4.359  23.593  0.00  0.00    +0.116 C 
BRANCH  14  18
ATOM     18  C   UNL     1     -14.730   5.302  22.421  0.00  0.00    -0.032 A 
ATOM     21  C   UNL     1     -13.500   5.847  22.049  0.00  0.00    +0.023 A 
ATOM     22  C   UNL     1     -15.882   5.630  21.709  0.00  0.00    +0.005 A 
ATOM     23  C   UNL     1     -13.424   6.719  20.963  0.00  0.00    +0.052 A 
ATOM     24  C   UNL     1     -15.807   6.503  20.623  0.00  0.00    +0.002 A 
ATOM     25  C   UNL     1     -14.577   7.048  20.250  0.00  0.00    +0.019 A 
BRANCH  23  26
ATOM      8  N   UNL     1     -11.144   7.728  20.269  0.00  0.00    -0.191 NA
ATOM     26  C   UNL     1     -12.166   7.276  20.580  0.00  0.00    +0.099 C 
ENDBRANCH  23  26
ENDBRANCH  14  18
ENDBRANCH   5  14
ENDBRANCH   9   5
BRANCH  11  13
ATOM     13  C   UNL     1     -16.847   0.979  27.475  0.00  0.00    +0.140 C 
BRANCH  13   6
ATOM      3  O   UNL     1     -14.174   3.557  32.711  0.00  0.00    -0.377 OA
ATOM      4  O   UNL     1     -15.379  -0.111  29.615  0.00  0.00    -0.253 OA
ATOM      6  N   UNL     1     -16.440   1.689  28.667  0.00  0.00    -0.297 N 
ATOM      7  N   UNL     1     -15.400   1.896  30.780  0.00  0.00    -0.281 N 
ATOM     15  C   UNL     1     -15.714   1.077  29.682  0.00  0.00    +0.302 C 
ATOM     16  C   UNL     1     -15.884   3.264  31.007  0.00  0.00    +0.137 C 
ATOM     17  C   UNL     1     -14.642   1.330  31.898  0.00  0.00    +0.137 C 
ATOM     19  C   UNL     1     -14.771   4.150  31.556  0.00  0.00    +0.179 C 
ATOM     20  C   UNL     1     -13.578   2.301  32.382  0.00  0.00    +0.179 C 
ATOM     28  H   UNL     1     -16.731   2.654  28.728  0.00  0.00    +0.150 HD
ENDBRANCH  13   6
ENDBRANCH  11  13
TORSDOF 7
ENDMDL
MODEL 10
REMARK VINA RESULT:      -6.0     27.098     29.337
REMARK  Name = 75536762
REMARK  7 active torsions:
REMARK  status: ('A' for Active; 'I' for Inactive)
REMARK    1  A    between atoms: O_2  and  C_10
REMARK    2  A    between atoms: N_5  and  C_9
REMARK    3  A    between atoms: N_5  and  C_14
REMARK    4  A    between atoms: N_6  and  C_13
REMARK    5  A    between atoms: C_11  and  C_13
REMARK    6  A    between atoms: C_14  and  C_18
REMARK    7  A    between atoms: C_23  and  C_26
REMARK                            x       y       z     vdW  Elec       q    Type
REMARK                         _______ _______ _______ _____ _____    ______ ____
ROOT
ATOM      1  O   UNL     1      -5.269 -11.220  15.726  0.00  0.00    -0.371 OA
ATOM      9  C   UNL     1      -3.110 -11.026  14.753  0.00  0.00    +0.111 C 
ATOM     10  C   UNL     1      -3.030 -10.637  16.218  0.00  0.00    +0.164 C 
ATOM     11  C   UNL     1      -4.282 -11.306  16.768  0.00  0.00    +0.165 C 
ATOM     12  C   UNL     1      -4.602 -10.904  14.491  0.00  0.00    +0.181 C 
ENDROOT
BRANCH  10   2
ATOM      2  O   UNL     1      -1.857 -11.117  16.847  0.00  0.00    -0.388 OA
ATOM     29  H   UNL     1      -2.054 -11.266  17.787  0.00  0.00    +0.210 HD
ENDBRANCH  10   2
BRANCH   9   5
ATOM      5  N   UNL     1      -2.311 -10.182  13.881  0.00  0.00    -0.305 NA
ATOM     27  H   UNL     1      -1.530  -9.799  14.413  0.00  0.00    +0.123 HD
BRANCH   5  14
ATOM     14  C   UNL     1      -1.788 -10.940  12.751  0.00  0.00    +0.116 C 
BRANCH  14  18
ATOM     18  C   UNL     1      -2.626 -10.753  11.514  0.00  0.00    -0.032 A 
ATOM     21  C   UNL     1      -3.309 -11.838  10.963  0.00  0.00    +0.023 A 
ATOM     22  C   UNL     1      -2.720  -9.495  10.920  0.00  0.00    +0.005 A 
ATOM     23  C   UNL     1      -4.087 -11.663   9.818  0.00  0.00    +0.052 A 
ATOM     24  C   UNL     1      -3.497  -9.320   9.774  0.00  0.00    +0.002 A 
ATOM     25  C   UNL     1      -4.181 -10.405   9.223  0.00  0.00    +0.019 A 
BRANCH  23  26
ATOM      8  N   UNL     1      -5.357 -13.673   8.795  0.00  0.00    -0.191 NA
ATOM     26  C   UNL     1      -4.788 -12.772   9.253  0.00  0.00    +0.099 C 
ENDBRANCH  23  26
ENDBRANCH  14  18
ENDBRANCH   5  14
ENDBRANCH   9   5
BRANCH  11  13
ATOM     13  C   UNL     1      -4.811 -10.647  18.030  0.00  0.00    +0.140 C 
BRANCH  13   6
ATOM      3  O   UNL     1     -11.132  -9.918  18.871  0.00  0.00    -0.377 OA
ATOM      4  O   UNL     1      -6.633 -11.704  19.897  0.00  0.00    -0.253 OA
ATOM      6  N   UNL     1      -6.248 -10.494  17.985  0.00  0.00    -0.297 N 
ATOM      7  N   UNL     1      -8.455 -10.820  18.765  0.00  0.00    -0.281 N 
ATOM     15  C   UNL     1      -7.081 -11.049  18.949  0.00  0.00    +0.302 C 
ATOM     16  C   UNL     1      -9.079 -10.187  17.595  0.00  0.00    +0.137 C 
ATOM     17  C   UNL     1      -9.407 -11.374  19.731  0.00  0.00    +0.137 C 
ATOM     19  C   UNL     1     -10.200  -9.245  18.021  0.00  0.00    +0.179 C 
ATOM     20  C   UNL     1     -10.493 -10.365  20.067  0.00  0.00    +0.179 C 
ATOM     28  H   UNL     1      -6.613  -9.974  17.200  0.00  0.00    +0.150 HD
ENDBRANCH  13   6
ENDBRANCH  11  13
TORSDOF 7
ENDMDL
