MODEL 1
REMARK VINA RESULT:      -7.3      0.000      0.000
REMARK  Name = 71693339
REMARK  11 active torsions:
REMARK  status: ('A' for Active; 'I' for Inactive)
REMARK    1  A    between atoms: O_2  and  C_13
REMARK    2  A    between atoms: N_5  and  C_11
REMARK    3  A    between atoms: N_6  and  C_23
REMARK    4  A    between atoms: N_7  and  C_28
REMARK    5  A    between atoms: C_9  and  C_13
REMARK    6  A    between atoms: C_10  and  C_15
REMARK    7  A    between atoms: C_11  and  C_12
REMARK    8  A    between atoms: C_12  and  C_17
REMARK    9  A    between atoms: C_12  and  C_18
REMARK   10  A    between atoms: C_24  and  C_25
REMARK   11  A    between atoms: C_27  and  C_29
REMARK                            x       y       z     vdW  Elec       q    Type
REMARK                         _______ _______ _______ _____ _____    ______ ____
ROOT
ATOM     15  C   UNL     1      15.803   6.830  19.960  0.00  0.00    -0.017 A 
ATOM     19  C   UNL     1      16.556   7.064  21.111  0.00  0.00    +0.008 A 
ATOM     20  C   UNL     1      16.368   6.145  18.885  0.00  0.00    +0.008 A 
ATOM     21  C   UNL     1      17.873   6.612  21.187  0.00  0.00    +0.023 A 
ATOM     22  C   UNL     1      17.685   5.692  18.960  0.00  0.00    +0.023 A 
ATOM     23  C   UNL     1      18.438   5.925  20.112  0.00  0.00    +0.034 A 
ENDROOT
BRANCH  15  10
ATOM      1  O   UNL     1      13.630   6.614  20.871  0.00  0.00    -0.361 OA
ATOM      3  O   UNL     1      10.632   8.537  20.946  0.00  0.00    -0.273 OA
ATOM      5  N   UNL     1      12.774   9.191  20.297  0.00  0.00    -0.291 N 
ATOM      9  C   UNL     1      14.204   8.829  20.144  0.00  0.00    +0.135 C 
ATOM     10  C   UNL     1      14.373   7.321  19.877  0.00  0.00    +0.171 C 
ATOM     14  C   UNL     1      11.805   8.262  20.683  0.00  0.00    +0.242 C 
ATOM     16  C   UNL     1      12.247   6.812  20.699  0.00  0.00    +0.256 C 
BRANCH   5  11
ATOM     11  C   UNL     1      12.416  10.607  20.278  0.00  0.00    +0.111 C 
BRANCH  11  12
ATOM     12  C   UNL     1      12.551  11.260  21.658  0.00  0.00    +0.000 C 
ATOM     17  C   UNL     1      13.751  12.208  21.718  0.00  0.00    +0.009 C 
ATOM     18  C   UNL     1      11.270  12.019  22.007  0.00  0.00    +0.009 C 
ENDBRANCH  11  12
ENDBRANCH   5  11
BRANCH   9  13
ATOM     13  C   UNL     1      14.904   9.652  19.053  0.00  0.00    +0.181 C 
BRANCH  13   2
ATOM      2  O   UNL     1      14.461   9.184  17.796  0.00  0.00    -0.393 OA
ATOM     30  H   UNL     1      13.543   8.884  17.907  0.00  0.00    +0.209 HD
ENDBRANCH  13   2
ENDBRANCH   9  13
ENDBRANCH  15  10
BRANCH  23   6
ATOM      4  O   UNL     1      20.323   5.834  22.441  0.00  0.00    -0.268 OA
ATOM      6  N   UNL     1      19.754   5.473  20.188  0.00  0.00    -0.280 N 
ATOM     24  C   UNL     1      20.597   5.453  21.308  0.00  0.00    +0.266 C 
ATOM     31  H   UNL     1      20.138   5.123  19.314  0.00  0.00    +0.155 HD
BRANCH  24  25
ATOM      7  N   UNL     1      23.065   5.593  20.754  0.00  0.00    -0.262 N 
ATOM      8  N   UNL     1      24.167   4.837  20.600  0.00  0.00    -0.176 NA
ATOM     25  C   UNL     1      21.948   4.879  21.078  0.00  0.00    +0.124 A 
ATOM     26  C   UNL     1      22.347   3.566  21.140  0.00  0.00    +0.057 A 
ATOM     27  C   UNL     1      23.722   3.601  20.837  0.00  0.00    +0.061 A 
ATOM     28  C   UNL     1      23.159   7.022  20.571  0.00  0.00    +0.173 C 
ATOM     29  C   UNL     1      24.652   2.462  20.763  0.00  0.00    +0.067 C 
ENDBRANCH  24  25
ENDBRANCH  23   6
TORSDOF 7
ENDMDL
MODEL 2
REMARK VINA RESULT:      -7.1      1.392      2.111
REMARK  Name = 71693339
REMARK  11 active torsions:
REMARK  status: ('A' for Active; 'I' for Inactive)
REMARK    1  A    between atoms: O_2  and  C_13
REMARK    2  A    between atoms: N_5  and  C_11
REMARK    3  A    between atoms: N_6  and  C_23
REMARK    4  A    between atoms: N_7  and  C_28
REMARK    5  A    between atoms: C_9  and  C_13
REMARK    6  A    between atoms: C_10  and  C_15
REMARK    7  A    between atoms: C_11  and  C_12
REMARK    8  A    between atoms: C_12  and  C_17
REMARK    9  A    between atoms: C_12  and  C_18
REMARK   10  A    between atoms: C_24  and  C_25
REMARK   11  A    between atoms: C_27  and  C_29
REMARK                            x       y       z     vdW  Elec       q    Type
REMARK                         _______ _______ _______ _____ _____    ______ ____
ROOT
ATOM     15  C   UNL     1      16.639   7.088  19.713  0.00  0.00    -0.017 A 
ATOM     19  C   UNL     1      17.558   7.700  20.566  0.00  0.00    +0.008 A 
ATOM     20  C   UNL     1      16.964   5.886  19.085  0.00  0.00    +0.008 A 
ATOM     21  C   UNL     1      18.801   7.111  20.791  0.00  0.00    +0.023 A 
ATOM     22  C   UNL     1      18.207   5.295  19.310  0.00  0.00    +0.023 A 
ATOM     23  C   UNL     1      19.126   5.908  20.163  0.00  0.00    +0.034 A 
ENDROOT
BRANCH  15  10
ATOM      1  O   UNL     1      14.808   7.229  18.220  0.00  0.00    -0.361 OA
ATOM      3  O   UNL     1      11.400   8.255  18.366  0.00  0.00    -0.273 OA
ATOM      5  N   UNL     1      12.881   7.848  20.119  0.00  0.00    -0.291 N 
ATOM      9  C   UNL     1      14.232   7.407  20.545  0.00  0.00    +0.135 C 
ATOM     10  C   UNL     1      15.288   7.728  19.469  0.00  0.00    +0.171 C 
ATOM     14  C   UNL     1      12.537   8.014  18.776  0.00  0.00    +0.242 C 
ATOM     16  C   UNL     1      13.685   7.958  17.787  0.00  0.00    +0.256 C 
BRANCH   5  11
ATOM     11  C   UNL     1      11.818   7.874  21.121  0.00  0.00    +0.111 C 
BRANCH  11  12
ATOM     12  C   UNL     1      11.187   9.264  21.265  0.00  0.00    +0.000 C 
ATOM     17  C   UNL     1      10.460   9.417  22.602  0.00  0.00    +0.009 C 
ATOM     18  C   UNL     1      12.261  10.344  21.128  0.00  0.00    +0.009 C 
ENDBRANCH  11  12
ENDBRANCH   5  11
BRANCH   9  13
ATOM     13  C   UNL     1      14.644   8.000  21.900  0.00  0.00    +0.181 C 
BRANCH  13   2
ATOM      2  O   UNL     1      15.031   6.937  22.747  0.00  0.00    -0.393 OA
ATOM     30  H   UNL     1      14.625   7.099  23.616  0.00  0.00    +0.209 HD
ENDBRANCH  13   2
ENDBRANCH   9  13
ENDBRANCH  15  10
BRANCH  23   6
ATOM      4  O   UNL     1      20.697   5.605  22.699  0.00  0.00    -0.268 OA
ATOM      6  N   UNL     1      20.370   5.318  20.388  0.00  0.00    -0.280 N 
ATOM     24  C   UNL     1      21.064   5.203  21.600  0.00  0.00    +0.266 C 
ATOM     31  H   UNL     1      20.818   4.934  19.559  0.00  0.00    +0.155 HD
BRANCH  24  25
ATOM      7  N   UNL     1      23.590   5.087  21.434  0.00  0.00    -0.262 N 
ATOM      8  N   UNL     1      24.615   4.219  21.377  0.00  0.00    -0.176 NA
ATOM     25  C   UNL     1      22.366   4.491  21.523  0.00  0.00    +0.124 A 
ATOM     26  C   UNL     1      22.608   3.138  21.526  0.00  0.00    +0.057 A 
ATOM     27  C   UNL     1      24.008   3.031  21.434  0.00  0.00    +0.061 A 
ATOM     28  C   UNL     1      23.862   6.505  21.395  0.00  0.00    +0.173 C 
ATOM     29  C   UNL     1      24.812   1.797  21.398  0.00  0.00    +0.067 C 
ENDBRANCH  24  25
ENDBRANCH  23   6
TORSDOF 7
ENDMDL
MODEL 3
REMARK VINA RESULT:      -6.3     27.228     31.092
REMARK  Name = 71693339
REMARK  11 active torsions:
REMARK  status: ('A' for Active; 'I' for Inactive)
REMARK    1  A    between atoms: O_2  and  C_13
REMARK    2  A    between atoms: N_5  and  C_11
REMARK    3  A    between atoms: N_6  and  C_23
REMARK    4  A    between atoms: N_7  and  C_28
REMARK    5  A    between atoms: C_9  and  C_13
REMARK    6  A    between atoms: C_10  and  C_15
REMARK    7  A    between atoms: C_11  and  C_12
REMARK    8  A    between atoms: C_12  and  C_17
REMARK    9  A    between atoms: C_12  and  C_18
REMARK   10  A    between atoms: C_24  and  C_25
REMARK   11  A    between atoms: C_27  and  C_29
REMARK                            x       y       z     vdW  Elec       q    Type
REMARK                         _______ _______ _______ _____ _____    ______ ____
ROOT
ATOM     15  C   UNL     1      -4.114 -10.383  11.126  0.00  0.00    -0.017 A 
ATOM     19  C   UNL     1      -4.061 -11.175   9.979  0.00  0.00    +0.008 A 
ATOM     20  C   UNL     1      -4.785  -9.161  11.100  0.00  0.00    +0.008 A 
ATOM     21  C   UNL     1      -4.682 -10.746   8.806  0.00  0.00    +0.023 A 
ATOM     22  C   UNL     1      -5.406  -8.731   9.927  0.00  0.00    +0.023 A 
ATOM     23  C   UNL     1      -5.355  -9.524   8.780  0.00  0.00    +0.034 A 
ENDROOT
BRANCH  15  10
ATOM      1  O   UNL     1      -2.427  -9.892  12.712  0.00  0.00    -0.361 OA
ATOM      3  O   UNL     1      -1.649 -10.824  16.061  0.00  0.00    -0.273 OA
ATOM      5  N   UNL     1      -3.623 -11.165  14.869  0.00  0.00    -0.291 N 
ATOM      9  C   UNL     1      -4.384 -10.952  13.614  0.00  0.00    +0.135 C 
ATOM     10  C   UNL     1      -3.440 -10.849  12.400  0.00  0.00    +0.171 C 
ATOM     14  C   UNL     1      -2.286 -10.786  15.006  0.00  0.00    +0.242 C 
ATOM     16  C   UNL     1      -1.581 -10.372  13.730  0.00  0.00    +0.256 C 
BRANCH   5  11
ATOM     11  C   UNL     1      -4.365 -11.558  16.065  0.00  0.00    +0.111 C 
BRANCH  11  12
ATOM     12  C   UNL     1      -4.750 -10.356  16.933  0.00  0.00    +0.000 C 
ATOM     17  C   UNL     1      -5.978  -9.630  16.379  0.00  0.00    +0.009 C 
ATOM     18  C   UNL     1      -5.018 -10.810  18.369  0.00  0.00    +0.009 C 
ENDBRANCH  11  12
ENDBRANCH   5  11
BRANCH   9  13
ATOM     13  C   UNL     1      -5.447 -12.035  13.381  0.00  0.00    +0.181 C 
BRANCH  13   2
ATOM      2  O   UNL     1      -6.710 -11.407  13.314  0.00  0.00    -0.393 OA
ATOM     30  H   UNL     1      -6.610 -10.617  12.755  0.00  0.00    +0.209 HD
ENDBRANCH  13   2
ENDBRANCH   9  13
ENDBRANCH  15  10
BRANCH  23   6
ATOM      4  O   UNL     1      -8.060 -10.182   7.666  0.00  0.00    -0.268 OA
ATOM      6  N   UNL     1      -5.975  -9.095   7.607  0.00  0.00    -0.280 N 
ATOM     24  C   UNL     1      -7.249  -9.435   7.130  0.00  0.00    +0.266 C 
ATOM     31  H   UNL     1      -5.420  -8.462   7.036  0.00  0.00    +0.155 HD
BRANCH  24  25
ATOM      7  N   UNL     1      -8.419  -7.671   5.737  0.00  0.00    -0.262 N 
ATOM      8  N   UNL     1      -8.631  -7.285   4.467  0.00  0.00    -0.176 NA
ATOM     25  C   UNL     1      -7.643  -8.788   5.852  0.00  0.00    +0.124 A 
ATOM     26  C   UNL     1      -7.326  -9.158   4.567  0.00  0.00    +0.057 A 
ATOM     27  C   UNL     1      -7.961  -8.197   3.757  0.00  0.00    +0.061 A 
ATOM     28  C   UNL     1      -9.003  -6.906   6.814  0.00  0.00    +0.173 C 
ATOM     29  C   UNL     1      -7.951  -8.116   2.287  0.00  0.00    +0.067 C 
ENDBRANCH  24  25
ENDBRANCH  23   6
TORSDOF 7
ENDMDL
MODEL 4
REMARK VINA RESULT:      -6.2     28.681     33.087
REMARK  Name = 71693339
REMARK  11 active torsions:
REMARK  status: ('A' for Active; 'I' for Inactive)
REMARK    1  A    between atoms: O_2  and  C_13
REMARK    2  A    between atoms: N_5  and  C_11
REMARK    3  A    between atoms: N_6  and  C_23
REMARK    4  A    between atoms: N_7  and  C_28
REMARK    5  A    between atoms: C_9  and  C_13
REMARK    6  A    between atoms: C_10  and  C_15
REMARK    7  A    between atoms: C_11  and  C_12
REMARK    8  A    between atoms: C_12  and  C_17
REMARK    9  A    between atoms: C_12  and  C_18
REMARK   10  A    between atoms: C_24  and  C_25
REMARK   11  A    between atoms: C_27  and  C_29
REMARK                            x       y       z     vdW  Elec       q    Type
REMARK                         _______ _______ _______ _____ _____    ______ ____
ROOT
ATOM     15  C   UNL     1     -15.947   3.862  24.034  0.00  0.00    -0.017 A 
ATOM     19  C   UNL     1     -14.591   4.144  24.201  0.00  0.00    +0.008 A 
ATOM     20  C   UNL     1     -16.624   4.334  22.910  0.00  0.00    +0.008 A 
ATOM     21  C   UNL     1     -13.912   4.897  23.244  0.00  0.00    +0.023 A 
ATOM     22  C   UNL     1     -15.946   5.087  21.952  0.00  0.00    +0.023 A 
ATOM     23  C   UNL     1     -14.589   5.369  22.119  0.00  0.00    +0.034 A 
ENDROOT
BRANCH  15  10
ATOM      1  O   UNL     1     -16.175   1.712  24.994  0.00  0.00    -0.361 OA
ATOM      3  O   UNL     1     -17.481   0.328  28.007  0.00  0.00    -0.273 OA
ATOM      5  N   UNL     1     -17.027   2.557  27.497  0.00  0.00    -0.291 N 
ATOM      9  C   UNL     1     -16.494   3.538  26.520  0.00  0.00    +0.135 C 
ATOM     10  C   UNL     1     -16.684   3.043  25.073  0.00  0.00    +0.171 C 
ATOM     14  C   UNL     1     -17.165   1.201  27.195  0.00  0.00    +0.242 C 
ATOM     16  C   UNL     1     -16.976   0.824  25.739  0.00  0.00    +0.256 C 
BRANCH   5  11
ATOM     11  C   UNL     1     -17.180   2.983  28.886  0.00  0.00    +0.111 C 
BRANCH  11  12
ATOM     12  C   UNL     1     -15.833   3.135  29.601  0.00  0.00    +0.000 C 
ATOM     17  C   UNL     1     -15.724   4.481  30.320  0.00  0.00    +0.009 C 
ATOM     18  C   UNL     1     -15.638   1.994  30.600  0.00  0.00    +0.009 C 
ENDBRANCH  11  12
ENDBRANCH   5  11
BRANCH   9  13
ATOM     13  C   UNL     1     -17.106   4.935  26.698  0.00  0.00    +0.181 C 
BRANCH  13   2
ATOM      2  O   UNL     1     -18.439   4.895  26.231  0.00  0.00    -0.393 OA
ATOM     30  H   UNL     1     -18.826   4.056  26.536  0.00  0.00    +0.209 HD
ENDBRANCH  13   2
ENDBRANCH   9  13
ENDBRANCH  15  10
BRANCH  23   6
ATOM      4  O   UNL     1     -13.972   8.302  22.042  0.00  0.00    -0.268 OA
ATOM      6  N   UNL     1     -13.910   6.122  21.162  0.00  0.00    -0.280 N 
ATOM     24  C   UNL     1     -13.647   7.499  21.174  0.00  0.00    +0.266 C 
ATOM     31  H   UNL     1     -13.575   5.594  20.359  0.00  0.00    +0.155 HD
BRANCH  24  25
ATOM      7  N   UNL     1     -13.383   8.294  18.782  0.00  0.00    -0.262 N 
ATOM      8  N   UNL     1     -12.469   8.744  17.904  0.00  0.00    -0.176 NA
ATOM     25  C   UNL     1     -12.870   8.009  20.014  0.00  0.00    +0.124 A 
ATOM     26  C   UNL     1     -11.528   8.292  19.936  0.00  0.00    +0.057 A 
ATOM     27  C   UNL     1     -11.339   8.740  18.615  0.00  0.00    +0.061 A 
ATOM     28  C   UNL     1     -14.758   8.160  18.363  0.00  0.00    +0.173 C 
ATOM     29  C   UNL     1     -10.080   9.177  17.989  0.00  0.00    +0.067 C 
ENDBRANCH  24  25
ENDBRANCH  23   6
TORSDOF 7
ENDMDL
MODEL 5
REMARK VINA RESULT:      -6.2     18.691     21.442
REMARK  Name = 71693339
REMARK  11 active torsions:
REMARK  status: ('A' for Active; 'I' for Inactive)
REMARK    1  A    between atoms: O_2  and  C_13
REMARK    2  A    between atoms: N_5  and  C_11
REMARK    3  A    between atoms: N_6  and  C_23
REMARK    4  A    between atoms: N_7  and  C_28
REMARK    5  A    between atoms: C_9  and  C_13
REMARK    6  A    between atoms: C_10  and  C_15
REMARK    7  A    between atoms: C_11  and  C_12
REMARK    8  A    between atoms: C_12  and  C_17
REMARK    9  A    between atoms: C_12  and  C_18
REMARK   10  A    between atoms: C_24  and  C_25
REMARK   11  A    between atoms: C_27  and  C_29
REMARK                            x       y       z     vdW  Elec       q    Type
REMARK                         _______ _______ _______ _____ _____    ______ ____
ROOT
ATOM     15  C   UNL     1      11.845   5.269   0.750  0.00  0.00    -0.017 A 
ATOM     19  C   UNL     1      11.453   4.093   1.391  0.00  0.00    +0.008 A 
ATOM     20  C   UNL     1      11.774   6.488   1.424  0.00  0.00    +0.008 A 
ATOM     21  C   UNL     1      10.992   4.137   2.706  0.00  0.00    +0.023 A 
ATOM     22  C   UNL     1      11.313   6.532   2.740  0.00  0.00    +0.023 A 
ATOM     23  C   UNL     1      10.922   5.356   3.381  0.00  0.00    +0.034 A 
ENDROOT
BRANCH  15  10
ATOM      1  O   UNL     1      13.403   4.262  -0.719  0.00  0.00    -0.361 OA
ATOM      3  O   UNL     1      13.765   3.829  -4.236  0.00  0.00    -0.273 OA
ATOM      5  N   UNL     1      11.896   4.532  -3.034  0.00  0.00    -0.291 N 
ATOM      9  C   UNL     1      11.283   4.801  -1.710  0.00  0.00    +0.135 C 
ATOM     10  C   UNL     1      12.347   5.222  -0.678  0.00  0.00    +0.171 C 
ATOM     14  C   UNL     1      13.240   4.184  -3.178  0.00  0.00    +0.242 C 
ATOM     16  C   UNL     1      14.100   4.335  -1.940  0.00  0.00    +0.256 C 
BRANCH   5  11
ATOM     11  C   UNL     1      11.009   4.392  -4.186  0.00  0.00    +0.111 C 
BRANCH  11  12
ATOM     12  C   UNL     1      10.728   2.926  -4.531  0.00  0.00    +0.000 C 
ATOM     17  C   UNL     1       9.432   2.433  -3.884  0.00  0.00    +0.009 C 
ATOM     18  C   UNL     1      10.654   2.748  -6.048  0.00  0.00    +0.009 C 
ENDBRANCH  11  12
ENDBRANCH   5  11
BRANCH   9  13
ATOM     13  C   UNL     1      10.159   5.844  -1.783  0.00  0.00    +0.181 C 
BRANCH  13   2
ATOM      2  O   UNL     1       8.927   5.178  -1.605  0.00  0.00    -0.393 OA
ATOM     30  H   UNL     1       8.912   4.428  -2.225  0.00  0.00    +0.209 HD
ENDBRANCH  13   2
ENDBRANCH   9  13
ENDBRANCH  15  10
BRANCH  23   6
ATOM      4  O   UNL     1      12.130   6.616   5.818  0.00  0.00    -0.268 OA
ATOM      6  N   UNL     1      10.460   5.399   4.696  0.00  0.00    -0.280 N 
ATOM     24  C   UNL     1      11.067   6.005   5.805  0.00  0.00    +0.266 C 
ATOM     31  H   UNL     1       9.575   4.923   4.855  0.00  0.00    +0.155 HD
BRANCH  24  25
ATOM      7  N   UNL     1       9.514   6.879   7.606  0.00  0.00    -0.262 N 
ATOM      8  N   UNL     1       8.939   6.540   8.773  0.00  0.00    -0.176 NA
ATOM     25  C   UNL     1      10.310   5.904   7.080  0.00  0.00    +0.124 A 
ATOM     26  C   UNL     1      10.251   4.854   7.964  0.00  0.00    +0.057 A 
ATOM     27  C   UNL     1       9.392   5.302   8.985  0.00  0.00    +0.061 A 
ATOM     28  C   UNL     1       9.251   8.183   7.042  0.00  0.00    +0.173 C 
ATOM     29  C   UNL     1       8.978   4.569  10.193  0.00  0.00    +0.067 C 
ENDBRANCH  24  25
ENDBRANCH  23   6
TORSDOF 7
ENDMDL
MODEL 6
REMARK VINA RESULT:      -6.2     19.446     21.833
REMARK  Name = 71693339
REMARK  11 active torsions:
REMARK  status: ('A' for Active; 'I' for Inactive)
REMARK    1  A    between atoms: O_2  and  C_13
REMARK    2  A    between atoms: N_5  and  C_11
REMARK    3  A    between atoms: N_6  and  C_23
REMARK    4  A    between atoms: N_7  and  C_28
REMARK    5  A    between atoms: C_9  and  C_13
REMARK    6  A    between atoms: C_10  and  C_15
REMARK    7  A    between atoms: C_11  and  C_12
REMARK    8  A    between atoms: C_12  and  C_17
REMARK    9  A    between atoms: C_12  and  C_18
REMARK   10  A    between atoms: C_24  and  C_25
REMARK   11  A    between atoms: C_27  and  C_29
REMARK                            x       y       z     vdW  Elec       q    Type
REMARK                         _______ _______ _______ _____ _____    ______ ____
ROOT
ATOM     15  C   UNL     1      11.393   4.148  -0.136  0.00  0.00    -0.017 A 
ATOM     19  C   UNL     1      12.407   3.717   0.720  0.00  0.00    +0.008 A 
ATOM     20  C   UNL     1      10.247   4.746   0.387  0.00  0.00    +0.008 A 
ATOM     21  C   UNL     1      12.276   3.885   2.098  0.00  0.00    +0.023 A 
ATOM     22  C   UNL     1      10.115   4.916   1.765  0.00  0.00    +0.023 A 
ATOM     23  C   UNL     1      11.130   4.485   2.621  0.00  0.00    +0.034 A 
ENDROOT
BRANCH  15  10
ATOM      1  O   UNL     1      10.512   3.059  -2.043  0.00  0.00    -0.361 OA
ATOM      3  O   UNL     1      10.623   3.496  -5.577  0.00  0.00    -0.273 OA
ATOM      5  N   UNL     1      11.273   4.978  -3.899  0.00  0.00    -0.291 N 
ATOM      9  C   UNL     1      11.374   5.264  -2.447  0.00  0.00    +0.135 C 
ATOM     10  C   UNL     1      11.536   3.966  -1.633  0.00  0.00    +0.171 C 
ATOM     14  C   UNL     1      10.845   3.743  -4.389  0.00  0.00    +0.242 C 
ATOM     16  C   UNL     1      10.723   2.630  -3.367  0.00  0.00    +0.256 C 
BRANCH   5  11
ATOM     11  C   UNL     1      11.394   6.096  -4.831  0.00  0.00    +0.111 C 
BRANCH  11  12
ATOM     12  C   UNL     1      10.105   6.920  -4.922  0.00  0.00    +0.000 C 
ATOM     17  C   UNL     1      10.309   8.347  -4.407  0.00  0.00    +0.009 C 
ATOM     18  C   UNL     1       9.605   6.954  -6.367  0.00  0.00    +0.009 C 
ENDBRANCH  11  12
ENDBRANCH   5  11
BRANCH   9  13
ATOM     13  C   UNL     1      12.504   6.250  -2.120  0.00  0.00    +0.181 C 
BRANCH  13   2
ATOM      2  O   UNL     1      13.737   5.583  -2.294  0.00  0.00    -0.393 OA
ATOM     30  H   UNL     1      13.995   5.223  -1.428  0.00  0.00    +0.209 HD
ENDBRANCH  13   2
ENDBRANCH   9  13
ENDBRANCH  15  10
BRANCH  23   6
ATOM      4  O   UNL     1      10.770   6.982   4.242  0.00  0.00    -0.268 OA
ATOM      6  N   UNL     1      10.998   4.654   3.999  0.00  0.00    -0.280 N 
ATOM     24  C   UNL     1      10.831   5.850   4.710  0.00  0.00    +0.266 C 
ATOM     31  H   UNL     1      11.035   3.794   4.541  0.00  0.00    +0.155 HD
BRANCH  24  25
ATOM      7  N   UNL     1      11.586   6.145   7.111  0.00  0.00    -0.262 N 
ATOM      8  N   UNL     1      11.226   5.887   8.380  0.00  0.00    -0.176 NA
ATOM     25  C   UNL     1      10.691   5.702   6.182  0.00  0.00    +0.124 A 
ATOM     26  C   UNL     1       9.674   5.112   6.893  0.00  0.00    +0.057 A 
ATOM     27  C   UNL     1      10.057   5.256   8.240  0.00  0.00    +0.061 A 
ATOM     28  C   UNL     1      12.829   6.835   6.857  0.00  0.00    +0.173 C 
ATOM     29  C   UNL     1       9.326   4.798   9.434  0.00  0.00    +0.067 C 
ENDBRANCH  24  25
ENDBRANCH  23   6
TORSDOF 7
ENDMDL
MODEL 7
REMARK VINA RESULT:      -6.2     29.640     33.760
REMARK  Name = 71693339
REMARK  11 active torsions:
REMARK  status: ('A' for Active; 'I' for Inactive)
REMARK    1  A    between atoms: O_2  and  C_13
REMARK    2  A    between atoms: N_5  and  C_11
REMARK    3  A    between atoms: N_6  and  C_23
REMARK    4  A    between atoms: N_7  and  C_28
REMARK    5  A    between atoms: C_9  and  C_13
REMARK    6  A    between atoms: C_10  and  C_15
REMARK    7  A    between atoms: C_11  and  C_12
REMARK    8  A    between atoms: C_12  and  C_17
REMARK    9  A    between atoms: C_12  and  C_18
REMARK   10  A    between atoms: C_24  and  C_25
REMARK   11  A    between atoms: C_27  and  C_29
REMARK                            x       y       z     vdW  Elec       q    Type
REMARK                         _______ _______ _______ _____ _____    ______ ____
ROOT
ATOM     15  C   UNL     1     -11.085  -8.123  16.924  0.00  0.00    -0.017 A 
ATOM     19  C   UNL     1     -10.906  -6.743  16.817  0.00  0.00    +0.008 A 
ATOM     20  C   UNL     1     -12.031  -8.767  16.128  0.00  0.00    +0.008 A 
ATOM     21  C   UNL     1     -11.673  -6.008  15.914  0.00  0.00    +0.023 A 
ATOM     22  C   UNL     1     -12.798  -8.033  15.223  0.00  0.00    +0.023 A 
ATOM     23  C   UNL     1     -12.618  -6.653  15.116  0.00  0.00    +0.034 A 
ENDROOT
BRANCH  15  10
ATOM      1  O   UNL     1     -11.146  -9.783  18.608  0.00  0.00    -0.361 OA
ATOM      3  O   UNL     1      -8.835 -12.001  20.167  0.00  0.00    -0.273 OA
ATOM      5  N   UNL     1      -8.565 -10.732  18.231  0.00  0.00    -0.291 N 
ATOM      9  C   UNL     1      -9.167  -9.797  17.249  0.00  0.00    +0.135 C 
ATOM     10  C   UNL     1     -10.252  -8.921  17.905  0.00  0.00    +0.171 C 
ATOM     14  C   UNL     1      -9.235 -11.134  19.388  0.00  0.00    +0.242 C 
ATOM     16  C   UNL     1     -10.506 -10.375  19.714  0.00  0.00    +0.256 C 
BRANCH   5  11
ATOM     11  C   UNL     1      -7.343 -11.435  17.851  0.00  0.00    +0.111 C 
BRANCH  11  12
ATOM     12  C   UNL     1      -6.094 -10.820  18.493  0.00  0.00    +0.000 C 
ATOM     17  C   UNL     1      -5.482 -11.751  19.542  0.00  0.00    +0.009 C 
ATOM     18  C   UNL     1      -5.057 -10.494  17.417  0.00  0.00    +0.009 C 
ENDBRANCH  11  12
ENDBRANCH   5  11
BRANCH   9  13
ATOM     13  C   UNL     1      -8.116  -8.922  16.551  0.00  0.00    +0.181 C 
BRANCH  13   2
ATOM      2  O   UNL     1      -8.173  -9.186  15.164  0.00  0.00    -0.393 OA
ATOM     30  H   UNL     1      -8.645  -8.444  14.748  0.00  0.00    +0.209 HD
ENDBRANCH  13   2
ENDBRANCH   9  13
ENDBRANCH  15  10
BRANCH  23   6
ATOM      4  O   UNL     1     -12.327  -6.319  12.151  0.00  0.00    -0.268 OA
ATOM      6  N   UNL     1     -13.385  -5.918  14.212  0.00  0.00    -0.280 N 
ATOM     24  C   UNL     1     -13.205  -5.794  12.827  0.00  0.00    +0.266 C 
ATOM     31  H   UNL     1     -14.164  -5.411  14.625  0.00  0.00    +0.155 HD
BRANCH  24  25
ATOM      7  N   UNL     1     -15.379  -5.409  11.584  0.00  0.00    -0.262 N 
ATOM      8  N   UNL     1     -16.118  -4.448  11.004  0.00  0.00    -0.176 NA
ATOM     25  C   UNL     1     -14.212  -4.956  12.126  0.00  0.00    +0.124 A 
ATOM     26  C   UNL     1     -14.186  -3.604  11.884  0.00  0.00    +0.057 A 
ATOM     27  C   UNL     1     -15.384  -3.348  11.191  0.00  0.00    +0.061 A 
ATOM     28  C   UNL     1     -15.863  -6.770  11.582  0.00  0.00    +0.173 C 
ATOM     29  C   UNL     1     -15.868  -2.052  10.685  0.00  0.00    +0.067 C 
ENDBRANCH  24  25
ENDBRANCH  23   6
TORSDOF 7
ENDMDL
MODEL 8
REMARK VINA RESULT:      -6.1     28.038     31.947
REMARK  Name = 71693339
REMARK  11 active torsions:
REMARK  status: ('A' for Active; 'I' for Inactive)
REMARK    1  A    between atoms: O_2  and  C_13
REMARK    2  A    between atoms: N_5  and  C_11
REMARK    3  A    between atoms: N_6  and  C_23
REMARK    4  A    between atoms: N_7  and  C_28
REMARK    5  A    between atoms: C_9  and  C_13
REMARK    6  A    between atoms: C_10  and  C_15
REMARK    7  A    between atoms: C_11  and  C_12
REMARK    8  A    between atoms: C_12  and  C_17
REMARK    9  A    between atoms: C_12  and  C_18
REMARK   10  A    between atoms: C_24  and  C_25
REMARK   11  A    between atoms: C_27  and  C_29
REMARK                            x       y       z     vdW  Elec       q    Type
REMARK                         _______ _______ _______ _____ _____    ______ ____
ROOT
ATOM     15  C   UNL     1     -12.931   7.964  20.973  0.00  0.00    -0.017 A 
ATOM     19  C   UNL     1     -13.914   8.478  21.819  0.00  0.00    +0.008 A 
ATOM     20  C   UNL     1     -12.591   6.614  21.037  0.00  0.00    +0.008 A 
ATOM     21  C   UNL     1     -14.558   7.640  22.729  0.00  0.00    +0.023 A 
ATOM     22  C   UNL     1     -13.235   5.774  21.947  0.00  0.00    +0.023 A 
ATOM     23  C   UNL     1     -14.219   6.288  22.793  0.00  0.00    +0.034 A 
ENDROOT
BRANCH  15  10
ATOM      1  O   UNL     1     -10.848   8.522  19.999  0.00  0.00    -0.361 OA
ATOM      3  O   UNL     1      -9.707  10.219  17.081  0.00  0.00    -0.273 OA
ATOM      5  N   UNL     1     -11.853   9.464  17.589  0.00  0.00    -0.291 N 
ATOM      9  C   UNL     1     -12.739   8.743  18.535  0.00  0.00    +0.135 C 
ATOM     10  C   UNL     1     -12.232   8.874  19.984  0.00  0.00    +0.171 C 
ATOM     14  C   UNL     1     -10.515   9.738  17.879  0.00  0.00    +0.242 C 
ATOM     16  C   UNL     1     -10.081   9.479  19.307  0.00  0.00    +0.256 C 
BRANCH   5  11
ATOM     11  C   UNL     1     -12.331   9.676  16.225  0.00  0.00    +0.111 C 
BRANCH  11  12
ATOM     12  C   UNL     1     -12.269   8.399  15.381  0.00  0.00    +0.000 C 
ATOM     17  C   UNL     1     -13.622   8.077  14.743  0.00  0.00    +0.009 C 
ATOM     18  C   UNL     1     -11.201   8.538  14.295  0.00  0.00    +0.009 C 
ENDBRANCH  11  12
ENDBRANCH   5  11
BRANCH   9  13
ATOM     13  C   UNL     1     -14.202   9.197  18.432  0.00  0.00    +0.181 C 
BRANCH  13   2
ATOM      2  O   UNL     1     -14.992   8.072  18.109  0.00  0.00    -0.393 OA
ATOM     30  H   UNL     1     -15.056   8.033  17.139  0.00  0.00    +0.209 HD
ENDBRANCH  13   2
ENDBRANCH   9  13
ENDBRANCH  15  10
BRANCH  23   6
ATOM      4  O   UNL     1     -16.337   4.212  22.352  0.00  0.00    -0.268 OA
ATOM      6  N   UNL     1     -14.863   5.450  23.703  0.00  0.00    -0.280 N 
ATOM     24  C   UNL     1     -15.852   4.491  23.443  0.00  0.00    +0.266 C 
ATOM     31  H   UNL     1     -14.571   5.564  24.671  0.00  0.00    +0.155 HD
BRANCH  24  25
ATOM      7  N   UNL     1     -17.121   4.224  25.620  0.00  0.00    -0.262 N 
ATOM      8  N   UNL     1     -17.411   3.330  26.581  0.00  0.00    -0.176 NA
ATOM     25  C   UNL     1     -16.327   3.729  24.627  0.00  0.00    +0.124 A 
ATOM     26  C   UNL     1     -16.080   2.420  24.963  0.00  0.00    +0.057 A 
ATOM     27  C   UNL     1     -16.772   2.230  26.174  0.00  0.00    +0.061 A 
ATOM     28  C   UNL     1     -17.651   5.564  25.719  0.00  0.00    +0.173 C 
ATOM     29  C   UNL     1     -16.847   1.000  26.980  0.00  0.00    +0.067 C 
ENDBRANCH  24  25
ENDBRANCH  23   6
TORSDOF 7
ENDMDL
MODEL 9
REMARK VINA RESULT:      -5.9     18.715     21.490
REMARK  Name = 71693339
REMARK  11 active torsions:
REMARK  status: ('A' for Active; 'I' for Inactive)
REMARK    1  A    between atoms: O_2  and  C_13
REMARK    2  A    between atoms: N_5  and  C_11
REMARK    3  A    between atoms: N_6  and  C_23
REMARK    4  A    between atoms: N_7  and  C_28
REMARK    5  A    between atoms: C_9  and  C_13
REMARK    6  A    between atoms: C_10  and  C_15
REMARK    7  A    between atoms: C_11  and  C_12
REMARK    8  A    between atoms: C_12  and  C_17
REMARK    9  A    between atoms: C_12  and  C_18
REMARK   10  A    between atoms: C_24  and  C_25
REMARK   11  A    between atoms: C_27  and  C_29
REMARK                            x       y       z     vdW  Elec       q    Type
REMARK                         _______ _______ _______ _____ _____    ______ ____
ROOT
ATOM     15  C   UNL     1      11.202   4.391   0.438  0.00  0.00    -0.017 A 
ATOM     19  C   UNL     1      11.703   3.550   1.433  0.00  0.00    +0.008 A 
ATOM     20  C   UNL     1      10.341   5.435   0.775  0.00  0.00    +0.008 A 
ATOM     21  C   UNL     1      11.344   3.755   2.764  0.00  0.00    +0.023 A 
ATOM     22  C   UNL     1       9.982   5.641   2.107  0.00  0.00    +0.023 A 
ATOM     23  C   UNL     1      10.484   4.801   3.102  0.00  0.00    +0.034 A 
ENDROOT
BRANCH  15  10
ATOM      1  O   UNL     1      10.382   4.121  -1.765  0.00  0.00    -0.361 OA
ATOM      3  O   UNL     1      11.663   4.412  -5.077  0.00  0.00    -0.273 OA
ATOM      5  N   UNL     1      12.611   5.133  -3.073  0.00  0.00    -0.291 N 
ATOM      9  C   UNL     1      12.478   5.281  -1.603  0.00  0.00    +0.135 C 
ATOM     10  C   UNL     1      11.592   4.169  -1.009  0.00  0.00    +0.171 C 
ATOM     14  C   UNL     1      11.666   4.454  -3.844  0.00  0.00    +0.242 C 
ATOM     16  C   UNL     1      10.627   3.664  -3.074  0.00  0.00    +0.256 C 
BRANCH   5  11
ATOM     11  C   UNL     1      13.630   5.928  -3.755  0.00  0.00    +0.111 C 
BRANCH  11  12
ATOM     12  C   UNL     1      14.857   5.094  -4.139  0.00  0.00    +0.000 C 
ATOM     17  C   UNL     1      14.961   4.910  -5.655  0.00  0.00    +0.009 C 
ATOM     18  C   UNL     1      16.129   5.755  -3.606  0.00  0.00    +0.009 C 
ENDBRANCH  11  12
ENDBRANCH   5  11
BRANCH   9  13
ATOM     13  C   UNL     1      13.839   5.324  -0.892  0.00  0.00    +0.181 C 
BRANCH  13   2
ATOM      2  O   UNL     1      13.933   6.549  -0.195  0.00  0.00    -0.393 OA
ATOM     30  H   UNL     1      14.877   6.776  -0.137  0.00  0.00    +0.209 HD
ENDBRANCH  13   2
ENDBRANCH   9  13
ENDBRANCH  15  10
BRANCH  23   6
ATOM      4  O   UNL     1      11.817   6.426   5.240  0.00  0.00    -0.268 OA
ATOM      6  N   UNL     1      10.125   5.005   4.434  0.00  0.00    -0.280 N 
ATOM     24  C   UNL     1      10.787   5.779   5.398  0.00  0.00    +0.266 C 
ATOM     31  H   UNL     1       9.280   4.523   4.729  0.00  0.00    +0.155 HD
BRANCH  24  25
ATOM      7  N   UNL     1       9.402   6.865   7.220  0.00  0.00    -0.262 N 
ATOM      8  N   UNL     1       8.921   6.658   8.459  0.00  0.00    -0.176 NA
ATOM     25  C   UNL     1      10.138   5.824   6.734  0.00  0.00    +0.124 A 
ATOM     26  C   UNL     1      10.139   4.871   7.723  0.00  0.00    +0.057 A 
ATOM     27  C   UNL     1       9.375   5.439   8.760  0.00  0.00    +0.061 A 
ATOM     28  C   UNL     1       9.110   8.110   6.549  0.00  0.00    +0.173 C 
ATOM     29  C   UNL     1       9.053   4.841  10.067  0.00  0.00    +0.067 C 
ENDBRANCH  24  25
ENDBRANCH  23   6
TORSDOF 7
ENDMDL
MODEL 10
REMARK VINA RESULT:      -5.9     32.967     34.135
REMARK  Name = 71693339
REMARK  11 active torsions:
REMARK  status: ('A' for Active; 'I' for Inactive)
REMARK    1  A    between atoms: O_2  and  C_13
REMARK    2  A    between atoms: N_5  and  C_11
REMARK    3  A    between atoms: N_6  and  C_23
REMARK    4  A    between atoms: N_7  and  C_28
REMARK    5  A    between atoms: C_9  and  C_13
REMARK    6  A    between atoms: C_10  and  C_15
REMARK    7  A    between atoms: C_11  and  C_12
REMARK    8  A    between atoms: C_12  and  C_17
REMARK    9  A    between atoms: C_12  and  C_18
REMARK   10  A    between atoms: C_24  and  C_25
REMARK   11  A    between atoms: C_27  and  C_29
REMARK                            x       y       z     vdW  Elec       q    Type
REMARK                         _______ _______ _______ _____ _____    ______ ____
ROOT
ATOM     15  C   UNL     1     -14.535   5.691  33.539  0.00  0.00    -0.017 A 
ATOM     19  C   UNL     1     -13.905   6.931  33.431  0.00  0.00    +0.008 A 
ATOM     20  C   UNL     1     -14.462   4.974  34.733  0.00  0.00    +0.008 A 
ATOM     21  C   UNL     1     -13.203   7.454  34.516  0.00  0.00    +0.023 A 
ATOM     22  C   UNL     1     -13.760   5.496  35.820  0.00  0.00    +0.023 A 
ATOM     23  C   UNL     1     -13.131   6.737  35.711  0.00  0.00    +0.034 A 
ENDROOT
BRANCH  15  10
ATOM      1  O   UNL     1     -15.634   6.221  31.512  0.00  0.00    -0.361 OA
ATOM      3  O   UNL     1     -16.645   4.491  28.567  0.00  0.00    -0.273 OA
ATOM      5  N   UNL     1     -15.206   3.782  30.258  0.00  0.00    -0.291 N 
ATOM      9  C   UNL     1     -14.502   4.103  31.524  0.00  0.00    +0.135 C 
ATOM     10  C   UNL     1     -15.298   5.123  32.361  0.00  0.00    +0.171 C 
ATOM     14  C   UNL     1     -16.131   4.652  29.676  0.00  0.00    +0.242 C 
ATOM     16  C   UNL     1     -16.562   5.828  30.528  0.00  0.00    +0.256 C 
BRANCH   5  11
ATOM     11  C   UNL     1     -14.737   2.638  29.481  0.00  0.00    +0.111 C 
BRANCH  11  12
ATOM     12  C   UNL     1     -15.645   1.414  29.641  0.00  0.00    +0.000 C 
ATOM     17  C   UNL     1     -16.448   1.136  28.368  0.00  0.00    +0.009 C 
ATOM     18  C   UNL     1     -14.811   0.186  30.009  0.00  0.00    +0.009 C 
ENDBRANCH  11  12
ENDBRANCH   5  11
BRANCH   9  13
ATOM     13  C   UNL     1     -14.188   2.851  32.354  0.00  0.00    +0.181 C 
BRANCH  13   2
ATOM      2  O   UNL     1     -12.813   2.561  32.211  0.00  0.00    -0.393 OA
ATOM     30  H   UNL     1     -12.349   2.988  32.953  0.00  0.00    +0.209 HD
ENDBRANCH  13   2
ENDBRANCH   9  13
ENDBRANCH  15  10
BRANCH  23   6
ATOM      4  O   UNL     1     -10.971   8.815  35.802  0.00  0.00    -0.268 OA
ATOM      6  N   UNL     1     -12.428   7.260  36.796  0.00  0.00    -0.280 N 
ATOM     24  C   UNL     1     -11.422   8.236  36.784  0.00  0.00    +0.266 C 
ATOM     31  H   UNL     1     -12.686   6.872  37.700  0.00  0.00    +0.155 HD
BRANCH  24  25
ATOM      7  N   UNL     1     -11.431   9.523  38.967  0.00  0.00    -0.262 N 
ATOM      8  N   UNL     1     -10.747   9.679  40.114  0.00  0.00    -0.176 NA
ATOM     25  C   UNL     1     -10.880   8.609  38.117  0.00  0.00    +0.124 A 
ATOM     26  C   UNL     1      -9.759   8.134  38.752  0.00  0.00    +0.057 A 
ATOM     27  C   UNL     1      -9.727   8.828  39.977  0.00  0.00    +0.061 A 
ATOM     28  C   UNL     1     -12.629  10.299  38.748  0.00  0.00    +0.173 C 
ATOM     29  C   UNL     1      -8.728   8.704  41.052  0.00  0.00    +0.067 C 
ENDBRANCH  24  25
ENDBRANCH  23   6
TORSDOF 7
ENDMDL
