REMARK  Name = 51137360
REMARK  6 active torsions:
REMARK  status: ('A' for Active; 'I' for Inactive)
REMARK    1  A    between atoms: N_2  and  C_11
REMARK    2  A    between atoms: C_7  and  C_12
REMARK    3  A    between atoms: C_11  and  C_13
REMARK    4  A    between atoms: C_14  and  C_15
REMARK    5  A    between atoms: C_15  and  C_18
REMARK    6  A    between atoms: C_24  and  C_29
REMARK                            x       y       z     vdW  Elec       q    Type
REMARK                         _______ _______ _______ _____ _____    ______ ____
ROOT
ATOM      1  O   UNL     1      -2.694  -0.020   0.049  0.00  0.00    -0.424 OA
ATOM      3  N   UNL     1      -4.308   0.633  -1.356  0.00  0.00    -0.112 NA
ATOM      4  N   UNL     1      -4.371  -0.744  -1.243  0.00  0.00    -0.112 NA
ATOM     12  C   UNL     1      -3.316   1.012  -0.585  0.00  0.00    +0.222 A 
ATOM     14  C   UNL     1      -3.411  -1.081  -0.414  0.00  0.00    +0.222 A 
ENDROOT
BRANCH  12   7
ATOM      2  N   UNL     1      -0.642   2.813   0.631  0.00  0.00    -0.297 NA
ATOM      7  C   UNL     1      -2.783   2.401  -0.312  0.00  0.00    +0.092 C 
ATOM      8  C   UNL     1      -2.894   2.798   1.168  0.00  0.00    +0.029 C 
ATOM      9  C   UNL     1      -1.298   2.602  -0.663  0.00  0.00    +0.097 C 
ATOM     10  C   UNL     1      -1.604   3.551   1.448  0.00  0.00    +0.085 C 
BRANCH   2  11
ATOM     11  C   UNL     1       0.631   3.506   0.506  0.00  0.00    +0.119 C 
BRANCH  11  13
ATOM     13  C   UNL     1       1.741   2.571   0.102  0.00  0.00    -0.033 A 
ATOM     16  C   UNL     1       2.299   1.704   1.041  0.00  0.00    +0.006 A 
ATOM     17  C   UNL     1       2.210   2.573  -1.212  0.00  0.00    +0.006 A 
ATOM     22  C   UNL     1       3.326   0.839   0.666  0.00  0.00    +0.019 A 
ATOM     23  C   UNL     1       3.237   1.707  -1.587  0.00  0.00    +0.019 A 
ATOM     24  C   UNL     1       3.795   0.840  -0.648  0.00  0.00    +0.052 A 
BRANCH  24  29
ATOM      6  N   UNL     1       5.703  -0.767  -1.343  0.00  0.00    -0.191 NA
ATOM     29  C   UNL     1       4.848  -0.047  -1.032  0.00  0.00    +0.099 C 
ENDBRANCH  24  29
ENDBRANCH  11  13
ENDBRANCH   2  11
ENDBRANCH  12   7
BRANCH  14  15
ATOM     15  C   UNL     1      -3.018  -2.410   0.071  0.00  0.00    +0.135 C 
BRANCH  15  18
ATOM      5  N   UNL     1       0.256  -3.580  -1.189  0.00  0.00    -0.360 N 
ATOM     18  C   UNL     1      -1.565  -2.784  -0.201  0.00  0.00    -0.013 A 
ATOM     19  C   UNL     1      -0.452  -2.536   0.651  0.00  0.00    +0.003 A 
ATOM     20  C   UNL     1       0.678  -3.045   0.007  0.00  0.00    +0.047 A 
ATOM     21  C   UNL     1      -1.098  -3.427  -1.324  0.00  0.00    +0.087 A 
ATOM     25  C   UNL     1      -0.297  -1.925   1.911  0.00  0.00    +0.010 A 
ATOM     26  C   UNL     1       1.960  -2.974   0.564  0.00  0.00    +0.026 A 
ATOM     27  C   UNL     1       0.979  -1.846   2.479  0.00  0.00    +0.001 A 
ATOM     28  C   UNL     1       2.089  -2.363   1.814  0.00  0.00    +0.002 A 
ATOM     30  H   UNL     1       0.860  -4.022  -1.869  0.00  0.00    +0.165 HD
ENDBRANCH  15  18
ENDBRANCH  14  15
TORSDOF 6
