MODEL 1
REMARK VINA RESULT:      -6.9      0.000      0.000
REMARK  Name = 45784151
REMARK  11 active torsions:
REMARK  status: ('A' for Active; 'I' for Inactive)
REMARK    1  A    between atoms: N_3  and  C_15
REMARK    2  A    between atoms: N_5  and  C_23
REMARK    3  A    between atoms: C_8  and  C_12
REMARK    4  A    between atoms: C_9  and  C_15
REMARK    5  A    between atoms: C_11  and  C_16
REMARK    6  A    between atoms: C_12  and  C_17
REMARK    7  A    between atoms: C_12  and  C_18
REMARK    8  A    between atoms: C_13  and  C_19
REMARK    9  A    between atoms: C_16  and  C_20
REMARK   10  A    between atoms: C_22  and  C_24
REMARK   11  A    between atoms: C_23  and  C_25
REMARK                            x       y       z     vdW  Elec       q    Type
REMARK                         _______ _______ _______ _____ _____    ______ ____
ROOT
ATOM      8  C   UNL     1      12.903  10.075  20.581  0.00  0.00    +0.000 C 
ATOM      9  C   UNL     1      11.459   9.939  21.122  0.00  0.00    +0.032 C 
ATOM     10  C   UNL     1      13.239   8.904  19.647  0.00  0.00    +0.012 C 
ATOM     11  C   UNL     1      13.109   7.539  20.352  0.00  0.00    +0.024 C 
ATOM     13  C   UNL     1      11.816   7.432  21.134  0.00  0.00    -0.073 C 
ATOM     14  C   UNL     1      11.085   8.514  21.458  0.00  0.00    -0.022 C 
ATOM     19  C   UNL     1      11.358   6.048  21.497  0.00  0.00    +0.039 C 
ENDROOT
BRANCH   8  12
ATOM     12  C   UNL     1      13.113  11.403  19.845  0.00  0.00    -0.013 C 
ATOM     17  C   UNL     1      14.248  12.193  20.486  0.00  0.00    +0.007 C 
ATOM     18  C   UNL     1      13.394  11.151  18.367  0.00  0.00    +0.007 C 
ENDBRANCH   8  12
BRANCH   9  15
ATOM     15  C   UNL     1      11.243  10.827  22.353  0.00  0.00    +0.113 C 
BRANCH  15   3
ATOM      2  O   UNL     1      12.833  12.786  23.751  0.00  0.00    -0.253 OA
ATOM      3  N   UNL     1      12.244  10.577  23.341  0.00  0.00    -0.299 N 
ATOM      5  N   UNL     1      13.885  11.064  24.896  0.00  0.00    -0.300 N 
ATOM     21  C   UNL     1      12.978  11.585  23.978  0.00  0.00    +0.300 C 
ATOM     30  H   UNL     1      12.391   9.620  23.651  0.00  0.00    +0.150 HD
ATOM     31  H   UNL     1      13.943  10.057  25.005  0.00  0.00    +0.150 HD
BRANCH   5  23
ATOM     23  C   UNL     1      14.764  11.895  25.686  0.00  0.00    +0.102 C 
ATOM     25  C   UNL     1      15.980  12.326  24.894  0.00  0.00    +0.024 C 
ENDBRANCH   5  23
ENDBRANCH  15   3
ENDBRANCH   9  15
BRANCH  11  16
ATOM     16  C   UNL     1      14.319   7.264  21.250  0.00  0.00    +0.105 C 
BRANCH  16  20
ATOM      1  O   UNL     1      16.702   6.771  21.059  0.00  0.00    -0.420 OA
ATOM      4  N   UNL     1      15.502   6.216  19.253  0.00  0.00    -0.112 NA
ATOM      6  N   UNL     1      16.822   5.884  19.009  0.00  0.00    -0.107 NA
ATOM     20  C   UNL     1      15.480   6.729  20.461  0.00  0.00    +0.218 A 
ATOM     22  C   UNL     1      17.485   6.225  20.089  0.00  0.00    +0.248 A 
BRANCH  22  24
ATOM      7  N   UNL     1      21.602   5.898  21.000  0.00  0.00    -0.263 NA
ATOM     24  C   UNL     1      18.881   6.114  20.399  0.00  0.00    +0.041 A 
ATOM     26  C   UNL     1      19.560   4.928  20.144  0.00  0.00    +0.033 A 
ATOM     27  C   UNL     1      19.560   7.193  20.955  0.00  0.00    +0.033 A 
ATOM     28  C   UNL     1      20.908   4.872  20.460  0.00  0.00    +0.111 A 
ATOM     29  C   UNL     1      20.909   7.035  21.235  0.00  0.00    +0.111 A 
ENDBRANCH  22  24
ENDBRANCH  16  20
ENDBRANCH  11  16
TORSDOF 7
ENDMDL
MODEL 2
REMARK VINA RESULT:      -6.6      2.234      3.512
REMARK  Name = 45784151
REMARK  11 active torsions:
REMARK  status: ('A' for Active; 'I' for Inactive)
REMARK    1  A    between atoms: N_3  and  C_15
REMARK    2  A    between atoms: N_5  and  C_23
REMARK    3  A    between atoms: C_8  and  C_12
REMARK    4  A    between atoms: C_9  and  C_15
REMARK    5  A    between atoms: C_11  and  C_16
REMARK    6  A    between atoms: C_12  and  C_17
REMARK    7  A    between atoms: C_12  and  C_18
REMARK    8  A    between atoms: C_13  and  C_19
REMARK    9  A    between atoms: C_16  and  C_20
REMARK   10  A    between atoms: C_22  and  C_24
REMARK   11  A    between atoms: C_23  and  C_25
REMARK                            x       y       z     vdW  Elec       q    Type
REMARK                         _______ _______ _______ _____ _____    ______ ____
ROOT
ATOM      8  C   UNL     1      12.662   9.186  18.967  0.00  0.00    +0.000 C 
ATOM      9  C   UNL     1      12.850  10.650  19.436  0.00  0.00    +0.032 C 
ATOM     10  C   UNL     1      11.277   8.664  19.375  0.00  0.00    +0.012 C 
ATOM     11  C   UNL     1      11.059   8.719  20.900  0.00  0.00    +0.024 C 
ATOM     13  C   UNL     1      11.477  10.055  21.480  0.00  0.00    -0.073 C 
ATOM     14  C   UNL     1      12.267  10.910  20.806  0.00  0.00    -0.022 C 
ATOM     19  C   UNL     1      10.930  10.405  22.835  0.00  0.00    +0.039 C 
ENDROOT
BRANCH   8  12
ATOM     12  C   UNL     1      12.843   9.046  17.452  0.00  0.00    -0.013 C 
ATOM     17  C   UNL     1      13.842   7.939  17.135  0.00  0.00    +0.007 C 
ATOM     18  C   UNL     1      11.501   8.774  16.779  0.00  0.00    +0.007 C 
ENDBRANCH   8  12
BRANCH   9  15
ATOM     15  C   UNL     1      14.329  11.049  19.426  0.00  0.00    +0.113 C 
BRANCH  15   3
ATOM      2  O   UNL     1      16.997  11.809  20.216  0.00  0.00    -0.253 OA
ATOM      3  N   UNL     1      14.827  11.184  20.759  0.00  0.00    -0.299 N 
ATOM      5  N   UNL     1      16.360  11.611  22.438  0.00  0.00    -0.300 N 
ATOM     21  C   UNL     1      16.142  11.558  21.064  0.00  0.00    +0.300 C 
ATOM     30  H   UNL     1      14.180  11.065  21.533  0.00  0.00    +0.150 HD
ATOM     31  H   UNL     1      15.595  11.372  23.062  0.00  0.00    +0.150 HD
BRANCH   5  23
ATOM     23  C   UNL     1      17.633  11.972  23.015  0.00  0.00    +0.102 C 
ATOM     25  C   UNL     1      17.705  13.454  23.319  0.00  0.00    +0.024 C 
ENDBRANCH   5  23
ENDBRANCH  15   3
ENDBRANCH   9  15
BRANCH  11  16
ATOM     16  C   UNL     1      11.781   7.565  21.603  0.00  0.00    +0.105 C 
BRANCH  16  20
ATOM      1  O   UNL     1      14.049   6.981  20.916  0.00  0.00    -0.420 OA
ATOM      4  N   UNL     1      13.937   8.695  22.351  0.00  0.00    -0.112 NA
ATOM      6  N   UNL     1      15.269   8.474  22.050  0.00  0.00    -0.107 NA
ATOM     20  C   UNL     1      13.263   7.801  21.666  0.00  0.00    +0.218 A 
ATOM     22  C   UNL     1      15.286   7.466  21.210  0.00  0.00    +0.248 A 
BRANCH  22  24
ATOM      7  N   UNL     1      18.531   5.528  19.312  0.00  0.00    -0.263 NA
ATOM     24  C   UNL     1      16.386   6.810  20.566  0.00  0.00    +0.041 A 
ATOM     26  C   UNL     1      17.619   6.727  21.203  0.00  0.00    +0.033 A 
ATOM     27  C   UNL     1      16.224   6.253  19.302  0.00  0.00    +0.033 A 
ATOM     28  C   UNL     1      18.651   6.081  20.540  0.00  0.00    +0.111 A 
ATOM     29  C   UNL     1      17.318   5.629  18.723  0.00  0.00    +0.111 A 
ENDBRANCH  22  24
ENDBRANCH  16  20
ENDBRANCH  11  16
TORSDOF 7
ENDMDL
MODEL 3
REMARK VINA RESULT:      -6.5      2.891      9.346
REMARK  Name = 45784151
REMARK  11 active torsions:
REMARK  status: ('A' for Active; 'I' for Inactive)
REMARK    1  A    between atoms: N_3  and  C_15
REMARK    2  A    between atoms: N_5  and  C_23
REMARK    3  A    between atoms: C_8  and  C_12
REMARK    4  A    between atoms: C_9  and  C_15
REMARK    5  A    between atoms: C_11  and  C_16
REMARK    6  A    between atoms: C_12  and  C_17
REMARK    7  A    between atoms: C_12  and  C_18
REMARK    8  A    between atoms: C_13  and  C_19
REMARK    9  A    between atoms: C_16  and  C_20
REMARK   10  A    between atoms: C_22  and  C_24
REMARK   11  A    between atoms: C_23  and  C_25
REMARK                            x       y       z     vdW  Elec       q    Type
REMARK                         _______ _______ _______ _____ _____    ______ ____
ROOT
ATOM      8  C   UNL     1      20.366   6.785  22.074  0.00  0.00    +0.000 C 
ATOM      9  C   UNL     1      20.598   5.608  21.095  0.00  0.00    +0.032 C 
ATOM     10  C   UNL     1      18.894   6.839  22.509  0.00  0.00    +0.012 C 
ATOM     11  C   UNL     1      17.938   7.005  21.312  0.00  0.00    +0.024 C 
ATOM     13  C   UNL     1      18.276   6.049  20.186  0.00  0.00    -0.073 C 
ATOM     14  C   UNL     1      19.465   5.425  20.112  0.00  0.00    -0.022 C 
ATOM     19  C   UNL     1      17.200   5.794  19.169  0.00  0.00    +0.039 C 
ENDROOT
BRANCH   8  12
ATOM     12  C   UNL     1      21.269   6.685  23.309  0.00  0.00    -0.013 C 
ATOM     17  C   UNL     1      22.508   7.555  23.133  0.00  0.00    +0.007 C 
ATOM     18  C   UNL     1      20.499   7.085  24.563  0.00  0.00    +0.007 C 
ENDBRANCH   8  12
BRANCH   9  15
ATOM     15  C   UNL     1      21.915   5.776  20.330  0.00  0.00    +0.113 C 
BRANCH  15   3
ATOM      2  O   UNL     1      23.159   3.904  22.138  0.00  0.00    -0.253 OA
ATOM      3  N   UNL     1      22.477   4.503  20.000  0.00  0.00    -0.299 N 
ATOM      5  N   UNL     1      23.532   2.475  20.349  0.00  0.00    -0.300 N 
ATOM     21  C   UNL     1      23.067   3.647  20.939  0.00  0.00    +0.300 C 
ATOM     30  H   UNL     1      22.389   4.168  19.046  0.00  0.00    +0.150 HD
ATOM     31  H   UNL     1      23.424   2.358  19.346  0.00  0.00    +0.150 HD
BRANCH   5  23
ATOM     23  C   UNL     1      24.182   1.426  21.099  0.00  0.00    +0.102 C 
ATOM     25  C   UNL     1      25.625   1.772  21.400  0.00  0.00    +0.024 C 
ENDBRANCH   5  23
ENDBRANCH  15   3
ENDBRANCH   9  15
BRANCH  11  16
ATOM     16  C   UNL     1      17.920   8.455  20.816  0.00  0.00    +0.105 C 
BRANCH  16  20
ATOM      1  O   UNL     1      15.522   8.181  21.179  0.00  0.00    -0.420 OA
ATOM      4  N   UNL     1      16.091  10.128  20.235  0.00  0.00    -0.112 NA
ATOM      6  N   UNL     1      14.716  10.107  20.381  0.00  0.00    -0.107 NA
ATOM     20  C   UNL     1      16.518   8.984  20.715  0.00  0.00    +0.218 A 
ATOM     22  C   UNL     1      14.430   8.953  20.936  0.00  0.00    +0.248 A 
BRANCH  22  24
ATOM      7  N   UNL     1      10.705   7.296  22.062  0.00  0.00    -0.263 NA
ATOM     24  C   UNL     1      13.166   8.391  21.317  0.00  0.00    +0.041 A 
ATOM     26  C   UNL     1      12.855   7.079  20.980  0.00  0.00    +0.033 A 
ATOM     27  C   UNL     1      12.247   9.158  22.026  0.00  0.00    +0.033 A 
ATOM     28  C   UNL     1      11.623   6.582  21.373  0.00  0.00    +0.111 A 
ATOM     29  C   UNL     1      11.041   8.568  22.371  0.00  0.00    +0.111 A 
ENDBRANCH  22  24
ENDBRANCH  16  20
ENDBRANCH  11  16
TORSDOF 7
ENDMDL
MODEL 4
REMARK VINA RESULT:      -6.5     27.821     29.820
REMARK  Name = 45784151
REMARK  11 active torsions:
REMARK  status: ('A' for Active; 'I' for Inactive)
REMARK    1  A    between atoms: N_3  and  C_15
REMARK    2  A    between atoms: N_5  and  C_23
REMARK    3  A    between atoms: C_8  and  C_12
REMARK    4  A    between atoms: C_9  and  C_15
REMARK    5  A    between atoms: C_11  and  C_16
REMARK    6  A    between atoms: C_12  and  C_17
REMARK    7  A    between atoms: C_12  and  C_18
REMARK    8  A    between atoms: C_13  and  C_19
REMARK    9  A    between atoms: C_16  and  C_20
REMARK   10  A    between atoms: C_22  and  C_24
REMARK   11  A    between atoms: C_23  and  C_25
REMARK                            x       y       z     vdW  Elec       q    Type
REMARK                         _______ _______ _______ _____ _____    ______ ____
ROOT
ATOM      8  C   UNL     1      -6.659 -11.257  16.504  0.00  0.00    +0.000 C 
ATOM      9  C   UNL     1      -7.050 -11.351  17.999  0.00  0.00    +0.032 C 
ATOM     10  C   UNL     1      -5.588 -12.304  16.162  0.00  0.00    +0.012 C 
ATOM     11  C   UNL     1      -4.313 -12.132  17.011  0.00  0.00    +0.024 C 
ATOM     13  C   UNL     1      -4.637 -11.950  18.480  0.00  0.00    -0.073 C 
ATOM     14  C   UNL     1      -5.868 -11.613  18.904  0.00  0.00    -0.022 C 
ATOM     19  C   UNL     1      -3.522 -12.206  19.454  0.00  0.00    +0.039 C 
ENDROOT
BRANCH   8  12
ATOM     12  C   UNL     1      -7.873 -11.438  15.586  0.00  0.00    -0.013 C 
ATOM     17  C   UNL     1      -7.430 -11.521  14.129  0.00  0.00    +0.007 C 
ATOM     18  C   UNL     1      -8.660 -12.682  15.985  0.00  0.00    +0.007 C 
ENDBRANCH   8  12
BRANCH   9  15
ATOM     15  C   UNL     1      -7.776 -10.084  18.463  0.00  0.00    +0.113 C 
BRANCH  15   3
ATOM      2  O   UNL     1     -10.619 -10.429  18.112  0.00  0.00    -0.253 OA
ATOM      3  N   UNL     1      -8.738 -10.391  19.475  0.00  0.00    -0.299 N 
ATOM      5  N   UNL     1     -10.815 -10.839  20.387  0.00  0.00    -0.300 N 
ATOM     21  C   UNL     1     -10.108 -10.543  19.225  0.00  0.00    +0.300 C 
ATOM     30  H   UNL     1      -8.407 -10.574  20.417  0.00  0.00    +0.150 HD
ATOM     31  H   UNL     1     -10.308 -10.900  21.265  0.00  0.00    +0.150 HD
BRANCH   5  23
ATOM     23  C   UNL     1     -12.245 -11.045  20.402  0.00  0.00    +0.102 C 
ATOM     25  C   UNL     1     -12.988  -9.750  20.659  0.00  0.00    +0.024 C 
ENDBRANCH   5  23
ENDBRANCH  15   3
ENDBRANCH   9  15
BRANCH  11  16
ATOM     16  C   UNL     1      -3.454 -10.976  16.489  0.00  0.00    +0.105 C 
BRANCH  16  20
ATOM      1  O   UNL     1      -3.849 -10.319  14.172  0.00  0.00    -0.420 OA
ATOM      4  N   UNL     1      -2.324 -11.937  14.419  0.00  0.00    -0.112 NA
ATOM      6  N   UNL     1      -2.446 -11.666  13.068  0.00  0.00    -0.107 NA
ATOM     20  C   UNL     1      -3.160 -11.126  15.024  0.00  0.00    +0.218 A 
ATOM     22  C   UNL     1      -3.347 -10.716  12.972  0.00  0.00    +0.248 A 
BRANCH  22  24
ATOM      7  N   UNL     1      -4.898  -8.741   9.569  0.00  0.00    -0.263 NA
ATOM     24  C   UNL     1      -3.873 -10.046  11.819  0.00  0.00    +0.041 A 
ATOM     26  C   UNL     1      -3.064  -9.826  10.709  0.00  0.00    +0.033 A 
ATOM     27  C   UNL     1      -5.195  -9.614  11.805  0.00  0.00    +0.033 A 
ATOM     28  C   UNL     1      -3.619  -9.175   9.619  0.00  0.00    +0.111 A 
ATOM     29  C   UNL     1      -5.655  -8.972  10.665  0.00  0.00    +0.111 A 
ENDBRANCH  22  24
ENDBRANCH  16  20
ENDBRANCH  11  16
TORSDOF 7
ENDMDL
MODEL 5
REMARK VINA RESULT:      -6.5      2.349      4.766
REMARK  Name = 45784151
REMARK  11 active torsions:
REMARK  status: ('A' for Active; 'I' for Inactive)
REMARK    1  A    between atoms: N_3  and  C_15
REMARK    2  A    between atoms: N_5  and  C_23
REMARK    3  A    between atoms: C_8  and  C_12
REMARK    4  A    between atoms: C_9  and  C_15
REMARK    5  A    between atoms: C_11  and  C_16
REMARK    6  A    between atoms: C_12  and  C_17
REMARK    7  A    between atoms: C_12  and  C_18
REMARK    8  A    between atoms: C_13  and  C_19
REMARK    9  A    between atoms: C_16  and  C_20
REMARK   10  A    between atoms: C_22  and  C_24
REMARK   11  A    between atoms: C_23  and  C_25
REMARK                            x       y       z     vdW  Elec       q    Type
REMARK                         _______ _______ _______ _____ _____    ______ ____
ROOT
ATOM      8  C   UNL     1      13.147  11.970  21.041  0.00  0.00    +0.000 C 
ATOM      9  C   UNL     1      13.498  11.660  19.565  0.00  0.00    +0.032 C 
ATOM     10  C   UNL     1      14.096  13.039  21.604  0.00  0.00    +0.012 C 
ATOM     11  C   UNL     1      15.572  12.604  21.535  0.00  0.00    +0.024 C 
ATOM     13  C   UNL     1      15.927  12.032  20.177  0.00  0.00    -0.073 C 
ATOM     14  C   UNL     1      14.986  11.628  19.305  0.00  0.00    -0.022 C 
ATOM     19  C   UNL     1      17.387  11.977  19.827  0.00  0.00    +0.039 C 
ENDROOT
BRANCH   8  12
ATOM     12  C   UNL     1      11.695  12.432  21.196  0.00  0.00    -0.013 C 
ATOM     17  C   UNL     1      11.124  11.956  22.528  0.00  0.00    +0.007 C 
ATOM     18  C   UNL     1      11.605  13.951  21.080  0.00  0.00    +0.007 C 
ENDBRANCH   8  12
BRANCH   9  15
ATOM     15  C   UNL     1      12.873  10.335  19.115  0.00  0.00    +0.113 C 
BRANCH  15   3
ATOM      2  O   UNL     1      10.658   8.535  19.535  0.00  0.00    -0.253 OA
ATOM      3  N   UNL     1      12.670   9.464  20.229  0.00  0.00    -0.299 N 
ATOM      5  N   UNL     1      11.617   7.878  21.543  0.00  0.00    -0.300 N 
ATOM     21  C   UNL     1      11.564   8.616  20.363  0.00  0.00    +0.300 C 
ATOM     30  H   UNL     1      13.397   9.405  20.936  0.00  0.00    +0.150 HD
ATOM     31  H   UNL     1      12.399   8.023  22.173  0.00  0.00    +0.150 HD
BRANCH   5  23
ATOM     23  C   UNL     1      10.595   6.929  21.919  0.00  0.00    +0.102 C 
ATOM     25  C   UNL     1      11.013   5.509  21.599  0.00  0.00    +0.024 C 
ENDBRANCH   5  23
ENDBRANCH  15   3
ENDBRANCH   9  15
BRANCH  11  16
ATOM     16  C   UNL     1      15.908  11.612  22.654  0.00  0.00    +0.105 C 
BRANCH  16  20
ATOM      1  O   UNL     1      16.583   9.534  21.564  0.00  0.00    -0.420 OA
ATOM      4  N   UNL     1      14.524   9.484  22.440  0.00  0.00    -0.112 NA
ATOM      6  N   UNL     1      14.773   8.254  21.860  0.00  0.00    -0.107 NA
ATOM     20  C   UNL     1      15.608  10.198  22.244  0.00  0.00    +0.218 A 
ATOM     22  C   UNL     1      15.985   8.329  21.362  0.00  0.00    +0.248 A 
BRANCH  22  24
ATOM      7  N   UNL     1      18.275   5.458  19.264  0.00  0.00    -0.263 NA
ATOM     24  C   UNL     1      16.761   7.355  20.651  0.00  0.00    +0.041 A 
ATOM     26  C   UNL     1      16.238   6.733  19.523  0.00  0.00    +0.033 A 
ATOM     27  C   UNL     1      18.041   7.029  21.088  0.00  0.00    +0.033 A 
ATOM     28  C   UNL     1      17.028   5.801  18.871  0.00  0.00    +0.111 A 
ATOM     29  C   UNL     1      18.750   6.082  20.365  0.00  0.00    +0.111 A 
ENDBRANCH  22  24
ENDBRANCH  16  20
ENDBRANCH  11  16
TORSDOF 7
ENDMDL
MODEL 6
REMARK VINA RESULT:      -6.5     23.501     27.244
REMARK  Name = 45784151
REMARK  11 active torsions:
REMARK  status: ('A' for Active; 'I' for Inactive)
REMARK    1  A    between atoms: N_3  and  C_15
REMARK    2  A    between atoms: N_5  and  C_23
REMARK    3  A    between atoms: C_8  and  C_12
REMARK    4  A    between atoms: C_9  and  C_15
REMARK    5  A    between atoms: C_11  and  C_16
REMARK    6  A    between atoms: C_12  and  C_17
REMARK    7  A    between atoms: C_12  and  C_18
REMARK    8  A    between atoms: C_13  and  C_19
REMARK    9  A    between atoms: C_16  and  C_20
REMARK   10  A    between atoms: C_22  and  C_24
REMARK   11  A    between atoms: C_23  and  C_25
REMARK                            x       y       z     vdW  Elec       q    Type
REMARK                         _______ _______ _______ _____ _____    ______ ____
ROOT
ATOM      8  C   UNL     1     -12.529   9.098  20.450  0.00  0.00    +0.000 C 
ATOM      9  C   UNL     1     -12.529   7.599  20.060  0.00  0.00    +0.032 C 
ATOM     10  C   UNL     1     -12.662   9.978  19.198  0.00  0.00    +0.012 C 
ATOM     11  C   UNL     1     -11.522   9.736  18.190  0.00  0.00    +0.024 C 
ATOM     13  C   UNL     1     -11.283   8.258  17.956  0.00  0.00    -0.073 C 
ATOM     14  C   UNL     1     -11.752   7.317  18.795  0.00  0.00    -0.022 C 
ATOM     19  C   UNL     1     -10.530   7.884  16.711  0.00  0.00    +0.039 C 
ENDROOT
BRANCH   8  12
ATOM     12  C   UNL     1     -13.651   9.429  21.439  0.00  0.00    -0.013 C 
ATOM     17  C   UNL     1     -13.074  10.030  22.716  0.00  0.00    +0.007 C 
ATOM     18  C   UNL     1     -14.659  10.379  20.800  0.00  0.00    +0.007 C 
ENDBRANCH   8  12
BRANCH   9  15
ATOM     15  C   UNL     1     -11.984   6.731  21.198  0.00  0.00    +0.113 C 
BRANCH  15   3
ATOM      2  O   UNL     1     -14.308   6.534  22.896  0.00  0.00    -0.253 OA
ATOM      3  N   UNL     1     -12.809   5.581  21.400  0.00  0.00    -0.299 N 
ATOM      5  N   UNL     1     -14.547   4.317  22.256  0.00  0.00    -0.300 N 
ATOM     21  C   UNL     1     -13.926   5.563  22.245  0.00  0.00    +0.300 C 
ATOM     30  H   UNL     1     -12.618   4.746  20.853  0.00  0.00    +0.150 HD
ATOM     31  H   UNL     1     -14.150   3.570  21.695  0.00  0.00    +0.150 HD
BRANCH   5  23
ATOM     23  C   UNL     1     -15.722   4.035  23.047  0.00  0.00    +0.102 C 
ATOM     25  C   UNL     1     -15.362   3.735  24.487  0.00  0.00    +0.024 C 
ENDBRANCH   5  23
ENDBRANCH  15   3
ENDBRANCH   9  15
BRANCH  11  16
ATOM     16  C   UNL     1     -10.234  10.437  18.635  0.00  0.00    +0.105 C 
BRANCH  16  20
ATOM      1  O   UNL     1      -9.057  11.799  16.987  0.00  0.00    -0.420 OA
ATOM      4  N   UNL     1     -10.699  12.874  18.061  0.00  0.00    -0.112 NA
ATOM      6  N   UNL     1     -10.123  13.757  17.166  0.00  0.00    -0.107 NA
ATOM     20  C   UNL     1     -10.045  11.745  17.921  0.00  0.00    +0.218 A 
ATOM     22  C   UNL     1      -9.170  13.086  16.562  0.00  0.00    +0.248 A 
BRANCH  22  24
ATOM      7  N   UNL     1      -6.450  14.289  13.554  0.00  0.00    -0.263 NA
ATOM     24  C   UNL     1      -8.248  13.493  15.542  0.00  0.00    +0.041 A 
ATOM     26  C   UNL     1      -8.720  13.964  14.321  0.00  0.00    +0.033 A 
ATOM     27  C   UNL     1      -6.878  13.419  15.770  0.00  0.00    +0.033 A 
ATOM     28  C   UNL     1      -7.788  14.347  13.369  0.00  0.00    +0.111 A 
ATOM     29  C   UNL     1      -6.029  13.825  14.752  0.00  0.00    +0.111 A 
ENDBRANCH  22  24
ENDBRANCH  16  20
ENDBRANCH  11  16
TORSDOF 7
ENDMDL
MODEL 7
REMARK VINA RESULT:      -6.4      3.018      7.835
REMARK  Name = 45784151
REMARK  11 active torsions:
REMARK  status: ('A' for Active; 'I' for Inactive)
REMARK    1  A    between atoms: N_3  and  C_15
REMARK    2  A    between atoms: N_5  and  C_23
REMARK    3  A    between atoms: C_8  and  C_12
REMARK    4  A    between atoms: C_9  and  C_15
REMARK    5  A    between atoms: C_11  and  C_16
REMARK    6  A    between atoms: C_12  and  C_17
REMARK    7  A    between atoms: C_12  and  C_18
REMARK    8  A    between atoms: C_13  and  C_19
REMARK    9  A    between atoms: C_16  and  C_20
REMARK   10  A    between atoms: C_22  and  C_24
REMARK   11  A    between atoms: C_23  and  C_25
REMARK                            x       y       z     vdW  Elec       q    Type
REMARK                         _______ _______ _______ _____ _____    ______ ____
ROOT
ATOM      8  C   UNL     1      20.362   6.069  21.869  0.00  0.00    +0.000 C 
ATOM      9  C   UNL     1      20.690   7.390  22.608  0.00  0.00    +0.032 C 
ATOM     10  C   UNL     1      19.640   6.360  20.545  0.00  0.00    +0.012 C 
ATOM     11  C   UNL     1      18.327   7.140  20.755  0.00  0.00    +0.024 C 
ATOM     13  C   UNL     1      18.516   8.313  21.695  0.00  0.00    -0.073 C 
ATOM     14  C   UNL     1      19.584   8.414  22.506  0.00  0.00    -0.022 C 
ATOM     19  C   UNL     1      17.469   9.391  21.650  0.00  0.00    +0.039 C 
ENDROOT
BRANCH   8  12
ATOM     12  C   UNL     1      21.621   5.238  21.602  0.00  0.00    -0.013 C 
ATOM     17  C   UNL     1      21.248   3.880  21.019  0.00  0.00    +0.007 C 
ATOM     18  C   UNL     1      22.564   5.989  20.667  0.00  0.00    +0.007 C 
ENDBRANCH   8  12
BRANCH   9  15
ATOM     15  C   UNL     1      21.014   7.134  24.084  0.00  0.00    +0.113 C 
BRANCH  15   3
ATOM      2  O   UNL     1      21.306   7.494  26.931  0.00  0.00    -0.253 OA
ATOM      3  N   UNL     1      20.233   7.980  24.930  0.00  0.00    -0.299 N 
ATOM      5  N   UNL     1      19.536   8.992  26.889  0.00  0.00    -0.300 N 
ATOM     21  C   UNL     1      20.436   8.102  26.310  0.00  0.00    +0.300 C 
ATOM     30  H   UNL     1      19.532   8.579  24.502  0.00  0.00    +0.150 HD
ATOM     31  H   UNL     1      18.841   9.438  26.297  0.00  0.00    +0.150 HD
BRANCH   5  23
ATOM     23  C   UNL     1      19.534   9.296  28.301  0.00  0.00    +0.102 C 
ATOM     25  C   UNL     1      18.608  10.451  28.619  0.00  0.00    +0.024 C 
ENDBRANCH   5  23
ENDBRANCH  15   3
ENDBRANCH   9  15
BRANCH  11  16
ATOM     16  C   UNL     1      17.208   6.216  21.247  0.00  0.00    +0.105 C 
BRANCH  16  20
ATOM      1  O   UNL     1      14.917   7.014  21.507  0.00  0.00    -0.420 OA
ATOM      4  N   UNL     1      15.499   6.571  19.392  0.00  0.00    -0.112 NA
ATOM      6  N   UNL     1      14.188   7.010  19.393  0.00  0.00    -0.107 NA
ATOM     20  C   UNL     1      15.883   6.590  20.647  0.00  0.00    +0.218 A 
ATOM     22  C   UNL     1      13.891   7.257  20.647  0.00  0.00    +0.248 A 
BRANCH  22  24
ATOM      7  N   UNL     1      10.306   8.663  22.396  0.00  0.00    -0.263 NA
ATOM     24  C   UNL     1      12.675   7.734  21.239  0.00  0.00    +0.041 A 
ATOM     26  C   UNL     1      11.588   6.880  21.385  0.00  0.00    +0.033 A 
ATOM     27  C   UNL     1      12.580   9.053  21.671  0.00  0.00    +0.033 A 
ATOM     28  C   UNL     1      10.436   7.388  21.965  0.00  0.00    +0.111 A 
ATOM     29  C   UNL     1      11.383   9.464  22.237  0.00  0.00    +0.111 A 
ENDBRANCH  22  24
ENDBRANCH  16  20
ENDBRANCH  11  16
TORSDOF 7
ENDMDL
MODEL 8
REMARK VINA RESULT:      -6.4      3.165      5.814
REMARK  Name = 45784151
REMARK  11 active torsions:
REMARK  status: ('A' for Active; 'I' for Inactive)
REMARK    1  A    between atoms: N_3  and  C_15
REMARK    2  A    between atoms: N_5  and  C_23
REMARK    3  A    between atoms: C_8  and  C_12
REMARK    4  A    between atoms: C_9  and  C_15
REMARK    5  A    between atoms: C_11  and  C_16
REMARK    6  A    between atoms: C_12  and  C_17
REMARK    7  A    between atoms: C_12  and  C_18
REMARK    8  A    between atoms: C_13  and  C_19
REMARK    9  A    between atoms: C_16  and  C_20
REMARK   10  A    between atoms: C_22  and  C_24
REMARK   11  A    between atoms: C_23  and  C_25
REMARK                            x       y       z     vdW  Elec       q    Type
REMARK                         _______ _______ _______ _____ _____    ______ ____
ROOT
ATOM      8  C   UNL     1      16.294   8.351  21.234  0.00  0.00    +0.000 C 
ATOM      9  C   UNL     1      15.624   7.512  20.118  0.00  0.00    +0.032 C 
ATOM     10  C   UNL     1      17.783   8.567  20.923  0.00  0.00    +0.012 C 
ATOM     11  C   UNL     1      18.549   7.237  20.786  0.00  0.00    +0.024 C 
ATOM     13  C   UNL     1      17.809   6.251  19.905  0.00  0.00    -0.073 C 
ATOM     14  C   UNL     1      16.506   6.397  19.607  0.00  0.00    -0.022 C 
ATOM     19  C   UNL     1      18.614   5.115  19.338  0.00  0.00    +0.039 C 
ENDROOT
BRANCH   8  12
ATOM     12  C   UNL     1      15.602   9.705  21.423  0.00  0.00    -0.013 C 
ATOM     17  C   UNL     1      14.748   9.695  22.686  0.00  0.00    +0.007 C 
ATOM     18  C   UNL     1      16.634  10.827  21.476  0.00  0.00    +0.007 C 
ENDBRANCH   8  12
BRANCH   9  15
ATOM     15  C   UNL     1      14.287   6.931  20.590  0.00  0.00    +0.113 C 
BRANCH  15   3
ATOM      2  O   UNL     1      12.772   9.059  19.366  0.00  0.00    -0.253 OA
ATOM      3  N   UNL     1      13.370   6.819  19.499  0.00  0.00    -0.299 N 
ATOM      5  N   UNL     1      11.843   7.513  17.907  0.00  0.00    -0.300 N 
ATOM     21  C   UNL     1      12.668   7.903  18.959  0.00  0.00    +0.300 C 
ATOM     30  H   UNL     1      13.265   5.916  19.045  0.00  0.00    +0.150 HD
ATOM     31  H   UNL     1      11.813   6.532  17.650  0.00  0.00    +0.150 HD
BRANCH   5  23
ATOM     23  C   UNL     1      11.012   8.443  17.178  0.00  0.00    +0.102 C 
ATOM     25  C   UNL     1      11.807   9.191  16.128  0.00  0.00    +0.024 C 
ENDBRANCH   5  23
ENDBRANCH  15   3
ENDBRANCH   9  15
BRANCH  11  16
ATOM     16  C   UNL     1      18.849   6.629  22.160  0.00  0.00    +0.105 C 
BRANCH  16  20
ATOM      1  O   UNL     1      20.826   5.338  21.541  0.00  0.00    -0.420 OA
ATOM      4  N   UNL     1      21.196   6.884  23.115  0.00  0.00    -0.112 NA
ATOM      6  N   UNL     1      22.391   6.234  22.864  0.00  0.00    -0.107 NA
ATOM     20  C   UNL     1      20.312   6.328  22.320  0.00  0.00    +0.218 A 
ATOM     22  C   UNL     1      22.127   5.341  21.939  0.00  0.00    +0.248 A 
BRANCH  22  24
ATOM      7  N   UNL     1      24.647   2.523  20.043  0.00  0.00    -0.263 NA
ATOM     24  C   UNL     1      22.982   4.385  21.297  0.00  0.00    +0.041 A 
ATOM     26  C   UNL     1      22.840   3.028  21.566  0.00  0.00    +0.033 A 
ATOM     27  C   UNL     1      23.956   4.812  20.401  0.00  0.00    +0.033 A 
ATOM     28  C   UNL     1      23.689   2.146  20.919  0.00  0.00    +0.111 A 
ATOM     29  C   UNL     1      24.757   3.849  19.806  0.00  0.00    +0.111 A 
ENDBRANCH  22  24
ENDBRANCH  16  20
ENDBRANCH  11  16
TORSDOF 7
ENDMDL
MODEL 9
REMARK VINA RESULT:      -6.3     25.700     29.387
REMARK  Name = 45784151
REMARK  11 active torsions:
REMARK  status: ('A' for Active; 'I' for Inactive)
REMARK    1  A    between atoms: N_3  and  C_15
REMARK    2  A    between atoms: N_5  and  C_23
REMARK    3  A    between atoms: C_8  and  C_12
REMARK    4  A    between atoms: C_9  and  C_15
REMARK    5  A    between atoms: C_11  and  C_16
REMARK    6  A    between atoms: C_12  and  C_17
REMARK    7  A    between atoms: C_12  and  C_18
REMARK    8  A    between atoms: C_13  and  C_19
REMARK    9  A    between atoms: C_16  and  C_20
REMARK   10  A    between atoms: C_22  and  C_24
REMARK   11  A    between atoms: C_23  and  C_25
REMARK                            x       y       z     vdW  Elec       q    Type
REMARK                         _______ _______ _______ _____ _____    ______ ____
ROOT
ATOM      8  C   UNL     1     -12.166  10.252  19.344  0.00  0.00    +0.000 C 
ATOM      9  C   UNL     1     -10.755   9.684  19.637  0.00  0.00    +0.032 C 
ATOM     10  C   UNL     1     -13.154   9.823  20.439  0.00  0.00    +0.012 C 
ATOM     11  C   UNL     1     -13.261   8.291  20.560  0.00  0.00    +0.024 C 
ATOM     13  C   UNL     1     -11.897   7.632  20.585  0.00  0.00    -0.073 C 
ATOM     14  C   UNL     1     -10.786   8.275  20.181  0.00  0.00    -0.022 C 
ATOM     19  C   UNL     1     -11.831   6.233  21.128  0.00  0.00    +0.039 C 
ENDROOT
BRANCH   8  12
ATOM     12  C   UNL     1     -12.152  11.780  19.227  0.00  0.00    -0.013 C 
ATOM     17  C   UNL     1     -12.583  12.210  17.830  0.00  0.00    +0.007 C 
ATOM     18  C   UNL     1     -13.054  12.402  20.289  0.00  0.00    +0.007 C 
ENDBRANCH   8  12
BRANCH   9  15
ATOM     15  C   UNL     1      -9.870   9.729  18.387  0.00  0.00    +0.113 C 
BRANCH  15   3
ATOM      2  O   UNL     1     -10.469  10.172  15.600  0.00  0.00    -0.253 OA
ATOM      3  N   UNL     1     -10.292   8.754  17.430  0.00  0.00    -0.299 N 
ATOM      5  N   UNL     1     -10.957   7.915  15.381  0.00  0.00    -0.300 N 
ATOM     21  C   UNL     1     -10.566   9.048  16.089  0.00  0.00    +0.300 C 
ATOM     30  H   UNL     1     -10.335   7.781  17.718  0.00  0.00    +0.150 HD
ATOM     31  H   UNL     1     -11.021   7.030  15.874  0.00  0.00    +0.150 HD
BRANCH   5  23
ATOM     23  C   UNL     1     -11.296   7.948  13.977  0.00  0.00    +0.102 C 
ATOM     25  C   UNL     1     -10.153   7.448  13.119  0.00  0.00    +0.024 C 
ENDBRANCH   5  23
ENDBRANCH  15   3
ENDBRANCH   9  15
BRANCH  11  16
ATOM     16  C   UNL     1     -14.132   7.707  19.443  0.00  0.00    +0.105 C 
BRANCH  16  20
ATOM      1  O   UNL     1     -15.014   6.131  21.085  0.00  0.00    -0.420 OA
ATOM      4  N   UNL     1     -16.521   6.836  19.589  0.00  0.00    -0.112 NA
ATOM      6  N   UNL     1     -17.151   5.956  20.450  0.00  0.00    -0.107 NA
ATOM     20  C   UNL     1     -15.276   6.907  19.998  0.00  0.00    +0.218 A 
ATOM     22  C   UNL     1     -16.233   5.571  21.305  0.00  0.00    +0.248 A 
BRANCH  22  24
ATOM      7  N   UNL     1     -16.479   2.904  24.579  0.00  0.00    -0.263 NA
ATOM     24  C   UNL     1     -16.317   4.667  22.416  0.00  0.00    +0.041 A 
ATOM     26  C   UNL     1     -17.401   3.804  22.534  0.00  0.00    +0.033 A 
ATOM     27  C   UNL     1     -15.314   4.650  23.379  0.00  0.00    +0.033 A 
ATOM     28  C   UNL     1     -17.434   2.949  23.624  0.00  0.00    +0.111 A 
ATOM     29  C   UNL     1     -15.441   3.757  24.432  0.00  0.00    +0.111 A 
ENDBRANCH  22  24
ENDBRANCH  16  20
ENDBRANCH  11  16
TORSDOF 7
ENDMDL
MODEL 10
REMARK VINA RESULT:      -6.2     26.792     28.555
REMARK  Name = 45784151
REMARK  11 active torsions:
REMARK  status: ('A' for Active; 'I' for Inactive)
REMARK    1  A    between atoms: N_3  and  C_15
REMARK    2  A    between atoms: N_5  and  C_23
REMARK    3  A    between atoms: C_8  and  C_12
REMARK    4  A    between atoms: C_9  and  C_15
REMARK    5  A    between atoms: C_11  and  C_16
REMARK    6  A    between atoms: C_12  and  C_17
REMARK    7  A    between atoms: C_12  and  C_18
REMARK    8  A    between atoms: C_13  and  C_19
REMARK    9  A    between atoms: C_16  and  C_20
REMARK   10  A    between atoms: C_22  and  C_24
REMARK   11  A    between atoms: C_23  and  C_25
REMARK                            x       y       z     vdW  Elec       q    Type
REMARK                         _______ _______ _______ _____ _____    ______ ____
ROOT
ATOM      8  C   UNL     1     -12.858   8.515  20.602  0.00  0.00    +0.000 C 
ATOM      9  C   UNL     1     -13.454   8.388  22.025  0.00  0.00    +0.032 C 
ATOM     10  C   UNL     1     -11.654   9.469  20.608  0.00  0.00    +0.012 C 
ATOM     11  C   UNL     1     -12.029  10.878  21.107  0.00  0.00    +0.024 C 
ATOM     13  C   UNL     1     -12.855  10.823  22.377  0.00  0.00    -0.073 C 
ATOM     14  C   UNL     1     -13.474   9.698  22.778  0.00  0.00    -0.022 C 
ATOM     19  C   UNL     1     -12.917  12.079  23.198  0.00  0.00    +0.039 C 
ENDROOT
BRANCH   8  12
ATOM     12  C   UNL     1     -12.439   7.154  20.036  0.00  0.00    -0.013 C 
ATOM     17  C   UNL     1     -11.501   7.338  18.848  0.00  0.00    +0.007 C 
ATOM     18  C   UNL     1     -11.781   6.308  21.121  0.00  0.00    +0.007 C 
ENDBRANCH   8  12
BRANCH   9  15
ATOM     15  C   UNL     1     -14.870   7.803  21.983  0.00  0.00    +0.113 C 
BRANCH  15   3
ATOM      2  O   UNL     1     -14.893   4.920  22.084  0.00  0.00    -0.253 OA
ATOM      3  N   UNL     1     -15.116   6.983  23.127  0.00  0.00    -0.299 N 
ATOM      5  N   UNL     1     -15.379   5.038  24.350  0.00  0.00    -0.300 N 
ATOM     21  C   UNL     1     -15.111   5.583  23.097  0.00  0.00    +0.300 C 
ATOM     30  H   UNL     1     -15.237   7.435  24.029  0.00  0.00    +0.150 HD
ATOM     31  H   UNL     1     -15.560   5.666  25.126  0.00  0.00    +0.150 HD
BRANCH   5  23
ATOM     23  C   UNL     1     -15.432   3.614  24.589  0.00  0.00    +0.102 C 
ATOM     25  C   UNL     1     -16.120   3.297  25.900  0.00  0.00    +0.024 C 
ENDBRANCH   5  23
ENDBRANCH  15   3
ENDBRANCH   9  15
BRANCH  11  16
ATOM     16  C   UNL     1     -12.750  11.677  20.017  0.00  0.00    +0.105 C 
BRANCH  16  20
ATOM      1  O   UNL     1     -12.213  10.800  17.804  0.00  0.00    -0.420 OA
ATOM      4  N   UNL     1     -10.986  12.570  18.411  0.00  0.00    -0.112 NA
ATOM      6  N   UNL     1     -10.579  12.180  17.148  0.00  0.00    -0.107 NA
ATOM     20  C   UNL     1     -11.940  11.736  18.753  0.00  0.00    +0.218 A 
ATOM     22  C   UNL     1     -11.322  11.145  16.835  0.00  0.00    +0.248 A 
BRANCH  22  24
ATOM      7  N   UNL     1     -11.375   8.759  13.342  0.00  0.00    -0.263 NA
ATOM     24  C   UNL     1     -11.340  10.336  15.650  0.00  0.00    +0.041 A 
ATOM     26  C   UNL     1     -10.710   9.096  15.641  0.00  0.00    +0.033 A 
ATOM     27  C   UNL     1     -11.987  10.789  14.505  0.00  0.00    +0.033 A 
ATOM     28  C   UNL     1     -10.757   8.353  14.473  0.00  0.00    +0.111 A 
ATOM     29  C   UNL     1     -11.975   9.970  13.387  0.00  0.00    +0.111 A 
ENDBRANCH  22  24
ENDBRANCH  16  20
ENDBRANCH  11  16
TORSDOF 7
ENDMDL
