MODEL 1
REMARK VINA RESULT:      -6.8      0.000      0.000
REMARK  Name = 75536290
REMARK  10 active torsions:
REMARK  status: ('A' for Active; 'I' for Inactive)
REMARK    1  A    between atoms: O_3  and  C_9
REMARK    2  A    between atoms: O_5  and  C_20
REMARK    3  A    between atoms: O_5  and  C_26
REMARK    4  A    between atoms: N_6  and  C_13
REMARK    5  A    between atoms: N_6  and  C_16
REMARK    6  A    between atoms: C_8  and  C_13
REMARK    7  A    between atoms: C_10  and  C_14
REMARK    8  A    between atoms: C_14  and  C_15
REMARK    9  A    between atoms: C_16  and  C_18
REMARK   10  A    between atoms: C_19  and  C_20
REMARK                            x       y       z     vdW  Elec       q    Type
REMARK                         _______ _______ _______ _____ _____    ______ ____
ROOT
ATOM      2  O   UNL     1      10.534   8.489  19.739  0.00  0.00    -0.369 OA
ATOM      8  C   UNL     1      10.719   8.402  21.159  0.00  0.00    +0.161 C 
ATOM      9  C   UNL     1      11.361   7.067  21.558  0.00  0.00    +0.145 C 
ATOM     10  C   UNL     1      11.717   8.293  18.959  0.00  0.00    +0.125 C 
ATOM     11  C   UNL     1      12.604   6.750  20.732  0.00  0.00    +0.036 C 
ATOM     12  C   UNL     1      12.326   6.920  19.240  0.00  0.00    +0.034 C 
ENDROOT
BRANCH   9   3
ATOM      3  O   UNL     1      10.413   6.018  21.341  0.00  0.00    -0.389 OA
ATOM     28  H   UNL     1       9.869   5.944  22.144  0.00  0.00    +0.210 HD
ENDBRANCH   9   3
BRANCH   8  13
ATOM     13  C   UNL     1      11.482   9.614  21.689  0.00  0.00    +0.115 C 
BRANCH  13   6
ATOM      6  N   UNL     1      12.519   9.206  22.624  0.00  0.00    -0.309 NA
ATOM     27  H   UNL     1      12.221   9.427  23.575  0.00  0.00    +0.122 HD
BRANCH   6  16
ATOM     16  C   UNL     1      13.779   9.879  22.334  0.00  0.00    +0.116 C 
BRANCH  16  18
ATOM      1 CL   UNL     1      17.601   6.293  19.379  0.00  0.00    -0.084 Cl
ATOM     18  C   UNL     1      14.735   8.982  21.595  0.00  0.00    -0.033 A 
ATOM     21  C   UNL     1      15.187   7.803  22.188  0.00  0.00    +0.006 A 
ATOM     22  C   UNL     1      15.172   9.330  20.316  0.00  0.00    +0.006 A 
ATOM     23  C   UNL     1      16.073   6.971  21.504  0.00  0.00    +0.020 A 
ATOM     24  C   UNL     1      16.059   8.500  19.632  0.00  0.00    +0.020 A 
ATOM     25  C   UNL     1      16.509   7.320  20.225  0.00  0.00    +0.041 A 
ENDBRANCH  16  18
ENDBRANCH   6  16
ENDBRANCH  13   6
ENDBRANCH   8  13
BRANCH  10  14
ATOM     14  C   UNL     1      11.325   8.423  17.493  0.00  0.00    +0.090 C 
BRANCH  14  15
ATOM      4  O   UNL     1      13.405   9.968  14.989  0.00  0.00    -0.357 OA
ATOM      7  N   UNL     1      12.380   9.117  15.382  0.00  0.00    -0.083 NA
ATOM     15  C   UNL     1      12.337   9.219  16.713  0.00  0.00    +0.086 A 
ATOM     17  C   UNL     1      13.304  10.110  17.212  0.00  0.00    +0.073 A 
ATOM     19  C   UNL     1      13.949  10.553  16.087  0.00  0.00    +0.163 A 
BRANCH  19  20
ATOM     20  C   UNL     1      15.054  11.489  15.853  0.00  0.00    +0.236 C 
BRANCH  20   5
ATOM      5  O   UNL     1      15.957  10.957  14.879  0.00  0.00    -0.375 OA
ATOM     26  C   UNL     1      17.088  11.796  14.715  0.00  0.00    +0.194 C 
ENDBRANCH  20   5
ENDBRANCH  19  20
ENDBRANCH  14  15
ENDBRANCH  10  14
TORSDOF 9
ENDMDL
MODEL 2
REMARK VINA RESULT:      -6.7      3.504      4.675
REMARK  Name = 75536290
REMARK  10 active torsions:
REMARK  status: ('A' for Active; 'I' for Inactive)
REMARK    1  A    between atoms: O_3  and  C_9
REMARK    2  A    between atoms: O_5  and  C_20
REMARK    3  A    between atoms: O_5  and  C_26
REMARK    4  A    between atoms: N_6  and  C_13
REMARK    5  A    between atoms: N_6  and  C_16
REMARK    6  A    between atoms: C_8  and  C_13
REMARK    7  A    between atoms: C_10  and  C_14
REMARK    8  A    between atoms: C_14  and  C_15
REMARK    9  A    between atoms: C_16  and  C_18
REMARK   10  A    between atoms: C_19  and  C_20
REMARK                            x       y       z     vdW  Elec       q    Type
REMARK                         _______ _______ _______ _____ _____    ______ ____
ROOT
ATOM      2  O   UNL     1      10.709   8.155  19.878  0.00  0.00    -0.369 OA
ATOM      8  C   UNL     1      11.008   7.785  21.230  0.00  0.00    +0.161 C 
ATOM      9  C   UNL     1      11.884   6.528  21.286  0.00  0.00    +0.145 C 
ATOM     10  C   UNL     1      11.848   8.348  19.035  0.00  0.00    +0.125 C 
ATOM     11  C   UNL     1      13.099   6.626  20.367  0.00  0.00    +0.036 C 
ATOM     12  C   UNL     1      12.690   7.074  18.967  0.00  0.00    +0.034 C 
ENDROOT
BRANCH   9   3
ATOM      3  O   UNL     1      11.106   5.405  20.862  0.00  0.00    -0.389 OA
ATOM     28  H   UNL     1      11.674   4.849  20.303  0.00  0.00    +0.210 HD
ENDBRANCH   9   3
BRANCH   8  13
ATOM     13  C   UNL     1      11.602   8.962  22.003  0.00  0.00    +0.115 C 
BRANCH  13   6
ATOM      6  N   UNL     1      10.609  10.005  22.205  0.00  0.00    -0.309 NA
ATOM     27  H   UNL     1       9.817   9.842  21.583  0.00  0.00    +0.122 HD
BRANCH   6  16
ATOM     16  C   UNL     1      11.175  11.323  21.947  0.00  0.00    +0.116 C 
BRANCH  16  18
ATOM      1 CL   UNL     1      10.795  14.904  26.766  0.00  0.00    -0.084 Cl
ATOM     18  C   UNL     1      11.080  12.219  23.152  0.00  0.00    -0.033 A 
ATOM     21  C   UNL     1      10.944  11.664  24.425  0.00  0.00    +0.006 A 
ATOM     22  C   UNL     1      11.126  13.605  22.997  0.00  0.00    +0.006 A 
ATOM     23  C   UNL     1      10.855  12.494  25.542  0.00  0.00    +0.020 A 
ATOM     24  C   UNL     1      11.036  14.435  24.114  0.00  0.00    +0.020 A 
ATOM     25  C   UNL     1      10.902  13.880  25.386  0.00  0.00    +0.041 A 
ENDBRANCH  16  18
ENDBRANCH   6  16
ENDBRANCH  13   6
ENDBRANCH   8  13
BRANCH  10  14
ATOM     14  C   UNL     1      11.335   8.733  17.653  0.00  0.00    +0.090 C 
BRANCH  14  15
ATOM      4  O   UNL     1      13.633   9.561  15.004  0.00  0.00    -0.357 OA
ATOM      7  N   UNL     1      12.537   8.876  15.511  0.00  0.00    -0.083 NA
ATOM     15  C   UNL     1      12.434   9.278  16.781  0.00  0.00    +0.086 A 
ATOM     17  C   UNL     1      13.430  10.207  17.129  0.00  0.00    +0.073 A 
ATOM     19  C   UNL     1      14.158  10.350  15.976  0.00  0.00    +0.163 A 
BRANCH  19  20
ATOM     20  C   UNL     1      15.332  11.150  15.610  0.00  0.00    +0.236 C 
BRANCH  20   5
ATOM      5  O   UNL     1      15.383  12.345  16.394  0.00  0.00    -0.375 OA
ATOM     26  C   UNL     1      14.769  13.429  15.718  0.00  0.00    +0.194 C 
ENDBRANCH  20   5
ENDBRANCH  19  20
ENDBRANCH  14  15
ENDBRANCH  10  14
TORSDOF 9
ENDMDL
MODEL 3
REMARK VINA RESULT:      -6.2     27.105     30.435
REMARK  Name = 75536290
REMARK  10 active torsions:
REMARK  status: ('A' for Active; 'I' for Inactive)
REMARK    1  A    between atoms: O_3  and  C_9
REMARK    2  A    between atoms: O_5  and  C_20
REMARK    3  A    between atoms: O_5  and  C_26
REMARK    4  A    between atoms: N_6  and  C_13
REMARK    5  A    between atoms: N_6  and  C_16
REMARK    6  A    between atoms: C_8  and  C_13
REMARK    7  A    between atoms: C_10  and  C_14
REMARK    8  A    between atoms: C_14  and  C_15
REMARK    9  A    between atoms: C_16  and  C_18
REMARK   10  A    between atoms: C_19  and  C_20
REMARK                            x       y       z     vdW  Elec       q    Type
REMARK                         _______ _______ _______ _____ _____    ______ ____
ROOT
ATOM      2  O   UNL     1     -15.922   2.387  25.022  0.00  0.00    -0.369 OA
ATOM      8  C   UNL     1     -15.953   3.213  23.851  0.00  0.00    +0.161 C 
ATOM      9  C   UNL     1     -17.239   2.993  23.045  0.00  0.00    +0.145 C 
ATOM     10  C   UNL     1     -17.045   2.528  25.896  0.00  0.00    +0.125 C 
ATOM     11  C   UNL     1     -18.490   3.070  23.915  0.00  0.00    +0.036 C 
ATOM     12  C   UNL     1     -18.344   2.201  25.161  0.00  0.00    +0.034 C 
ENDROOT
BRANCH   9   3
ATOM      3  O   UNL     1     -17.196   1.689  22.458  0.00  0.00    -0.389 OA
ATOM     28  H   UNL     1     -16.277   1.519  22.188  0.00  0.00    +0.210 HD
ENDBRANCH   9   3
BRANCH   8  13
ATOM     13  C   UNL     1     -15.716   4.679  24.207  0.00  0.00    +0.115 C 
BRANCH  13   6
ATOM      6  N   UNL     1     -14.366   5.088  23.852  0.00  0.00    -0.309 NA
ATOM     27  H   UNL     1     -14.214   6.051  24.156  0.00  0.00    +0.122 HD
BRANCH   6  16
ATOM     16  C   UNL     1     -14.150   4.987  22.414  0.00  0.00    +0.116 C 
BRANCH  16  18
ATOM      1 CL   UNL     1     -11.571   9.943  20.182  0.00  0.00    -0.084 Cl
ATOM     18  C   UNL     1     -13.505   6.227  21.855  0.00  0.00    -0.033 A 
ATOM     21  C   UNL     1     -12.256   6.147  21.241  0.00  0.00    +0.006 A 
ATOM     22  C   UNL     1     -14.156   7.457  21.955  0.00  0.00    +0.006 A 
ATOM     23  C   UNL     1     -11.657   7.296  20.724  0.00  0.00    +0.020 A 
ATOM     24  C   UNL     1     -13.558   8.606  21.438  0.00  0.00    +0.020 A 
ATOM     25  C   UNL     1     -12.309   8.525  20.822  0.00  0.00    +0.041 A 
ENDBRANCH  16  18
ENDBRANCH   6  16
ENDBRANCH  13   6
ENDBRANCH   8  13
BRANCH  10  14
ATOM     14  C   UNL     1     -16.833   1.582  27.071  0.00  0.00    +0.090 C 
BRANCH  14  15
ATOM      4  O   UNL     1     -15.106   3.790  29.336  0.00  0.00    -0.357 OA
ATOM      7  N   UNL     1     -15.935   3.547  28.248  0.00  0.00    -0.083 NA
ATOM     15  C   UNL     1     -16.004   2.216  28.156  0.00  0.00    +0.086 A 
ATOM     17  C   UNL     1     -15.246   1.572  29.149  0.00  0.00    +0.073 A 
ATOM     19  C   UNL     1     -14.702   2.606  29.864  0.00  0.00    +0.163 A 
BRANCH  19  20
ATOM     20  C   UNL     1     -13.813   2.678  31.030  0.00  0.00    +0.236 C 
BRANCH  20   5
ATOM      5  O   UNL     1     -14.569   2.950  32.214  0.00  0.00    -0.375 OA
ATOM     26  C   UNL     1     -14.860   1.757  32.922  0.00  0.00    +0.194 C 
ENDBRANCH  20   5
ENDBRANCH  19  20
ENDBRANCH  14  15
ENDBRANCH  10  14
TORSDOF 9
ENDMDL
MODEL 4
REMARK VINA RESULT:      -6.1      4.592      6.439
REMARK  Name = 75536290
REMARK  10 active torsions:
REMARK  status: ('A' for Active; 'I' for Inactive)
REMARK    1  A    between atoms: O_3  and  C_9
REMARK    2  A    between atoms: O_5  and  C_20
REMARK    3  A    between atoms: O_5  and  C_26
REMARK    4  A    between atoms: N_6  and  C_13
REMARK    5  A    between atoms: N_6  and  C_16
REMARK    6  A    between atoms: C_8  and  C_13
REMARK    7  A    between atoms: C_10  and  C_14
REMARK    8  A    between atoms: C_14  and  C_15
REMARK    9  A    between atoms: C_16  and  C_18
REMARK   10  A    between atoms: C_19  and  C_20
REMARK                            x       y       z     vdW  Elec       q    Type
REMARK                         _______ _______ _______ _____ _____    ______ ____
ROOT
ATOM      2  O   UNL     1      13.333   8.912  19.669  0.00  0.00    -0.369 OA
ATOM      8  C   UNL     1      12.351   9.364  20.611  0.00  0.00    +0.161 C 
ATOM      9  C   UNL     1      11.159   8.401  20.682  0.00  0.00    +0.145 C 
ATOM     10  C   UNL     1      13.822   7.586  19.889  0.00  0.00    +0.125 C 
ATOM     11  C   UNL     1      11.594   6.949  20.859  0.00  0.00    +0.036 C 
ATOM     12  C   UNL     1      12.676   6.576  19.849  0.00  0.00    +0.034 C 
ENDROOT
BRANCH   9   3
ATOM      3  O   UNL     1      10.423   8.490  19.458  0.00  0.00    -0.389 OA
ATOM     28  H   UNL     1       9.534   8.132  19.624  0.00  0.00    +0.210 HD
ENDBRANCH   9   3
BRANCH   8  13
ATOM     13  C   UNL     1      12.983   9.633  21.975  0.00  0.00    +0.115 C 
BRANCH  13   6
ATOM      6  N   UNL     1      11.979  10.063  22.936  0.00  0.00    -0.309 NA
ATOM     27  H   UNL     1      11.246   9.356  22.997  0.00  0.00    +0.122 HD
BRANCH   6  16
ATOM     16  C   UNL     1      11.398  11.342  22.547  0.00  0.00    +0.116 C 
BRANCH  16  18
ATOM      1 CL   UNL     1      11.154  15.184  27.171  0.00  0.00    -0.084 Cl
ATOM     18  C   UNL     1      11.336  12.304  23.704  0.00  0.00    -0.033 A 
ATOM     21  C   UNL     1      12.260  12.202  24.745  0.00  0.00    +0.006 A 
ATOM     22  C   UNL     1      10.355  13.294  23.737  0.00  0.00    +0.006 A 
ATOM     23  C   UNL     1      12.203  13.092  25.817  0.00  0.00    +0.020 A 
ATOM     24  C   UNL     1      10.297  14.184  24.809  0.00  0.00    +0.020 A 
ATOM     25  C   UNL     1      11.222  14.084  25.849  0.00  0.00    +0.041 A 
ENDBRANCH  16  18
ENDBRANCH   6  16
ENDBRANCH  13   6
ENDBRANCH   8  13
BRANCH  10  14
ATOM     14  C   UNL     1      14.845   7.288  18.801  0.00  0.00    +0.090 C 
BRANCH  14  15
ATOM      4  O   UNL     1      17.955   5.646  19.584  0.00  0.00    -0.357 OA
ATOM      7  N   UNL     1      16.805   5.802  18.821  0.00  0.00    -0.083 NA
ATOM     15  C   UNL     1      16.157   6.829  19.378  0.00  0.00    +0.086 A 
ATOM     17  C   UNL     1      16.843   7.354  20.487  0.00  0.00    +0.073 A 
ATOM     19  C   UNL     1      17.966   6.575  20.574  0.00  0.00    +0.163 A 
BRANCH  19  20
ATOM     20  C   UNL     1      19.119   6.553  21.481  0.00  0.00    +0.236 C 
BRANCH  20   5
ATOM      5  O   UNL     1      19.171   7.760  22.247  0.00  0.00    -0.375 OA
ATOM     26  C   UNL     1      20.304   7.779  23.099  0.00  0.00    +0.194 C 
ENDBRANCH  20   5
ENDBRANCH  19  20
ENDBRANCH  14  15
ENDBRANCH  10  14
TORSDOF 9
ENDMDL
MODEL 5
REMARK VINA RESULT:      -6.0     27.631     30.887
REMARK  Name = 75536290
REMARK  10 active torsions:
REMARK  status: ('A' for Active; 'I' for Inactive)
REMARK    1  A    between atoms: O_3  and  C_9
REMARK    2  A    between atoms: O_5  and  C_20
REMARK    3  A    between atoms: O_5  and  C_26
REMARK    4  A    between atoms: N_6  and  C_13
REMARK    5  A    between atoms: N_6  and  C_16
REMARK    6  A    between atoms: C_8  and  C_13
REMARK    7  A    between atoms: C_10  and  C_14
REMARK    8  A    between atoms: C_14  and  C_15
REMARK    9  A    between atoms: C_16  and  C_18
REMARK   10  A    between atoms: C_19  and  C_20
REMARK                            x       y       z     vdW  Elec       q    Type
REMARK                         _______ _______ _______ _____ _____    ______ ____
ROOT
ATOM      2  O   UNL     1     -16.467   2.552  23.456  0.00  0.00    -0.369 OA
ATOM      8  C   UNL     1     -16.149   3.869  22.987  0.00  0.00    +0.161 C 
ATOM      9  C   UNL     1     -17.338   4.503  22.254  0.00  0.00    +0.145 C 
ATOM     10  C   UNL     1     -17.624   2.468  24.293  0.00  0.00    +0.125 C 
ATOM     11  C   UNL     1     -18.634   4.406  23.055  0.00  0.00    +0.036 C 
ATOM     12  C   UNL     1     -18.860   2.981  23.556  0.00  0.00    +0.034 C 
ENDROOT
BRANCH   9   3
ATOM      3  O   UNL     1     -17.537   3.813  21.016  0.00  0.00    -0.389 OA
ATOM     28  H   UNL     1     -17.322   2.877  21.165  0.00  0.00    +0.210 HD
ENDBRANCH   9   3
BRANCH   8  13
ATOM     13  C   UNL     1     -15.612   4.742  24.120  0.00  0.00    +0.115 C 
BRANCH  13   6
ATOM      6  N   UNL     1     -14.302   5.277  23.786  0.00  0.00    -0.309 NA
ATOM     27  H   UNL     1     -14.311   6.290  23.909  0.00  0.00    +0.122 HD
BRANCH   6  16
ATOM     16  C   UNL     1     -13.937   4.951  22.413  0.00  0.00    +0.116 C 
BRANCH  16  18
ATOM      1 CL   UNL     1     -11.850   9.753  19.451  0.00  0.00    -0.084 Cl
ATOM     18  C   UNL     1     -13.415   6.152  21.672  0.00  0.00    -0.033 A 
ATOM     21  C   UNL     1     -14.262   7.227  21.401  0.00  0.00    +0.006 A 
ATOM     22  C   UNL     1     -12.084   6.191  21.255  0.00  0.00    +0.006 A 
ATOM     23  C   UNL     1     -13.778   8.340  20.713  0.00  0.00    +0.020 A 
ATOM     24  C   UNL     1     -11.600   7.303  20.567  0.00  0.00    +0.020 A 
ATOM     25  C   UNL     1     -12.447   8.378  20.297  0.00  0.00    +0.041 A 
ENDBRANCH  16  18
ENDBRANCH   6  16
ENDBRANCH  13   6
ENDBRANCH   8  13
BRANCH  10  14
ATOM     14  C   UNL     1     -17.797   1.007  24.689  0.00  0.00    +0.090 C 
BRANCH  14  15
ATOM      4  O   UNL     1     -17.938   0.035  28.155  0.00  0.00    -0.357 OA
ATOM      7  N   UNL     1     -18.412   0.006  26.850  0.00  0.00    -0.083 NA
ATOM     15  C   UNL     1     -17.584   0.799  26.164  0.00  0.00    +0.086 A 
ATOM     17  C   UNL     1     -16.578   1.351  26.977  0.00  0.00    +0.073 A 
ATOM     19  C   UNL     1     -16.847   0.839  28.219  0.00  0.00    +0.163 A 
BRANCH  19  20
ATOM     20  C   UNL     1     -16.214   0.984  29.535  0.00  0.00    +0.236 C 
BRANCH  20   5
ATOM      5  O   UNL     1     -15.409  -0.161  29.827  0.00  0.00    -0.375 OA
ATOM     26  C   UNL     1     -14.219   0.208  30.505  0.00  0.00    +0.194 C 
ENDBRANCH  20   5
ENDBRANCH  19  20
ENDBRANCH  14  15
ENDBRANCH  10  14
TORSDOF 9
ENDMDL
MODEL 6
REMARK VINA RESULT:      -5.8     17.319     20.112
REMARK  Name = 75536290
REMARK  10 active torsions:
REMARK  status: ('A' for Active; 'I' for Inactive)
REMARK    1  A    between atoms: O_3  and  C_9
REMARK    2  A    between atoms: O_5  and  C_20
REMARK    3  A    between atoms: O_5  and  C_26
REMARK    4  A    between atoms: N_6  and  C_13
REMARK    5  A    between atoms: N_6  and  C_16
REMARK    6  A    between atoms: C_8  and  C_13
REMARK    7  A    between atoms: C_10  and  C_14
REMARK    8  A    between atoms: C_14  and  C_15
REMARK    9  A    between atoms: C_16  and  C_18
REMARK   10  A    between atoms: C_19  and  C_20
REMARK                            x       y       z     vdW  Elec       q    Type
REMARK                         _______ _______ _______ _____ _____    ______ ____
ROOT
ATOM      2  O   UNL     1      12.790   2.924   0.555  0.00  0.00    -0.369 OA
ATOM      8  C   UNL     1      13.130   3.759   1.670  0.00  0.00    +0.161 C 
ATOM      9  C   UNL     1      14.575   4.263   1.571  0.00  0.00    +0.145 C 
ATOM     10  C   UNL     1      12.986   3.518  -0.731  0.00  0.00    +0.125 C 
ATOM     11  C   UNL     1      14.889   4.864   0.204  0.00  0.00    +0.036 C 
ATOM     12  C   UNL     1      14.446   3.929  -0.918  0.00  0.00    +0.034 C 
ENDROOT
BRANCH   9   3
ATOM      3  O   UNL     1      15.463   3.160   1.777  0.00  0.00    -0.389 OA
ATOM     28  H   UNL     1      16.356   3.451   1.526  0.00  0.00    +0.210 HD
ENDBRANCH   9   3
BRANCH   8  13
ATOM     13  C   UNL     1      12.115   4.888   1.841  0.00  0.00    +0.115 C 
BRANCH  13   6
ATOM      6  N   UNL     1      11.980   5.257   3.241  0.00  0.00    -0.309 NA
ATOM     27  H   UNL     1      12.719   4.807   3.781  0.00  0.00    +0.122 HD
BRANCH   6  16
ATOM     16  C   UNL     1      10.677   4.861   3.763  0.00  0.00    +0.116 C 
BRANCH  16  18
ATOM      1 CL   UNL     1       6.950   9.557   4.268  0.00  0.00    -0.084 Cl
ATOM     18  C   UNL     1       9.745   6.036   3.890  0.00  0.00    -0.033 A 
ATOM     21  C   UNL     1       9.605   6.933   2.830  0.00  0.00    +0.006 A 
ATOM     22  C   UNL     1       9.022   6.230   5.067  0.00  0.00    +0.006 A 
ATOM     23  C   UNL     1       8.741   8.022   2.947  0.00  0.00    +0.020 A 
ATOM     24  C   UNL     1       8.159   7.318   5.185  0.00  0.00    +0.020 A 
ATOM     25  C   UNL     1       8.018   8.214   4.125  0.00  0.00    +0.041 A 
ENDBRANCH  16  18
ENDBRANCH   6  16
ENDBRANCH  13   6
ENDBRANCH   8  13
BRANCH  10  14
ATOM     14  C   UNL     1      12.573   2.490  -1.777  0.00  0.00    +0.090 C 
BRANCH  14  15
ATOM      4  O   UNL     1       9.313   2.604  -3.307  0.00  0.00    -0.357 OA
ATOM      7  N   UNL     1      10.359   1.930  -2.691  0.00  0.00    -0.083 NA
ATOM     15  C   UNL     1      11.281   2.867  -2.450  0.00  0.00    +0.086 A 
ATOM     17  C   UNL     1      10.876   4.139  -2.890  0.00  0.00    +0.073 A 
ATOM     19  C   UNL     1       9.632   3.919  -3.420  0.00  0.00    +0.163 A 
BRANCH  19  20
ATOM     20  C   UNL     1       8.631   4.785  -4.054  0.00  0.00    +0.236 C 
BRANCH  20   5
ATOM      5  O   UNL     1       9.131   5.299  -5.291  0.00  0.00    -0.375 OA
ATOM     26  C   UNL     1       8.328   4.883  -6.382  0.00  0.00    +0.194 C 
ENDBRANCH  20   5
ENDBRANCH  19  20
ENDBRANCH  14  15
ENDBRANCH  10  14
TORSDOF 9
ENDMDL
MODEL 7
REMARK VINA RESULT:      -5.8     26.752     28.745
REMARK  Name = 75536290
REMARK  10 active torsions:
REMARK  status: ('A' for Active; 'I' for Inactive)
REMARK    1  A    between atoms: O_3  and  C_9
REMARK    2  A    between atoms: O_5  and  C_20
REMARK    3  A    between atoms: O_5  and  C_26
REMARK    4  A    between atoms: N_6  and  C_13
REMARK    5  A    between atoms: N_6  and  C_16
REMARK    6  A    between atoms: C_8  and  C_13
REMARK    7  A    between atoms: C_10  and  C_14
REMARK    8  A    between atoms: C_14  and  C_15
REMARK    9  A    between atoms: C_16  and  C_18
REMARK   10  A    between atoms: C_19  and  C_20
REMARK                            x       y       z     vdW  Elec       q    Type
REMARK                         _______ _______ _______ _____ _____    ______ ____
ROOT
ATOM      2  O   UNL     1      -4.271 -12.632  16.483  0.00  0.00    -0.369 OA
ATOM      8  C   UNL     1      -4.157 -12.522  15.059  0.00  0.00    +0.161 C 
ATOM      9  C   UNL     1      -5.140 -11.486  14.498  0.00  0.00    +0.145 C 
ATOM     10  C   UNL     1      -4.112 -11.406  17.203  0.00  0.00    +0.125 C 
ATOM     11  C   UNL     1      -5.077 -10.159  15.248  0.00  0.00    +0.036 C 
ATOM     12  C   UNL     1      -5.153 -10.380  16.757  0.00  0.00    +0.034 C 
ENDROOT
BRANCH   9   3
ATOM      3  O   UNL     1      -6.470 -11.998  14.626  0.00  0.00    -0.389 OA
ATOM     28  H   UNL     1      -6.595 -12.668  13.932  0.00  0.00    +0.210 HD
ENDBRANCH   9   3
BRANCH   8  13
ATOM     13  C   UNL     1      -2.711 -12.259  14.641  0.00  0.00    +0.115 C 
BRANCH  13   6
ATOM      6  N   UNL     1      -2.540 -12.454  13.210  0.00  0.00    -0.309 NA
ATOM     27  H   UNL     1      -1.897 -13.230  13.051  0.00  0.00    +0.122 HD
BRANCH   6  16
ATOM     16  C   UNL     1      -2.023 -11.247  12.576  0.00  0.00    +0.116 C 
BRANCH  16  18
ATOM      1 CL   UNL     1      -5.175  -9.776   7.668  0.00  0.00    -0.084 Cl
ATOM     18  C   UNL     1      -2.812 -10.879  11.348  0.00  0.00    -0.033 A 
ATOM     21  C   UNL     1      -3.588 -11.842  10.703  0.00  0.00    +0.006 A 
ATOM     22  C   UNL     1      -2.765  -9.575  10.854  0.00  0.00    +0.006 A 
ATOM     23  C   UNL     1      -4.318 -11.501   9.564  0.00  0.00    +0.020 A 
ATOM     24  C   UNL     1      -3.495  -9.234   9.715  0.00  0.00    +0.020 A 
ATOM     25  C   UNL     1      -4.272 -10.197   9.071  0.00  0.00    +0.041 A 
ENDBRANCH  16  18
ENDBRANCH   6  16
ENDBRANCH  13   6
ENDBRANCH   8  13
BRANCH  10  14
ATOM     14  C   UNL     1      -4.262 -11.722  18.685  0.00  0.00    +0.090 C 
BRANCH  14  15
ATOM      4  O   UNL     1      -7.433 -10.778  20.113  0.00  0.00    -0.357 OA
ATOM      7  N   UNL     1      -6.080 -10.571  19.878  0.00  0.00    -0.083 NA
ATOM     15  C   UNL     1      -5.694 -11.614  19.137  0.00  0.00    +0.086 A 
ATOM     17  C   UNL     1      -6.750 -12.504  18.878  0.00  0.00    +0.073 A 
ATOM     19  C   UNL     1      -7.821 -11.932  19.514  0.00  0.00    +0.163 A 
BRANCH  19  20
ATOM     20  C   UNL     1      -9.231 -12.307  19.663  0.00  0.00    +0.236 C 
BRANCH  20   5
ATOM      5  O   UNL     1      -9.932 -11.313  20.414  0.00  0.00    -0.375 OA
ATOM     26  C   UNL     1     -11.246 -11.123  19.914  0.00  0.00    +0.194 C 
ENDBRANCH  20   5
ENDBRANCH  19  20
ENDBRANCH  14  15
ENDBRANCH  10  14
TORSDOF 9
ENDMDL
MODEL 8
REMARK VINA RESULT:      -5.7     24.694     27.501
REMARK  Name = 75536290
REMARK  10 active torsions:
REMARK  status: ('A' for Active; 'I' for Inactive)
REMARK    1  A    between atoms: O_3  and  C_9
REMARK    2  A    between atoms: O_5  and  C_20
REMARK    3  A    between atoms: O_5  and  C_26
REMARK    4  A    between atoms: N_6  and  C_13
REMARK    5  A    between atoms: N_6  and  C_16
REMARK    6  A    between atoms: C_8  and  C_13
REMARK    7  A    between atoms: C_10  and  C_14
REMARK    8  A    between atoms: C_14  and  C_15
REMARK    9  A    between atoms: C_16  and  C_18
REMARK   10  A    between atoms: C_19  and  C_20
REMARK                            x       y       z     vdW  Elec       q    Type
REMARK                         _______ _______ _______ _____ _____    ______ ____
ROOT
ATOM      2  O   UNL     1     -11.219   9.390  19.845  0.00  0.00    -0.369 OA
ATOM      8  C   UNL     1     -11.231  10.276  18.718  0.00  0.00    +0.161 C 
ATOM      9  C   UNL     1     -10.637   9.606  17.473  0.00  0.00    +0.145 C 
ATOM     10  C   UNL     1     -11.873   8.135  19.639  0.00  0.00    +0.125 C 
ATOM     11  C   UNL     1     -11.241   8.229  17.210  0.00  0.00    +0.036 C 
ATOM     12  C   UNL     1     -11.232   7.377  18.477  0.00  0.00    +0.034 C 
ENDROOT
BRANCH   9   3
ATOM      3  O   UNL     1      -9.230   9.435  17.670  0.00  0.00    -0.389 OA
ATOM     28  H   UNL     1      -9.077   9.344  18.626  0.00  0.00    +0.210 HD
ENDBRANCH   9   3
BRANCH   8  13
ATOM     13  C   UNL     1     -12.630  10.843  18.480  0.00  0.00    +0.115 C 
BRANCH  13   6
ATOM      6  N   UNL     1     -13.046  11.682  19.593  0.00  0.00    -0.309 NA
ATOM     27  H   UNL     1     -12.245  11.858  20.200  0.00  0.00    +0.122 HD
BRANCH   6  16
ATOM     16  C   UNL     1     -14.112  11.047  20.357  0.00  0.00    +0.116 C 
BRANCH  16  18
ATOM      1 CL   UNL     1     -12.569  10.257  26.118  0.00  0.00    -0.084 Cl
ATOM     18  C   UNL     1     -13.727  10.849  21.798  0.00  0.00    -0.033 A 
ATOM     21  C   UNL     1     -12.587  11.472  22.307  0.00  0.00    +0.006 A 
ATOM     22  C   UNL     1     -14.507  10.040  22.625  0.00  0.00    +0.006 A 
ATOM     23  C   UNL     1     -12.229  11.289  23.642  0.00  0.00    +0.020 A 
ATOM     24  C   UNL     1     -14.149   9.856  23.960  0.00  0.00    +0.020 A 
ATOM     25  C   UNL     1     -13.010  10.481  24.469  0.00  0.00    +0.041 A 
ENDBRANCH  16  18
ENDBRANCH   6  16
ENDBRANCH  13   6
ENDBRANCH   8  13
BRANCH  10  14
ATOM     14  C   UNL     1     -11.758   7.340  20.934  0.00  0.00    +0.090 C 
BRANCH  14  15
ATOM      4  O   UNL     1     -14.246   4.984  22.048  0.00  0.00    -0.357 OA
ATOM      7  N   UNL     1     -12.945   5.466  21.997  0.00  0.00    -0.083 NA
ATOM     15  C   UNL     1     -13.006   6.547  21.215  0.00  0.00    +0.086 A 
ATOM     17  C   UNL     1     -14.309   6.794  20.746  0.00  0.00    +0.073 A 
ATOM     19  C   UNL     1     -15.049   5.782  21.299  0.00  0.00    +0.163 A 
BRANCH  19  20
ATOM     20  C   UNL     1     -16.469   5.415  21.241  0.00  0.00    +0.236 C 
BRANCH  20   5
ATOM      5  O   UNL     1     -16.736   4.649  20.063  0.00  0.00    -0.375 OA
ATOM     26  C   UNL     1     -18.011   4.960  19.526  0.00  0.00    +0.194 C 
ENDBRANCH  20   5
ENDBRANCH  19  20
ENDBRANCH  14  15
ENDBRANCH  10  14
TORSDOF 9
ENDMDL
MODEL 9
REMARK VINA RESULT:      -5.7     25.989     28.403
REMARK  Name = 75536290
REMARK  10 active torsions:
REMARK  status: ('A' for Active; 'I' for Inactive)
REMARK    1  A    between atoms: O_3  and  C_9
REMARK    2  A    between atoms: O_5  and  C_20
REMARK    3  A    between atoms: O_5  and  C_26
REMARK    4  A    between atoms: N_6  and  C_13
REMARK    5  A    between atoms: N_6  and  C_16
REMARK    6  A    between atoms: C_8  and  C_13
REMARK    7  A    between atoms: C_10  and  C_14
REMARK    8  A    between atoms: C_14  and  C_15
REMARK    9  A    between atoms: C_16  and  C_18
REMARK   10  A    between atoms: C_19  and  C_20
REMARK                            x       y       z     vdW  Elec       q    Type
REMARK                         _______ _______ _______ _____ _____    ______ ____
ROOT
ATOM      2  O   UNL     1      -6.598 -11.461  16.794  0.00  0.00    -0.369 OA
ATOM      8  C   UNL     1      -7.511 -10.625  17.516  0.00  0.00    +0.161 C 
ATOM      9  C   UNL     1      -7.303 -10.749  19.031  0.00  0.00    +0.145 C 
ATOM     10  C   UNL     1      -5.215 -11.250  17.090  0.00  0.00    +0.125 C 
ATOM     11  C   UNL     1      -5.839 -10.593  19.432  0.00  0.00    +0.036 C 
ATOM     12  C   UNL     1      -4.940 -11.481  18.575  0.00  0.00    +0.034 C 
ENDROOT
BRANCH   9   3
ATOM      3  O   UNL     1      -7.734 -12.048  19.449  0.00  0.00    -0.389 OA
ATOM     28  H   UNL     1      -6.975 -12.649  19.366  0.00  0.00    +0.210 HD
ENDBRANCH   9   3
BRANCH   8  13
ATOM     13  C   UNL     1      -7.443  -9.182  17.021  0.00  0.00    +0.115 C 
BRANCH  13   6
ATOM      6  N   UNL     1      -8.670  -8.810  16.335  0.00  0.00    -0.309 NA
ATOM     27  H   UNL     1      -8.443  -8.222  15.532  0.00  0.00    +0.122 HD
BRANCH   6  16
ATOM     16  C   UNL     1      -9.573  -8.094  17.229  0.00  0.00    +0.116 C 
BRANCH  16  18
ATOM      1 CL   UNL     1     -14.262  -5.759  14.270  0.00  0.00    -0.084 Cl
ATOM     18  C   UNL     1     -10.746  -7.510  16.488  0.00  0.00    -0.033 A 
ATOM     21  C   UNL     1     -10.569  -6.394  15.670  0.00  0.00    +0.006 A 
ATOM     22  C   UNL     1     -12.011  -8.082  16.622  0.00  0.00    +0.006 A 
ATOM     23  C   UNL     1     -11.656  -5.852  14.984  0.00  0.00    +0.020 A 
ATOM     24  C   UNL     1     -13.098  -7.541  15.938  0.00  0.00    +0.020 A 
ATOM     25  C   UNL     1     -12.920  -6.426  15.118  0.00  0.00    +0.041 A 
ENDBRANCH  16  18
ENDBRANCH   6  16
ENDBRANCH  13   6
ENDBRANCH   8  13
BRANCH  10  14
ATOM     14  C   UNL     1      -4.409 -12.218  16.233  0.00  0.00    +0.090 C 
BRANCH  14  15
ATOM      4  O   UNL     1      -1.764 -10.273  14.749  0.00  0.00    -0.357 OA
ATOM      7  N   UNL     1      -2.437 -10.800  15.843  0.00  0.00    -0.083 NA
ATOM     15  C   UNL     1      -3.452 -11.496  15.323  0.00  0.00    +0.086 A 
ATOM     17  C   UNL     1      -3.471 -11.443  13.918  0.00  0.00    +0.073 A 
ATOM     19  C   UNL     1      -2.389 -10.662  13.608  0.00  0.00    +0.163 A 
BRANCH  19  20
ATOM     20  C   UNL     1      -1.805 -10.190  12.347  0.00  0.00    +0.236 C 
BRANCH  20   5
ATOM      5  O   UNL     1      -2.552 -10.694  11.236  0.00  0.00    -0.375 OA
ATOM     26  C   UNL     1      -3.117  -9.638  10.476  0.00  0.00    +0.194 C 
ENDBRANCH  20   5
ENDBRANCH  19  20
ENDBRANCH  14  15
ENDBRANCH  10  14
TORSDOF 9
ENDMDL
MODEL 10
REMARK VINA RESULT:      -5.6     26.065     28.259
REMARK  Name = 75536290
REMARK  10 active torsions:
REMARK  status: ('A' for Active; 'I' for Inactive)
REMARK    1  A    between atoms: O_3  and  C_9
REMARK    2  A    between atoms: O_5  and  C_20
REMARK    3  A    between atoms: O_5  and  C_26
REMARK    4  A    between atoms: N_6  and  C_13
REMARK    5  A    between atoms: N_6  and  C_16
REMARK    6  A    between atoms: C_8  and  C_13
REMARK    7  A    between atoms: C_10  and  C_14
REMARK    8  A    between atoms: C_14  and  C_15
REMARK    9  A    between atoms: C_16  and  C_18
REMARK   10  A    between atoms: C_19  and  C_20
REMARK                            x       y       z     vdW  Elec       q    Type
REMARK                         _______ _______ _______ _____ _____    ______ ____
ROOT
ATOM      2  O   UNL     1      -3.000 -11.420  16.193  0.00  0.00    -0.369 OA
ATOM      8  C   UNL     1      -2.409 -11.829  14.952  0.00  0.00    +0.161 C 
ATOM      9  C   UNL     1      -3.174 -13.005  14.330  0.00  0.00    +0.145 C 
ATOM     10  C   UNL     1      -4.388 -11.083  16.123  0.00  0.00    +0.125 C 
ATOM     11  C   UNL     1      -4.678 -12.753  14.269  0.00  0.00    +0.036 C 
ATOM     12  C   UNL     1      -5.206 -12.271  15.618  0.00  0.00    +0.034 C 
ENDROOT
BRANCH   9   3
ATOM      3  O   UNL     1      -2.959 -14.170  15.132  0.00  0.00    -0.389 OA
ATOM     28  H   UNL     1      -3.831 -14.521  15.380  0.00  0.00    +0.210 HD
ENDBRANCH   9   3
BRANCH   8  13
ATOM     13  C   UNL     1      -2.257 -10.646  13.999  0.00  0.00    +0.115 C 
BRANCH  13   6
ATOM      6  N   UNL     1      -1.832 -11.092  12.681  0.00  0.00    -0.309 NA
ATOM     27  H   UNL     1      -0.891 -11.480  12.744  0.00  0.00    +0.122 HD
BRANCH   6  16
ATOM     16  C   UNL     1      -1.847  -9.990  11.727  0.00  0.00    +0.116 C 
BRANCH  16  18
ATOM      1 CL   UNL     1      -6.286 -10.575   7.708  0.00  0.00    -0.084 Cl
ATOM     18  C   UNL     1      -2.957 -10.136  10.721  0.00  0.00    -0.033 A 
ATOM     21  C   UNL     1      -3.581 -11.372  10.545  0.00  0.00    +0.006 A 
ATOM     22  C   UNL     1      -3.362  -9.037   9.963  0.00  0.00    +0.006 A 
ATOM     23  C   UNL     1      -4.610 -11.508   9.613  0.00  0.00    +0.020 A 
ATOM     24  C   UNL     1      -4.390  -9.172   9.031  0.00  0.00    +0.020 A 
ATOM     25  C   UNL     1      -5.014 -10.408   8.857  0.00  0.00    +0.041 A 
ENDBRANCH  16  18
ENDBRANCH   6  16
ENDBRANCH  13   6
ENDBRANCH   8  13
BRANCH  10  14
ATOM     14  C   UNL     1      -4.831 -10.676  17.523  0.00  0.00    +0.090 C 
BRANCH  14  15
ATOM      4  O   UNL     1      -8.293  -9.952  18.214  0.00  0.00    -0.357 OA
ATOM      7  N   UNL     1      -7.091 -10.590  18.492  0.00  0.00    -0.083 NA
ATOM     15  C   UNL     1      -6.252 -10.179  17.537  0.00  0.00    +0.086 A 
ATOM     17  C   UNL     1      -6.864  -9.290  16.635  0.00  0.00    +0.073 A 
ATOM     19  C   UNL     1      -8.146  -9.181  17.106  0.00  0.00    +0.163 A 
BRANCH  19  20
ATOM     20  C   UNL     1      -9.328  -8.431  16.667  0.00  0.00    +0.236 C 
BRANCH  20   5
ATOM      5  O   UNL     1     -10.323  -8.427  17.695  0.00  0.00    -0.375 OA
ATOM     26  C   UNL     1     -11.562  -8.919  17.212  0.00  0.00    +0.194 C 
ENDBRANCH  20   5
ENDBRANCH  19  20
ENDBRANCH  14  15
ENDBRANCH  10  14
TORSDOF 9
ENDMDL
