MODEL 1
REMARK VINA RESULT:      -5.9      0.000      0.000
REMARK  Name = 75367066
REMARK  6 active torsions:
REMARK  status: ('A' for Active; 'I' for Inactive)
REMARK    1  A    between atoms: O_2  and  C_8
REMARK    2  A    between atoms: N_4  and  C_7
REMARK    3  A    between atoms: N_4  and  C_11
REMARK    4  A    between atoms: N_5  and  C_15
REMARK    5  A    between atoms: C_9  and  C_15
REMARK    6  A    between atoms: C_10  and  C_18
REMARK                            x       y       z     vdW  Elec       q    Type
REMARK                         _______ _______ _______ _____ _____    ______ ____
ROOT
ATOM      1  O   UNL     1      11.555   6.921  20.566  0.00  0.00    -0.371 OA
ATOM      7  C   UNL     1      13.928   7.005  20.562  0.00  0.00    +0.111 C 
ATOM      8  C   UNL     1      13.392   8.208  21.316  0.00  0.00    +0.164 C 
ATOM      9  C   UNL     1      11.990   7.730  21.671  0.00  0.00    +0.165 C 
ATOM     14  C   UNL     1      12.703   6.574  19.773  0.00  0.00    +0.181 C 
ENDROOT
BRANCH   8   2
ATOM      2  O   UNL     1      14.153   8.514  22.468  0.00  0.00    -0.388 OA
ATOM     24  H   UNL     1      13.961   7.845  23.148  0.00  0.00    +0.210 HD
ENDBRANCH   8   2
BRANCH   7   4
ATOM      4  N   UNL     1      15.070   7.309  19.715  0.00  0.00    -0.306 NA
ATOM     21  H   UNL     1      15.256   8.311  19.723  0.00  0.00    +0.123 HD
BRANCH   4  11
ATOM      6  N   UNL     1      19.163   6.214  20.105  0.00  0.00    -0.316 NA
ATOM     11  C   UNL     1      16.255   6.581  20.161  0.00  0.00    +0.056 C 
ATOM     16  C   UNL     1      17.210   7.505  20.927  0.00  0.00    +0.034 C 
ATOM     17  C   UNL     1      16.976   5.954  18.963  0.00  0.00    +0.034 C 
ATOM     19  C   UNL     1      18.503   6.772  21.288  0.00  0.00    +0.082 C 
ATOM     20  C   UNL     1      18.277   5.282  19.401  0.00  0.00    +0.082 C 
ATOM     23  H   UNL     1      20.008   5.723  20.392  0.00  0.00    +0.122 HD
ENDBRANCH   4  11
ENDBRANCH   7   4
BRANCH   9  15
ATOM     15  C   UNL     1      11.008   8.866  21.895  0.00  0.00    +0.138 C 
BRANCH  15   5
ATOM      3  O   UNL     1      11.149  11.770  21.831  0.00  0.00    -0.276 OA
ATOM      5  N   UNL     1      11.454   9.744  22.940  0.00  0.00    -0.313 N 
ATOM     18  C   UNL     1      11.485  11.125  22.817  0.00  0.00    +0.216 C 
ATOM     22  H   UNL     1      11.745   9.323  23.817  0.00  0.00    +0.149 HD
BRANCH  18  10
ATOM     10  C   UNL     1      11.983  11.841  24.029  0.00  0.00    +0.075 C 
ATOM     12  C   UNL     1      11.164  11.783  25.276  0.00  0.00    +0.013 C 
ATOM     13  C   UNL     1      11.251  13.057  24.489  0.00  0.00    +0.013 C 
ENDBRANCH  18  10
ENDBRANCH  15   5
ENDBRANCH   9  15
TORSDOF 6
ENDMDL
MODEL 2
REMARK VINA RESULT:      -5.9     26.043     27.957
REMARK  Name = 75367066
REMARK  6 active torsions:
REMARK  status: ('A' for Active; 'I' for Inactive)
REMARK    1  A    between atoms: O_2  and  C_8
REMARK    2  A    between atoms: N_4  and  C_7
REMARK    3  A    between atoms: N_4  and  C_11
REMARK    4  A    between atoms: N_5  and  C_15
REMARK    5  A    between atoms: C_9  and  C_15
REMARK    6  A    between atoms: C_10  and  C_18
REMARK                            x       y       z     vdW  Elec       q    Type
REMARK                         _______ _______ _______ _____ _____    ______ ____
ROOT
ATOM      1  O   UNL     1      -1.439 -11.298  15.174  0.00  0.00    -0.371 OA
ATOM      7  C   UNL     1      -3.624 -10.953  16.039  0.00  0.00    +0.111 C 
ATOM      8  C   UNL     1      -3.695 -11.008  14.524  0.00  0.00    +0.164 C 
ATOM      9  C   UNL     1      -2.398 -11.736  14.197  0.00  0.00    +0.165 C 
ATOM     14  C   UNL     1      -2.147 -10.676  16.262  0.00  0.00    +0.181 C 
ENDROOT
BRANCH   8   2
ATOM      2  O   UNL     1      -4.828 -11.713  14.056  0.00  0.00    -0.388 OA
ATOM     24  H   UNL     1      -5.430 -11.858  14.806  0.00  0.00    +0.210 HD
ENDBRANCH   8   2
BRANCH   7   4
ATOM      4  N   UNL     1      -4.485  -9.939  16.627  0.00  0.00    -0.306 NA
ATOM     21  H   UNL     1      -4.863  -9.334  15.899  0.00  0.00    +0.123 HD
BRANCH   4  11
ATOM      6  N   UNL     1      -7.517 -10.444  19.570  0.00  0.00    -0.316 NA
ATOM     11  C   UNL     1      -5.578 -10.557  17.374  0.00  0.00    +0.056 C 
ATOM     16  C   UNL     1      -6.847  -9.700  17.299  0.00  0.00    +0.034 C 
ATOM     17  C   UNL     1      -5.169 -10.768  18.836  0.00  0.00    +0.034 C 
ATOM     19  C   UNL     1      -7.952 -10.286  18.179  0.00  0.00    +0.082 C 
ATOM     20  C   UNL     1      -6.340 -11.313  19.655  0.00  0.00    +0.082 C 
ATOM     23  H   UNL     1      -8.275 -10.850  20.116  0.00  0.00    +0.122 HD
ENDBRANCH   4  11
ENDBRANCH   7   4
BRANCH   9  15
ATOM     15  C   UNL     1      -1.880 -11.439  12.801  0.00  0.00    +0.138 C 
BRANCH  15   5
ATOM      3  O   UNL     1      -1.901  -9.345  10.783  0.00  0.00    -0.276 OA
ATOM      5  N   UNL     1      -2.950 -11.095  11.909  0.00  0.00    -0.313 N 
ATOM     18  C   UNL     1      -2.868 -10.074  10.973  0.00  0.00    +0.216 C 
ATOM     22  H   UNL     1      -3.804 -11.643  11.962  0.00  0.00    +0.149 HD
BRANCH  18  10
ATOM     10  C   UNL     1      -4.099  -9.893  10.149  0.00  0.00    +0.075 C 
ATOM     12  C   UNL     1      -4.118  -8.804   9.127  0.00  0.00    +0.013 C 
ATOM     13  C   UNL     1      -4.937  -8.680  10.377  0.00  0.00    +0.013 C 
ENDBRANCH  18  10
ENDBRANCH  15   5
ENDBRANCH   9  15
TORSDOF 6
ENDMDL
MODEL 3
REMARK VINA RESULT:      -5.8      2.343      3.294
REMARK  Name = 75367066
REMARK  6 active torsions:
REMARK  status: ('A' for Active; 'I' for Inactive)
REMARK    1  A    between atoms: O_2  and  C_8
REMARK    2  A    between atoms: N_4  and  C_7
REMARK    3  A    between atoms: N_4  and  C_11
REMARK    4  A    between atoms: N_5  and  C_15
REMARK    5  A    between atoms: C_9  and  C_15
REMARK    6  A    between atoms: C_10  and  C_18
REMARK                            x       y       z     vdW  Elec       q    Type
REMARK                         _______ _______ _______ _____ _____    ______ ____
ROOT
ATOM      1  O   UNL     1      11.309   6.750  20.743  0.00  0.00    -0.371 OA
ATOM      7  C   UNL     1      13.646   7.066  20.462  0.00  0.00    +0.111 C 
ATOM      8  C   UNL     1      13.100   8.171  21.348  0.00  0.00    +0.164 C 
ATOM      9  C   UNL     1      11.803   7.540  21.837  0.00  0.00    +0.165 C 
ATOM     14  C   UNL     1      12.377   6.558  19.798  0.00  0.00    +0.181 C 
ENDROOT
BRANCH   8   2
ATOM      2  O   UNL     1      13.968   8.490  22.419  0.00  0.00    -0.388 OA
ATOM     24  H   UNL     1      14.700   9.026  22.069  0.00  0.00    +0.210 HD
ENDBRANCH   8   2
BRANCH   7   4
ATOM      4  N   UNL     1      14.640   7.523  19.505  0.00  0.00    -0.306 NA
ATOM     21  H   UNL     1      15.065   6.725  19.033  0.00  0.00    +0.123 HD
BRANCH   4  11
ATOM      6  N   UNL     1      14.327  10.139  16.164  0.00  0.00    -0.316 NA
ATOM     11  C   UNL     1      14.040   8.419  18.520  0.00  0.00    +0.056 C 
ATOM     16  C   UNL     1      14.174   7.848  17.104  0.00  0.00    +0.034 C 
ATOM     17  C   UNL     1      14.692   9.804  18.595  0.00  0.00    +0.034 C 
ATOM     19  C   UNL     1      13.653   8.841  16.065  0.00  0.00    +0.082 C 
ATOM     20  C   UNL     1      14.151  10.720  17.497  0.00  0.00    +0.082 C 
ATOM     23  H   UNL     1      13.940  10.773  15.466  0.00  0.00    +0.122 HD
ENDBRANCH   4  11
ENDBRANCH   7   4
BRANCH   9  15
ATOM     15  C   UNL     1      10.757   8.561  22.247  0.00  0.00    +0.138 C 
BRANCH  15   5
ATOM      3  O   UNL     1      11.034  11.453  22.130  0.00  0.00    -0.276 OA
ATOM      5  N   UNL     1      11.253   9.434  23.272  0.00  0.00    -0.313 N 
ATOM     18  C   UNL     1      11.349  10.811  23.124  0.00  0.00    +0.216 C 
ATOM     22  H   UNL     1      11.532   9.016  24.155  0.00  0.00    +0.149 HD
BRANCH  18  10
ATOM     10  C   UNL     1      11.891  11.523  24.319  0.00  0.00    +0.075 C 
ATOM     12  C   UNL     1      10.927  12.070  25.320  0.00  0.00    +0.013 C 
ATOM     13  C   UNL     1      11.691  12.998  24.422  0.00  0.00    +0.013 C 
ENDBRANCH  18  10
ENDBRANCH  15   5
ENDBRANCH   9  15
TORSDOF 6
ENDMDL
MODEL 4
REMARK VINA RESULT:      -5.5     26.684     28.174
REMARK  Name = 75367066
REMARK  6 active torsions:
REMARK  status: ('A' for Active; 'I' for Inactive)
REMARK    1  A    between atoms: O_2  and  C_8
REMARK    2  A    between atoms: N_4  and  C_7
REMARK    3  A    between atoms: N_4  and  C_11
REMARK    4  A    between atoms: N_5  and  C_15
REMARK    5  A    between atoms: C_9  and  C_15
REMARK    6  A    between atoms: C_10  and  C_18
REMARK                            x       y       z     vdW  Elec       q    Type
REMARK                         _______ _______ _______ _____ _____    ______ ____
ROOT
ATOM      1  O   UNL     1      -4.728 -10.881  14.141  0.00  0.00    -0.371 OA
ATOM      7  C   UNL     1      -4.359 -11.564  16.385  0.00  0.00    +0.111 C 
ATOM      8  C   UNL     1      -3.039 -11.589  15.637  0.00  0.00    +0.164 C 
ATOM      9  C   UNL     1      -3.346 -10.661  14.470  0.00  0.00    +0.165 C 
ATOM     14  C   UNL     1      -5.355 -11.568  15.237  0.00  0.00    +0.181 C 
ENDROOT
BRANCH   8   2
ATOM      2  O   UNL     1      -1.960 -11.115  16.420  0.00  0.00    -0.388 OA
ATOM     24  H   UNL     1      -2.259 -11.046  17.343  0.00  0.00    +0.210 HD
ENDBRANCH   8   2
BRANCH   7   4
ATOM      4  N   UNL     1      -4.538 -12.686  17.292  0.00  0.00    -0.306 NA
ATOM     21  H   UNL     1      -3.631 -13.070  17.558  0.00  0.00    +0.123 HD
BRANCH   4  11
ATOM      6  N   UNL     1      -7.438 -10.730  19.714  0.00  0.00    -0.316 NA
ATOM     11  C   UNL     1      -5.270 -12.275  18.487  0.00  0.00    +0.056 C 
ATOM     16  C   UNL     1      -6.734 -12.724  18.416  0.00  0.00    +0.034 C 
ATOM     17  C   UNL     1      -5.193 -10.754  18.660  0.00  0.00    +0.034 C 
ATOM     19  C   UNL     1      -7.526 -12.189  19.610  0.00  0.00    +0.082 C 
ATOM     20  C   UNL     1      -6.045 -10.296  19.845  0.00  0.00    +0.082 C 
ATOM     23  H   UNL     1      -7.966 -10.418  20.528  0.00  0.00    +0.122 HD
ENDBRANCH   4  11
ENDBRANCH   7   4
BRANCH   9  15
ATOM     15  C   UNL     1      -2.479 -10.923  13.251  0.00  0.00    +0.138 C 
BRANCH  15   5
ATOM      3  O   UNL     1      -1.162  -9.376  11.171  0.00  0.00    -0.276 OA
ATOM      5  N   UNL     1      -3.069 -10.374  12.064  0.00  0.00    -0.313 N 
ATOM     18  C   UNL     1      -2.356  -9.645  11.122  0.00  0.00    +0.216 C 
ATOM     22  H   UNL     1      -4.057 -10.546  11.904  0.00  0.00    +0.149 HD
BRANCH  18  10
ATOM     10  C   UNL     1      -3.171  -9.172   9.964  0.00  0.00    +0.075 C 
ATOM     12  C   UNL     1      -4.644  -9.017  10.146  0.00  0.00    +0.013 C 
ATOM     13  C   UNL     1      -4.101 -10.135   9.306  0.00  0.00    +0.013 C 
ENDBRANCH  18  10
ENDBRANCH  15   5
ENDBRANCH   9  15
TORSDOF 6
ENDMDL
MODEL 5
REMARK VINA RESULT:      -5.2     25.441     28.230
REMARK  Name = 75367066
REMARK  6 active torsions:
REMARK  status: ('A' for Active; 'I' for Inactive)
REMARK    1  A    between atoms: O_2  and  C_8
REMARK    2  A    between atoms: N_4  and  C_7
REMARK    3  A    between atoms: N_4  and  C_11
REMARK    4  A    between atoms: N_5  and  C_15
REMARK    5  A    between atoms: C_9  and  C_15
REMARK    6  A    between atoms: C_10  and  C_18
REMARK                            x       y       z     vdW  Elec       q    Type
REMARK                         _______ _______ _______ _____ _____    ______ ____
ROOT
ATOM      1  O   UNL     1     -15.765   7.016  20.015  0.00  0.00    -0.371 OA
ATOM      7  C   UNL     1     -13.404   6.999  20.272  0.00  0.00    +0.111 C 
ATOM      8  C   UNL     1     -14.038   6.351  21.489  0.00  0.00    +0.164 C 
ATOM      9  C   UNL     1     -15.408   5.974  20.939  0.00  0.00    +0.165 C 
ATOM     14  C   UNL     1     -14.581   7.766  19.691  0.00  0.00    +0.181 C 
ENDROOT
BRANCH   8   2
ATOM      2  O   UNL     1     -13.321   5.219  21.939  0.00  0.00    -0.388 OA
ATOM     24  H   UNL     1     -13.701   4.428  21.520  0.00  0.00    +0.210 HD
ENDBRANCH   8   2
BRANCH   7   4
ATOM      4  N   UNL     1     -12.273   7.856  20.590  0.00  0.00    -0.306 NA
ATOM     21  H   UNL     1     -11.518   7.304  20.997  0.00  0.00    +0.123 HD
BRANCH   4  11
ATOM      6  N   UNL     1      -9.575   9.292  17.630  0.00  0.00    -0.316 NA
ATOM     11  C   UNL     1     -11.793   8.546  19.395  0.00  0.00    +0.056 C 
ATOM     16  C   UNL     1     -11.171   7.556  18.402  0.00  0.00    +0.034 C 
ATOM     17  C   UNL     1     -10.771   9.622  19.778  0.00  0.00    +0.034 C 
ATOM     19  C   UNL     1     -10.562   8.294  17.209  0.00  0.00    +0.082 C 
ATOM     20  C   UNL     1     -10.178  10.278  18.531  0.00  0.00    +0.082 C 
ATOM     23  H   UNL     1      -9.207   9.768  16.808  0.00  0.00    +0.122 HD
ENDBRANCH   4  11
ENDBRANCH   7   4
BRANCH   9  15
ATOM     15  C   UNL     1     -16.473   5.853  22.014  0.00  0.00    +0.138 C 
BRANCH  15   5
ATOM      3  O   UNL     1     -16.811   3.025  22.597  0.00  0.00    -0.276 OA
ATOM      5  N   UNL     1     -15.985   5.131  23.154  0.00  0.00    -0.313 N 
ATOM     18  C   UNL     1     -16.197   3.773  23.347  0.00  0.00    +0.216 C 
ATOM     22  H   UNL     1     -15.444   5.645  23.843  0.00  0.00    +0.149 HD
BRANCH  18  10
ATOM     10  C   UNL     1     -15.597   3.228  24.601  0.00  0.00    +0.075 C 
ATOM     12  C   UNL     1     -16.391   2.251  25.403  0.00  0.00    +0.013 C 
ATOM     13  C   UNL     1     -16.180   3.647  25.909  0.00  0.00    +0.013 C 
ENDBRANCH  18  10
ENDBRANCH  15   5
ENDBRANCH   9  15
TORSDOF 6
ENDMDL
MODEL 6
REMARK VINA RESULT:      -5.1     26.604     28.674
REMARK  Name = 75367066
REMARK  6 active torsions:
REMARK  status: ('A' for Active; 'I' for Inactive)
REMARK    1  A    between atoms: O_2  and  C_8
REMARK    2  A    between atoms: N_4  and  C_7
REMARK    3  A    between atoms: N_4  and  C_11
REMARK    4  A    between atoms: N_5  and  C_15
REMARK    5  A    between atoms: C_9  and  C_15
REMARK    6  A    between atoms: C_10  and  C_18
REMARK                            x       y       z     vdW  Elec       q    Type
REMARK                         _______ _______ _______ _____ _____    ______ ____
ROOT
ATOM      1  O   UNL     1      -6.993 -12.973  18.496  0.00  0.00    -0.371 OA
ATOM      7  C   UNL     1      -5.430 -11.190  18.369  0.00  0.00    +0.111 C 
ATOM      8  C   UNL     1      -6.698 -10.690  19.037  0.00  0.00    +0.164 C 
ATOM      9  C   UNL     1      -7.320 -11.999  19.502  0.00  0.00    +0.165 C 
ATOM     14  C   UNL     1      -5.928 -12.450  17.682  0.00  0.00    +0.181 C 
ENDROOT
BRANCH   8   2
ATOM      2  O   UNL     1      -6.436  -9.816  20.118  0.00  0.00    -0.388 OA
ATOM     24  H   UNL     1      -5.842 -10.269  20.741  0.00  0.00    +0.210 HD
ENDBRANCH   8   2
BRANCH   7   4
ATOM      4  N   UNL     1      -4.843 -10.235  17.442  0.00  0.00    -0.306 NA
ATOM     21  H   UNL     1      -4.152  -9.660  17.923  0.00  0.00    +0.123 HD
BRANCH   4  11
ATOM      6  N   UNL     1      -2.608 -10.815  13.868  0.00  0.00    -0.316 NA
ATOM     11  C   UNL     1      -4.216 -10.924  16.317  0.00  0.00    +0.056 C 
ATOM     16  C   UNL     1      -2.693 -10.753  16.347  0.00  0.00    +0.034 C 
ATOM     17  C   UNL     1      -4.780 -10.397  14.992  0.00  0.00    +0.034 C 
ATOM     19  C   UNL     1      -2.051 -11.371  15.104  0.00  0.00    +0.082 C 
ATOM     20  C   UNL     1      -4.057 -11.029  13.803  0.00  0.00    +0.082 C 
ATOM     23  H   UNL     1      -2.165 -11.264  13.068  0.00  0.00    +0.122 HD
ENDBRANCH   4  11
ENDBRANCH   7   4
BRANCH   9  15
ATOM     15  C   UNL     1      -8.826 -11.921  19.671  0.00  0.00    +0.138 C 
BRANCH  15   5
ATOM      3  O   UNL     1     -11.194 -11.333  18.089  0.00  0.00    -0.276 OA
ATOM      5  N   UNL     1      -9.328 -10.630  19.294  0.00  0.00    -0.313 N 
ATOM     18  C   UNL     1     -10.473 -10.447  18.533  0.00  0.00    +0.216 C 
ATOM     22  H   UNL     1      -8.819  -9.813  19.618  0.00  0.00    +0.149 HD
BRANCH  18  10
ATOM     10  C   UNL     1     -10.810  -9.018  18.261  0.00  0.00    +0.075 C 
ATOM     12  C   UNL     1     -11.248  -8.639  16.885  0.00  0.00    +0.013 C 
ATOM     13  C   UNL     1      -9.898  -8.224  17.388  0.00  0.00    +0.013 C 
ENDBRANCH  18  10
ENDBRANCH  15   5
ENDBRANCH   9  15
TORSDOF 6
ENDMDL
MODEL 7
REMARK VINA RESULT:      -5.0      3.082      4.765
REMARK  Name = 75367066
REMARK  6 active torsions:
REMARK  status: ('A' for Active; 'I' for Inactive)
REMARK    1  A    between atoms: O_2  and  C_8
REMARK    2  A    between atoms: N_4  and  C_7
REMARK    3  A    between atoms: N_4  and  C_11
REMARK    4  A    between atoms: N_5  and  C_15
REMARK    5  A    between atoms: C_9  and  C_15
REMARK    6  A    between atoms: C_10  and  C_18
REMARK                            x       y       z     vdW  Elec       q    Type
REMARK                         _______ _______ _______ _____ _____    ______ ____
ROOT
ATOM      1  O   UNL     1      12.923   7.922  21.405  0.00  0.00    -0.371 OA
ATOM      7  C   UNL     1      15.199   7.669  20.775  0.00  0.00    +0.111 C 
ATOM      8  C   UNL     1      14.478   8.472  19.709  0.00  0.00    +0.164 C 
ATOM      9  C   UNL     1      13.269   8.974  20.488  0.00  0.00    +0.165 C 
ATOM     14  C   UNL     1      14.034   7.013  21.498  0.00  0.00    +0.181 C 
ENDROOT
BRANCH   8   2
ATOM      2  O   UNL     1      15.261   9.538  19.206  0.00  0.00    -0.388 OA
ATOM     24  H   UNL     1      15.890   9.807  19.897  0.00  0.00    +0.210 HD
ENDBRANCH   8   2
BRANCH   7   4
ATOM      4  N   UNL     1      16.146   6.705  20.239  0.00  0.00    -0.306 NA
ATOM     21  H   UNL     1      15.923   6.498  19.265  0.00  0.00    +0.123 HD
BRANCH   4  11
ATOM      6  N   UNL     1      20.017   7.453  21.839  0.00  0.00    -0.316 NA
ATOM     11  C   UNL     1      17.513   7.212  20.335  0.00  0.00    +0.056 C 
ATOM     16  C   UNL     1      18.521   6.061  20.432  0.00  0.00    +0.034 C 
ATOM     17  C   UNL     1      17.651   8.138  21.549  0.00  0.00    +0.034 C 
ATOM     19  C   UNL     1      19.937   6.594  20.654  0.00  0.00    +0.082 C 
ATOM     20  C   UNL     1      19.101   8.590  21.726  0.00  0.00    +0.082 C 
ATOM     23  H   UNL     1      20.971   7.797  21.940  0.00  0.00    +0.122 HD
ENDBRANCH   4  11
ENDBRANCH   7   4
BRANCH   9  15
ATOM     15  C   UNL     1      12.078   9.298  19.604  0.00  0.00    +0.138 C 
BRANCH  15   5
ATOM      3  O   UNL     1      11.417   7.789  17.208  0.00  0.00    -0.276 OA
ATOM      5  N   UNL     1      12.488   9.573  18.257  0.00  0.00    -0.313 N 
ATOM     18  C   UNL     1      12.119   8.792  17.171  0.00  0.00    +0.216 C 
ATOM     22  H   UNL     1      13.064  10.394  18.097  0.00  0.00    +0.149 HD
BRANCH  18  10
ATOM     10  C   UNL     1      12.657   9.265  15.861  0.00  0.00    +0.075 C 
ATOM     12  C   UNL     1      14.078   8.955  15.522  0.00  0.00    +0.013 C 
ATOM     13  C   UNL     1      13.672  10.359  15.861  0.00  0.00    +0.013 C 
ENDBRANCH  18  10
ENDBRANCH  15   5
ENDBRANCH   9  15
TORSDOF 6
ENDMDL
MODEL 8
REMARK VINA RESULT:      -5.0     26.652     28.309
REMARK  Name = 75367066
REMARK  6 active torsions:
REMARK  status: ('A' for Active; 'I' for Inactive)
REMARK    1  A    between atoms: O_2  and  C_8
REMARK    2  A    between atoms: N_4  and  C_7
REMARK    3  A    between atoms: N_4  and  C_11
REMARK    4  A    between atoms: N_5  and  C_15
REMARK    5  A    between atoms: C_9  and  C_15
REMARK    6  A    between atoms: C_10  and  C_18
REMARK                            x       y       z     vdW  Elec       q    Type
REMARK                         _______ _______ _______ _____ _____    ______ ____
ROOT
ATOM      1  O   UNL     1      -6.979 -12.570  18.306  0.00  0.00    -0.371 OA
ATOM      7  C   UNL     1      -4.920 -13.258  17.344  0.00  0.00    +0.111 C 
ATOM      8  C   UNL     1      -4.729 -11.905  18.005  0.00  0.00    +0.164 C 
ATOM      9  C   UNL     1      -5.905 -11.884  18.971  0.00  0.00    +0.165 C 
ATOM     14  C   UNL     1      -6.432 -13.314  17.203  0.00  0.00    +0.181 C 
ENDROOT
BRANCH   8   2
ATOM      2  O   UNL     1      -3.490 -11.797  18.678  0.00  0.00    -0.388 OA
ATOM     24  H   UNL     1      -3.667 -11.638  19.621  0.00  0.00    +0.210 HD
ENDBRANCH   8   2
BRANCH   7   4
ATOM      4  N   UNL     1      -4.229 -13.388  16.071  0.00  0.00    -0.306 NA
ATOM     21  H   UNL     1      -4.752 -14.004  15.449  0.00  0.00    +0.123 HD
BRANCH   4  11
ATOM      6  N   UNL     1      -3.332 -10.492  13.086  0.00  0.00    -0.316 NA
ATOM     11  C   UNL     1      -4.051 -12.083  15.441  0.00  0.00    +0.056 C 
ATOM     16  C   UNL     1      -4.999 -11.915  14.247  0.00  0.00    +0.034 C 
ATOM     17  C   UNL     1      -2.597 -11.905  14.988  0.00  0.00    +0.034 C 
ATOM     19  C   UNL     1      -4.728 -10.600  13.517  0.00  0.00    +0.082 C 
ATOM     20  C   UNL     1      -2.421 -10.589  14.229  0.00  0.00    +0.082 C 
ATOM     23  H   UNL     1      -3.192  -9.597  12.619  0.00  0.00    +0.122 HD
ENDBRANCH   4  11
ENDBRANCH   7   4
BRANCH   9  15
ATOM     15  C   UNL     1      -6.348 -10.481  19.347  0.00  0.00    +0.138 C 
BRANCH  15   5
ATOM      3  O   UNL     1      -6.661  -9.251  16.731  0.00  0.00    -0.276 OA
ATOM      5  N   UNL     1      -7.573 -10.126  18.688  0.00  0.00    -0.313 N 
ATOM     18  C   UNL     1      -7.623  -9.540  17.432  0.00  0.00    +0.216 C 
ATOM     22  H   UNL     1      -8.444 -10.332  19.168  0.00  0.00    +0.149 HD
BRANCH  18  10
ATOM     10  C   UNL     1      -9.004  -9.258  16.939  0.00  0.00    +0.075 C 
ATOM     12  C   UNL     1      -9.668  -7.991  17.368  0.00  0.00    +0.013 C 
ATOM     13  C   UNL     1     -10.133  -9.309  17.913  0.00  0.00    +0.013 C 
ENDBRANCH  18  10
ENDBRANCH  15   5
ENDBRANCH   9  15
TORSDOF 6
ENDMDL
MODEL 9
REMARK VINA RESULT:      -5.0     26.896     28.189
REMARK  Name = 75367066
REMARK  6 active torsions:
REMARK  status: ('A' for Active; 'I' for Inactive)
REMARK    1  A    between atoms: O_2  and  C_8
REMARK    2  A    between atoms: N_4  and  C_7
REMARK    3  A    between atoms: N_4  and  C_11
REMARK    4  A    between atoms: N_5  and  C_15
REMARK    5  A    between atoms: C_9  and  C_15
REMARK    6  A    between atoms: C_10  and  C_18
REMARK                            x       y       z     vdW  Elec       q    Type
REMARK                         _______ _______ _______ _____ _____    ______ ____
ROOT
ATOM      1  O   UNL     1      -3.040 -12.967  12.198  0.00  0.00    -0.371 OA
ATOM      7  C   UNL     1      -2.452 -10.700  11.809  0.00  0.00    +0.111 C 
ATOM      8  C   UNL     1      -2.945 -10.845  13.237  0.00  0.00    +0.164 C 
ATOM      9  C   UNL     1      -2.759 -12.340  13.460  0.00  0.00    +0.165 C 
ATOM     14  C   UNL     1      -3.005 -11.962  11.169  0.00  0.00    +0.181 C 
ENDROOT
BRANCH   8   2
ATOM      2  O   UNL     1      -2.191 -10.076  14.155  0.00  0.00    -0.388 OA
ATOM     24  H   UNL     1      -1.914 -10.656  14.884  0.00  0.00    +0.210 HD
ENDBRANCH   8   2
BRANCH   7   4
ATOM      4  N   UNL     1      -2.910  -9.486  11.153  0.00  0.00    -0.306 NA
ATOM     21  H   UNL     1      -2.233  -9.190  10.451  0.00  0.00    +0.123 HD
BRANCH   4  11
ATOM      6  N   UNL     1      -6.553  -8.603   9.140  0.00  0.00    -0.316 NA
ATOM     11  C   UNL     1      -4.213  -9.695  10.527  0.00  0.00    +0.056 C 
ATOM     16  C   UNL     1      -4.177  -9.311   9.043  0.00  0.00    +0.034 C 
ATOM     17  C   UNL     1      -5.290  -8.883  11.256  0.00  0.00    +0.034 C 
ATOM     19  C   UNL     1      -5.570  -9.417   8.420  0.00  0.00    +0.082 C 
ATOM     20  C   UNL     1      -6.638  -9.006  10.546  0.00  0.00    +0.082 C 
ATOM     23  H   UNL     1      -7.467  -8.714   8.702  0.00  0.00    +0.122 HD
ENDBRANCH   4  11
ENDBRANCH   7   4
BRANCH   9  15
ATOM     15  C   UNL     1      -3.676 -12.905  14.530  0.00  0.00    +0.138 C 
BRANCH  15   5
ATOM      3  O   UNL     1      -5.538 -12.883  16.763  0.00  0.00    -0.276 OA
ATOM      5  N   UNL     1      -3.561 -12.170  15.758  0.00  0.00    -0.313 N 
ATOM     18  C   UNL     1      -4.506 -12.224  16.773  0.00  0.00    +0.216 C 
ATOM     22  H   UNL     1      -2.734 -11.596  15.888  0.00  0.00    +0.149 HD
BRANCH  18  10
ATOM     10  C   UNL     1      -4.181 -11.380  17.961  0.00  0.00    +0.075 C 
ATOM     12  C   UNL     1      -4.584 -11.870  19.313  0.00  0.00    +0.013 C 
ATOM     13  C   UNL     1      -5.300 -10.710  18.686  0.00  0.00    +0.013 C 
ENDBRANCH  18  10
ENDBRANCH  15   5
ENDBRANCH   9  15
TORSDOF 6
ENDMDL
MODEL 10
REMARK VINA RESULT:      -5.0     33.204     34.926
REMARK  Name = 75367066
REMARK  6 active torsions:
REMARK  status: ('A' for Active; 'I' for Inactive)
REMARK    1  A    between atoms: O_2  and  C_8
REMARK    2  A    between atoms: N_4  and  C_7
REMARK    3  A    between atoms: N_4  and  C_11
REMARK    4  A    between atoms: N_5  and  C_15
REMARK    5  A    between atoms: C_9  and  C_15
REMARK    6  A    between atoms: C_10  and  C_18
REMARK                            x       y       z     vdW  Elec       q    Type
REMARK                         _______ _______ _______ _____ _____    ______ ____
ROOT
ATOM      1  O   UNL     1      -0.004 -16.397  -1.911  0.00  0.00    -0.371 OA
ATOM      7  C   UNL     1       0.425 -15.011  -0.032  0.00  0.00    +0.111 C 
ATOM      8  C   UNL     1       0.150 -14.134  -1.240  0.00  0.00    +0.164 C 
ATOM      9  C   UNL     1      -0.595 -15.107  -2.144  0.00  0.00    +0.165 C 
ATOM     14  C   UNL     1       0.757 -16.339  -0.692  0.00  0.00    +0.181 C 
ENDROOT
BRANCH   8   2
ATOM      2  O   UNL     1      -0.634 -13.001  -0.924  0.00  0.00    -0.388 OA
ATOM     24  H   UNL     1      -1.371 -13.286  -0.357  0.00  0.00    +0.210 HD
ENDBRANCH   8   2
BRANCH   7   4
ATOM      4  N   UNL     1       1.499 -14.517   0.815  0.00  0.00    -0.306 NA
ATOM     21  H   UNL     1       1.321 -14.766   1.788  0.00  0.00    +0.123 HD
BRANCH   4  11
ATOM      6  N   UNL     1       5.710 -15.090   0.603  0.00  0.00    -0.316 NA
ATOM     11  C   UNL     1       2.786 -15.064   0.393  0.00  0.00    +0.056 C 
ATOM     16  C   UNL     1       3.515 -15.725   1.569  0.00  0.00    +0.034 C 
ATOM     17  C   UNL     1       3.659 -13.959  -0.214  0.00  0.00    +0.034 C 
ATOM     19  C   UNL     1       4.911 -16.189   1.153  0.00  0.00    +0.082 C 
ATOM     20  C   UNL     1       5.049 -14.492  -0.560  0.00  0.00    +0.082 C 
ATOM     23  H   UNL     1       6.624 -15.445   0.326  0.00  0.00    +0.122 HD
ENDBRANCH   4  11
ENDBRANCH   7   4
BRANCH   9  15
ATOM     15  C   UNL     1      -0.495 -14.754  -3.617  0.00  0.00    +0.138 C 
BRANCH  15   5
ATOM      3  O   UNL     1      -0.545 -12.232  -5.062  0.00  0.00    -0.276 OA
ATOM      5  N   UNL     1       0.606 -13.868  -3.868  0.00  0.00    -0.313 N 
ATOM     18  C   UNL     1       0.485 -12.678  -4.571  0.00  0.00    +0.216 C 
ATOM     22  H   UNL     1       1.514 -14.126  -3.494  0.00  0.00    +0.149 HD
BRANCH  18  10
ATOM     10  C   UNL     1       1.759 -11.913  -4.711  0.00  0.00    +0.075 C 
ATOM     12  C   UNL     1       1.705 -10.423  -4.652  0.00  0.00    +0.013 C 
ATOM     13  C   UNL     1       1.979 -11.116  -5.953  0.00  0.00    +0.013 C 
ENDBRANCH  18  10
ENDBRANCH  15   5
ENDBRANCH   9  15
TORSDOF 6
ENDMDL
