MODEL 1
REMARK VINA RESULT:      -6.2      0.000      0.000
REMARK  Name = 75536585
REMARK  9 active torsions:
REMARK  status: ('A' for Active; 'I' for Inactive)
REMARK    1  A    between atoms: O_2  and  C_10
REMARK    2  A    between atoms: O_4  and  C_17
REMARK    3  A    between atoms: O_4  and  C_20
REMARK    4  A    between atoms: N_5  and  C_9
REMARK    5  A    between atoms: N_5  and  C_14
REMARK    6  A    between atoms: N_6  and  C_13
REMARK    7  A    between atoms: C_11  and  C_13
REMARK    8  A    between atoms: C_14  and  C_15
REMARK    9  A    between atoms: C_16  and  C_17
REMARK                            x       y       z     vdW  Elec       q    Type
REMARK                         _______ _______ _______ _____ _____    ______ ____
ROOT
ATOM      1  O   UNL     1      11.469  10.272  21.203  0.00  0.00    -0.371 OA
ATOM      9  C   UNL     1      11.116   8.096  20.320  0.00  0.00    +0.111 C 
ATOM     10  C   UNL     1      10.816   8.081  21.807  0.00  0.00    +0.164 C 
ATOM     11  C   UNL     1      10.573   9.560  22.072  0.00  0.00    +0.165 C 
ATOM     12  C   UNL     1      11.942   9.365  20.192  0.00  0.00    +0.181 C 
ENDROOT
BRANCH  10   2
ATOM      2  O   UNL     1       9.685   7.294  22.128  0.00  0.00    -0.388 OA
ATOM     22  H   UNL     1       9.706   6.491  21.582  0.00  0.00    +0.210 HD
ENDBRANCH  10   2
BRANCH   9   5
ATOM      5  N   UNL     1      11.821   6.912  19.854  0.00  0.00    -0.302 NA
ATOM     21  H   UNL     1      11.159   6.294  19.383  0.00  0.00    +0.123 HD
BRANCH   5  14
ATOM     14  C   UNL     1      12.882   7.266  18.919  0.00  0.00    +0.156 C 
BRANCH  14  15
ATOM      7  N   UNL     1      14.411   6.478  20.741  0.00  0.00    -0.347 N 
ATOM      8  N   UNL     1      15.384   6.963  18.805  0.00  0.00    -0.240 NA
ATOM     15  C   UNL     1      14.243   6.911  19.455  0.00  0.00    +0.121 A 
ATOM     18  C   UNL     1      15.744   6.240  20.923  0.00  0.00    +0.104 A 
ATOM     19  C   UNL     1      16.324   6.546  19.714  0.00  0.00    +0.130 A 
ATOM     24  H   UNL     1      13.682   6.355  21.432  0.00  0.00    +0.167 HD
ENDBRANCH  14  15
ENDBRANCH   5  14
ENDBRANCH   9   5
BRANCH  11  13
ATOM     13  C   UNL     1      10.830   9.962  23.514  0.00  0.00    +0.138 C 
BRANCH  13   6
ATOM      3  O   UNL     1      11.798  11.722  25.596  0.00  0.00    -0.273 OA
ATOM      6  N   UNL     1      10.430  11.318  23.756  0.00  0.00    -0.311 N 
ATOM     16  C   UNL     1      10.952  12.095  24.787  0.00  0.00    +0.239 C 
ATOM     23  H   UNL     1       9.724  11.720  23.146  0.00  0.00    +0.149 HD
BRANCH  16  17
ATOM     17  C   UNL     1      10.354  13.485  24.809  0.00  0.00    +0.255 C 
BRANCH  17   4
ATOM      4  O   UNL     1       9.844  13.829  23.537  0.00  0.00    -0.374 OA
ATOM     20  C   UNL     1       9.303  15.146  23.520  0.00  0.00    +0.194 C 
ENDBRANCH  17   4
ENDBRANCH  16  17
ENDBRANCH  13   6
ENDBRANCH  11  13
TORSDOF 8
ENDMDL
MODEL 2
REMARK VINA RESULT:      -6.0      1.772      2.197
REMARK  Name = 75536585
REMARK  9 active torsions:
REMARK  status: ('A' for Active; 'I' for Inactive)
REMARK    1  A    between atoms: O_2  and  C_10
REMARK    2  A    between atoms: O_4  and  C_17
REMARK    3  A    between atoms: O_4  and  C_20
REMARK    4  A    between atoms: N_5  and  C_9
REMARK    5  A    between atoms: N_5  and  C_14
REMARK    6  A    between atoms: N_6  and  C_13
REMARK    7  A    between atoms: C_11  and  C_13
REMARK    8  A    between atoms: C_14  and  C_15
REMARK    9  A    between atoms: C_16  and  C_17
REMARK                            x       y       z     vdW  Elec       q    Type
REMARK                         _______ _______ _______ _____ _____    ______ ____
ROOT
ATOM      1  O   UNL     1      11.657   9.538  20.585  0.00  0.00    -0.371 OA
ATOM      9  C   UNL     1      12.369   7.399  19.837  0.00  0.00    +0.111 C 
ATOM     10  C   UNL     1      11.701   7.253  21.192  0.00  0.00    +0.164 C 
ATOM     11  C   UNL     1      10.877   8.531  21.253  0.00  0.00    +0.165 C 
ATOM     12  C   UNL     1      12.682   8.886  19.815  0.00  0.00    +0.181 C 
ENDROOT
BRANCH  10   2
ATOM      2  O   UNL     1      10.890   6.097  21.278  0.00  0.00    -0.388 OA
ATOM     22  H   UNL     1      10.993   5.716  22.166  0.00  0.00    +0.210 HD
ENDBRANCH  10   2
BRANCH   9   5
ATOM      5  N   UNL     1      13.553   6.569  19.677  0.00  0.00    -0.302 NA
ATOM     21  H   UNL     1      13.299   5.722  19.167  0.00  0.00    +0.123 HD
BRANCH   5  14
ATOM     14  C   UNL     1      14.591   7.273  18.934  0.00  0.00    +0.156 C 
BRANCH  14  15
ATOM      7  N   UNL     1      16.718   7.363  20.256  0.00  0.00    -0.347 N 
ATOM      8  N   UNL     1      16.597   5.757  18.727  0.00  0.00    -0.240 NA
ATOM     15  C   UNL     1      15.967   6.770  19.279  0.00  0.00    +0.121 A 
ATOM     18  C   UNL     1      17.902   6.686  20.331  0.00  0.00    +0.104 A 
ATOM     19  C   UNL     1      17.805   5.699  19.378  0.00  0.00    +0.130 A 
ATOM     24  H   UNL     1      16.447   8.158  20.821  0.00  0.00    +0.167 HD
ENDBRANCH  14  15
ENDBRANCH   5  14
ENDBRANCH   9   5
BRANCH  11  13
ATOM     13  C   UNL     1      10.568   8.979  22.670  0.00  0.00    +0.138 C 
BRANCH  13   6
ATOM      3  O   UNL     1      10.315  11.473  24.116  0.00  0.00    -0.273 OA
ATOM      6  N   UNL     1      11.629   9.780  23.208  0.00  0.00    -0.311 N 
ATOM     16  C   UNL     1      11.415  10.972  23.894  0.00  0.00    +0.239 C 
ATOM     23  H   UNL     1      12.583   9.457  23.068  0.00  0.00    +0.149 HD
BRANCH  16  17
ATOM     17  C   UNL     1      12.711  11.606  24.350  0.00  0.00    +0.255 C 
BRANCH  17   4
ATOM      4  O   UNL     1      12.647  11.941  25.721  0.00  0.00    -0.374 OA
ATOM     20  C   UNL     1      12.690  13.350  25.926  0.00  0.00    +0.194 C 
ENDBRANCH  17   4
ENDBRANCH  16  17
ENDBRANCH  13   6
ENDBRANCH  11  13
TORSDOF 8
ENDMDL
MODEL 3
REMARK VINA RESULT:      -5.8      3.877      6.357
REMARK  Name = 75536585
REMARK  9 active torsions:
REMARK  status: ('A' for Active; 'I' for Inactive)
REMARK    1  A    between atoms: O_2  and  C_10
REMARK    2  A    between atoms: O_4  and  C_17
REMARK    3  A    between atoms: O_4  and  C_20
REMARK    4  A    between atoms: N_5  and  C_9
REMARK    5  A    between atoms: N_5  and  C_14
REMARK    6  A    between atoms: N_6  and  C_13
REMARK    7  A    between atoms: C_11  and  C_13
REMARK    8  A    between atoms: C_14  and  C_15
REMARK    9  A    between atoms: C_16  and  C_17
REMARK                            x       y       z     vdW  Elec       q    Type
REMARK                         _______ _______ _______ _____ _____    ______ ____
ROOT
ATOM      1  O   UNL     1      16.260   6.373  18.968  0.00  0.00    -0.371 OA
ATOM      9  C   UNL     1      17.155   6.405  21.168  0.00  0.00    +0.111 C 
ATOM     10  C   UNL     1      15.927   7.295  21.121  0.00  0.00    +0.164 C 
ATOM     11  C   UNL     1      15.220   6.755  19.885  0.00  0.00    +0.165 C 
ATOM     12  C   UNL     1      17.500   6.289  19.693  0.00  0.00    +0.181 C 
ENDROOT
BRANCH  10   2
ATOM      2  O   UNL     1      15.124   7.180  22.280  0.00  0.00    -0.388 OA
ATOM     22  H   UNL     1      14.824   6.259  22.354  0.00  0.00    +0.210 HD
ENDBRANCH  10   2
BRANCH   9   5
ATOM      5  N   UNL     1      18.243   6.953  21.962  0.00  0.00    -0.302 NA
ATOM     21  H   UNL     1      18.450   6.313  22.730  0.00  0.00    +0.123 HD
BRANCH   5  14
ATOM     14  C   UNL     1      19.445   7.128  21.156  0.00  0.00    +0.156 C 
BRANCH  14  15
ATOM      7  N   UNL     1      21.027   5.361  20.346  0.00  0.00    -0.347 N 
ATOM      8  N   UNL     1      20.861   5.572  22.550  0.00  0.00    -0.240 NA
ATOM     15  C   UNL     1      20.442   6.024  21.389  0.00  0.00    +0.121 A 
ATOM     18  C   UNL     1      21.873   4.427  20.876  0.00  0.00    +0.104 A 
ATOM     19  C   UNL     1      21.753   4.577  22.238  0.00  0.00    +0.130 A 
ATOM     24  H   UNL     1      20.866   5.531  19.362  0.00  0.00    +0.167 HD
ENDBRANCH  14  15
ENDBRANCH   5  14
ENDBRANCH   9   5
BRANCH  11  13
ATOM     13  C   UNL     1      14.303   7.769  19.226  0.00  0.00    +0.138 C 
BRANCH  13   6
ATOM      3  O   UNL     1      11.884   6.224  19.592  0.00  0.00    -0.273 OA
ATOM      6  N   UNL     1      13.189   8.091  20.071  0.00  0.00    -0.311 N 
ATOM     16  C   UNL     1      12.060   7.284  20.187  0.00  0.00    +0.239 C 
ATOM     23  H   UNL     1      13.231   8.957  20.600  0.00  0.00    +0.149 HD
BRANCH  16  17
ATOM     17  C   UNL     1      11.044   7.864  21.146  0.00  0.00    +0.255 C 
BRANCH  17   4
ATOM      4  O   UNL     1      11.315   9.227  21.397  0.00  0.00    -0.374 OA
ATOM     20  C   UNL     1      10.735   9.668  22.621  0.00  0.00    +0.194 C 
ENDBRANCH  17   4
ENDBRANCH  16  17
ENDBRANCH  13   6
ENDBRANCH  11  13
TORSDOF 8
ENDMDL
MODEL 4
REMARK VINA RESULT:      -5.7      2.056      2.994
REMARK  Name = 75536585
REMARK  9 active torsions:
REMARK  status: ('A' for Active; 'I' for Inactive)
REMARK    1  A    between atoms: O_2  and  C_10
REMARK    2  A    between atoms: O_4  and  C_17
REMARK    3  A    between atoms: O_4  and  C_20
REMARK    4  A    between atoms: N_5  and  C_9
REMARK    5  A    between atoms: N_5  and  C_14
REMARK    6  A    between atoms: N_6  and  C_13
REMARK    7  A    between atoms: C_11  and  C_13
REMARK    8  A    between atoms: C_14  and  C_15
REMARK    9  A    between atoms: C_16  and  C_17
REMARK                            x       y       z     vdW  Elec       q    Type
REMARK                         _______ _______ _______ _____ _____    ______ ____
ROOT
ATOM      1  O   UNL     1      10.413   7.680  22.214  0.00  0.00    -0.371 OA
ATOM      9  C   UNL     1      12.568   6.989  21.495  0.00  0.00    +0.111 C 
ATOM     10  C   UNL     1      12.606   8.471  21.819  0.00  0.00    +0.164 C 
ATOM     11  C   UNL     1      11.388   8.606  22.722  0.00  0.00    +0.165 C 
ATOM     12  C   UNL     1      11.076   6.754  21.336  0.00  0.00    +0.181 C 
ENDROOT
BRANCH  10   2
ATOM      2  O   UNL     1      13.797   8.856  22.478  0.00  0.00    -0.388 OA
ATOM     22  H   UNL     1      14.552   8.535  21.957  0.00  0.00    +0.210 HD
ENDBRANCH  10   2
BRANCH   9   5
ATOM      5  N   UNL     1      13.328   6.631  20.309  0.00  0.00    -0.302 NA
ATOM     21  H   UNL     1      13.608   5.651  20.375  0.00  0.00    +0.123 HD
BRANCH   5  14
ATOM     14  C   UNL     1      12.532   6.813  19.101  0.00  0.00    +0.156 C 
BRANCH  14  15
ATOM      7  N   UNL     1      13.785   8.899  18.505  0.00  0.00    -0.347 N 
ATOM      8  N   UNL     1      13.344   7.523  16.820  0.00  0.00    -0.240 NA
ATOM     15  C   UNL     1      13.213   7.721  18.112  0.00  0.00    +0.121 A 
ATOM     18  C   UNL     1      14.315   9.489  17.392  0.00  0.00    +0.104 A 
ATOM     19  C   UNL     1      14.029   8.621  16.364  0.00  0.00    +0.130 A 
ATOM     24  H   UNL     1      13.814   9.267  19.447  0.00  0.00    +0.167 HD
ENDBRANCH  14  15
ENDBRANCH   5  14
ENDBRANCH   9   5
BRANCH  11  13
ATOM     13  C   UNL     1      10.805  10.007  22.739  0.00  0.00    +0.138 C 
BRANCH  13   6
ATOM      3  O   UNL     1      10.168  12.099  24.635  0.00  0.00    -0.273 OA
ATOM      6  N   UNL     1      11.714  10.943  23.334  0.00  0.00    -0.311 N 
ATOM     16  C   UNL     1      11.318  11.921  24.242  0.00  0.00    +0.239 C 
ATOM     23  H   UNL     1      12.693  10.888  23.067  0.00  0.00    +0.149 HD
BRANCH  16  17
ATOM     17  C   UNL     1      12.482  12.768  24.710  0.00  0.00    +0.255 C 
BRANCH  17   4
ATOM      4  O   UNL     1      12.752  12.534  26.076  0.00  0.00    -0.374 OA
ATOM     20  C   UNL     1      13.702  13.460  26.596  0.00  0.00    +0.194 C 
ENDBRANCH  17   4
ENDBRANCH  16  17
ENDBRANCH  13   6
ENDBRANCH  11  13
TORSDOF 8
ENDMDL
MODEL 5
REMARK VINA RESULT:      -5.6      4.690      6.517
REMARK  Name = 75536585
REMARK  9 active torsions:
REMARK  status: ('A' for Active; 'I' for Inactive)
REMARK    1  A    between atoms: O_2  and  C_10
REMARK    2  A    between atoms: O_4  and  C_17
REMARK    3  A    between atoms: O_4  and  C_20
REMARK    4  A    between atoms: N_5  and  C_9
REMARK    5  A    between atoms: N_5  and  C_14
REMARK    6  A    between atoms: N_6  and  C_13
REMARK    7  A    between atoms: C_11  and  C_13
REMARK    8  A    between atoms: C_14  and  C_15
REMARK    9  A    between atoms: C_16  and  C_17
REMARK                            x       y       z     vdW  Elec       q    Type
REMARK                         _______ _______ _______ _____ _____    ______ ____
ROOT
ATOM      1  O   UNL     1      14.321   7.161  18.496  0.00  0.00    -0.371 OA
ATOM      9  C   UNL     1      15.234   6.500  20.587  0.00  0.00    +0.111 C 
ATOM     10  C   UNL     1      13.938   7.252  20.828  0.00  0.00    +0.164 C 
ATOM     11  C   UNL     1      13.264   7.119  19.470  0.00  0.00    +0.165 C 
ATOM     12  C   UNL     1      15.571   6.929  19.168  0.00  0.00    +0.181 C 
ENDROOT
BRANCH  10   2
ATOM      2  O   UNL     1      13.160   6.681  21.862  0.00  0.00    -0.388 OA
ATOM     22  H   UNL     1      13.114   5.721  21.716  0.00  0.00    +0.210 HD
ENDBRANCH  10   2
BRANCH   9   5
ATOM      5  N   UNL     1      16.283   6.823  21.540  0.00  0.00    -0.302 NA
ATOM     21  H   UNL     1      16.591   5.965  21.999  0.00  0.00    +0.123 HD
BRANCH   5  14
ATOM     14  C   UNL     1      17.425   7.439  20.876  0.00  0.00    +0.156 C 
BRANCH  14  15
ATOM      7  N   UNL     1      19.025   8.049  22.706  0.00  0.00    -0.347 N 
ATOM      8  N   UNL     1      19.617   6.323  21.440  0.00  0.00    -0.240 NA
ATOM     15  C   UNL     1      18.700   7.240  21.652  0.00  0.00    +0.121 A 
ATOM     18  C   UNL     1      20.227   7.619  23.196  0.00  0.00    +0.104 A 
ATOM     19  C   UNL     1      20.572   6.553  22.398  0.00  0.00    +0.130 A 
ATOM     24  H   UNL     1      18.478   8.822  23.059  0.00  0.00    +0.167 HD
ENDBRANCH  14  15
ENDBRANCH   5  14
ENDBRANCH   9   5
BRANCH  11  13
ATOM     13  C   UNL     1      12.261   8.223  19.186  0.00  0.00    +0.138 C 
BRANCH  13   6
ATOM      3  O   UNL     1      10.717   8.053  16.745  0.00  0.00    -0.273 OA
ATOM      6  N   UNL     1      12.540   8.872  17.938  0.00  0.00    -0.311 N 
ATOM     16  C   UNL     1      11.737   8.733  16.809  0.00  0.00    +0.239 C 
ATOM     23  H   UNL     1      13.372   9.454  17.882  0.00  0.00    +0.149 HD
BRANCH  16  17
ATOM     17  C   UNL     1      12.266   9.529  15.635  0.00  0.00    +0.255 C 
BRANCH  17   4
ATOM      4  O   UNL     1      13.555   9.083  15.271  0.00  0.00    -0.374 OA
ATOM     20  C   UNL     1      14.530  10.113  15.403  0.00  0.00    +0.194 C 
ENDBRANCH  17   4
ENDBRANCH  16  17
ENDBRANCH  13   6
ENDBRANCH  11  13
TORSDOF 8
ENDMDL
MODEL 6
REMARK VINA RESULT:      -5.4     25.616     27.706
REMARK  Name = 75536585
REMARK  9 active torsions:
REMARK  status: ('A' for Active; 'I' for Inactive)
REMARK    1  A    between atoms: O_2  and  C_10
REMARK    2  A    between atoms: O_4  and  C_17
REMARK    3  A    between atoms: O_4  and  C_20
REMARK    4  A    between atoms: N_5  and  C_9
REMARK    5  A    between atoms: N_5  and  C_14
REMARK    6  A    between atoms: N_6  and  C_13
REMARK    7  A    between atoms: C_11  and  C_13
REMARK    8  A    between atoms: C_14  and  C_15
REMARK    9  A    between atoms: C_16  and  C_17
REMARK                            x       y       z     vdW  Elec       q    Type
REMARK                         _______ _______ _______ _____ _____    ______ ____
ROOT
ATOM      1  O   UNL     1      -7.310 -13.135  18.240  0.00  0.00    -0.371 OA
ATOM      9  C   UNL     1      -5.099 -12.456  18.782  0.00  0.00    +0.111 C 
ATOM     10  C   UNL     1      -6.084 -11.530  19.471  0.00  0.00    +0.164 C 
ATOM     11  C   UNL     1      -7.344 -12.385  19.466  0.00  0.00    +0.165 C 
ATOM     12  C   UNL     1      -5.974 -13.081  17.708  0.00  0.00    +0.181 C 
ENDROOT
BRANCH  10   2
ATOM      2  O   UNL     1      -5.684 -11.187  20.784  0.00  0.00    -0.388 OA
ATOM     22  H   UNL     1      -6.077 -11.827  21.400  0.00  0.00    +0.210 HD
ENDBRANCH  10   2
BRANCH   9   5
ATOM      5  N   UNL     1      -3.937 -11.772  18.237  0.00  0.00    -0.302 NA
ATOM     21  H   UNL     1      -3.214 -12.460  18.026  0.00  0.00    +0.123 HD
BRANCH   5  14
ATOM     14  C   UNL     1      -4.276 -11.053  17.015  0.00  0.00    +0.156 C 
BRANCH  14  15
ATOM      7  N   UNL     1      -1.803 -11.004  16.610  0.00  0.00    -0.347 N 
ATOM      8  N   UNL     1      -3.080 -10.542  14.853  0.00  0.00    -0.240 NA
ATOM     15  C   UNL     1      -3.075 -10.858  16.128  0.00  0.00    +0.121 A 
ATOM     18  C   UNL     1      -0.943 -10.765  15.575  0.00  0.00    +0.104 A 
ATOM     19  C   UNL     1      -1.754 -10.482  14.501  0.00  0.00    +0.130 A 
ATOM     24  H   UNL     1      -1.545 -11.246  17.558  0.00  0.00    +0.167 HD
ENDBRANCH  14  15
ENDBRANCH   5  14
ENDBRANCH   9   5
BRANCH  11  13
ATOM     13  C   UNL     1      -8.623 -11.571  19.534  0.00  0.00    +0.138 C 
BRANCH  13   6
ATOM      3  O   UNL     1      -9.542 -11.118  16.827  0.00  0.00    -0.273 OA
ATOM      6  N   UNL     1      -8.511 -10.361  18.772  0.00  0.00    -0.311 N 
ATOM     16  C   UNL     1      -8.985 -10.232  17.469  0.00  0.00    +0.239 C 
ATOM     23  H   UNL     1      -8.054  -9.566  19.210  0.00  0.00    +0.149 HD
BRANCH  16  17
ATOM     17  C   UNL     1      -8.735  -8.848  16.909  0.00  0.00    +0.255 C 
BRANCH  17   4
ATOM      4  O   UNL     1      -9.556  -7.895  17.551  0.00  0.00    -0.374 OA
ATOM     20  C   UNL     1     -10.918  -8.010  17.150  0.00  0.00    +0.194 C 
ENDBRANCH  17   4
ENDBRANCH  16  17
ENDBRANCH  13   6
ENDBRANCH  11  13
TORSDOF 8
ENDMDL
MODEL 7
REMARK VINA RESULT:      -5.3      2.206      3.360
REMARK  Name = 75536585
REMARK  9 active torsions:
REMARK  status: ('A' for Active; 'I' for Inactive)
REMARK    1  A    between atoms: O_2  and  C_10
REMARK    2  A    between atoms: O_4  and  C_17
REMARK    3  A    between atoms: O_4  and  C_20
REMARK    4  A    between atoms: N_5  and  C_9
REMARK    5  A    between atoms: N_5  and  C_14
REMARK    6  A    between atoms: N_6  and  C_13
REMARK    7  A    between atoms: C_11  and  C_13
REMARK    8  A    between atoms: C_14  and  C_15
REMARK    9  A    between atoms: C_16  and  C_17
REMARK                            x       y       z     vdW  Elec       q    Type
REMARK                         _______ _______ _______ _____ _____    ______ ____
ROOT
ATOM      1  O   UNL     1      13.275   8.849  18.534  0.00  0.00    -0.371 OA
ATOM      9  C   UNL     1      13.938   6.838  19.611  0.00  0.00    +0.111 C 
ATOM     10  C   UNL     1      13.441   7.819  20.657  0.00  0.00    +0.164 C 
ATOM     11  C   UNL     1      12.604   8.761  19.802  0.00  0.00    +0.165 C 
ATOM     12  C   UNL     1      14.214   7.763  18.438  0.00  0.00    +0.181 C 
ENDROOT
BRANCH  10   2
ATOM      2  O   UNL     1      12.671   7.197  21.667  0.00  0.00    -0.388 OA
ATOM     22  H   UNL     1      11.858   6.850  21.262  0.00  0.00    +0.210 HD
ENDBRANCH  10   2
BRANCH   9   5
ATOM      5  N   UNL     1      15.110   6.085  20.027  0.00  0.00    -0.302 NA
ATOM     21  H   UNL     1      14.933   5.090  19.890  0.00  0.00    +0.123 HD
BRANCH   5  14
ATOM     14  C   UNL     1      16.283   6.467  19.248  0.00  0.00    +0.156 C 
BRANCH  14  15
ATOM      7  N   UNL     1      18.706   5.931  19.596  0.00  0.00    -0.347 N 
ATOM      8  N   UNL     1      17.676   6.906  21.305  0.00  0.00    -0.240 NA
ATOM     15  C   UNL     1      17.537   6.452  20.080  0.00  0.00    +0.121 A 
ATOM     18  C   UNL     1      19.649   6.062  20.576  0.00  0.00    +0.104 A 
ATOM     19  C   UNL     1      18.991   6.666  21.621  0.00  0.00    +0.130 A 
ATOM     24  H   UNL     1      18.848   5.525  18.680  0.00  0.00    +0.167 HD
ENDBRANCH  14  15
ENDBRANCH   5  14
ENDBRANCH   9   5
BRANCH  11  13
ATOM     13  C   UNL     1      12.458  10.147  20.403  0.00  0.00    +0.138 C 
BRANCH  13   6
ATOM      3  O   UNL     1      10.987  12.195  21.822  0.00  0.00    -0.273 OA
ATOM      6  N   UNL     1      11.964  10.084  21.748  0.00  0.00    -0.311 N 
ATOM     16  C   UNL     1      11.262  11.123  22.353  0.00  0.00    +0.239 C 
ATOM     23  H   UNL     1      12.148   9.238  22.281  0.00  0.00    +0.149 HD
BRANCH  16  17
ATOM     17  C   UNL     1      10.861  10.785  23.773  0.00  0.00    +0.255 C 
BRANCH  17   4
ATOM      4  O   UNL     1      10.584  11.960  24.506  0.00  0.00    -0.374 OA
ATOM     20  C   UNL     1      11.726  12.422  25.221  0.00  0.00    +0.194 C 
ENDBRANCH  17   4
ENDBRANCH  16  17
ENDBRANCH  13   6
ENDBRANCH  11  13
TORSDOF 8
ENDMDL
MODEL 8
REMARK VINA RESULT:      -5.3     27.276     29.065
REMARK  Name = 75536585
REMARK  9 active torsions:
REMARK  status: ('A' for Active; 'I' for Inactive)
REMARK    1  A    between atoms: O_2  and  C_10
REMARK    2  A    between atoms: O_4  and  C_17
REMARK    3  A    between atoms: O_4  and  C_20
REMARK    4  A    between atoms: N_5  and  C_9
REMARK    5  A    between atoms: N_5  and  C_14
REMARK    6  A    between atoms: N_6  and  C_13
REMARK    7  A    between atoms: C_11  and  C_13
REMARK    8  A    between atoms: C_14  and  C_15
REMARK    9  A    between atoms: C_16  and  C_17
REMARK                            x       y       z     vdW  Elec       q    Type
REMARK                         _______ _______ _______ _____ _____    ______ ____
ROOT
ATOM      1  O   UNL     1     -17.374   3.024  27.403  0.00  0.00    -0.371 OA
ATOM      9  C   UNL     1     -16.715   2.621  25.157  0.00  0.00    +0.111 C 
ATOM     10  C   UNL     1     -16.552   1.342  25.958  0.00  0.00    +0.164 C 
ATOM     11  C   UNL     1     -17.475   1.614  27.137  0.00  0.00    +0.165 C 
ATOM     12  C   UNL     1     -16.774   3.662  26.262  0.00  0.00    +0.181 C 
ENDROOT
BRANCH  10   2
ATOM      2  O   UNL     1     -16.945   0.191  25.235  0.00  0.00    -0.388 OA
ATOM     22  H   UNL     1     -16.162  -0.171  24.787  0.00  0.00    +0.210 HD
ENDBRANCH  10   2
BRANCH   9   5
ATOM      5  N   UNL     1     -15.636   2.860  24.212  0.00  0.00    -0.302 NA
ATOM     21  H   UNL     1     -15.273   1.963  23.887  0.00  0.00    +0.123 HD
BRANCH   5  14
ATOM     14  C   UNL     1     -16.105   3.623  23.062  0.00  0.00    +0.156 C 
BRANCH  14  15
ATOM      7  N   UNL     1     -13.927   4.398  22.094  0.00  0.00    -0.347 N 
ATOM      8  N   UNL     1     -15.289   5.997  22.815  0.00  0.00    -0.240 NA
ATOM     15  C   UNL     1     -15.130   4.701  22.669  0.00  0.00    +0.121 A 
ATOM     18  C   UNL     1     -13.277   5.577  21.858  0.00  0.00    +0.104 A 
ATOM     19  C   UNL     1     -14.137   6.550  22.311  0.00  0.00    +0.130 A 
ATOM     24  H   UNL     1     -13.581   3.472  21.880  0.00  0.00    +0.167 HD
ENDBRANCH  14  15
ENDBRANCH   5  14
ENDBRANCH   9   5
BRANCH  11  13
ATOM     13  C   UNL     1     -17.105   0.830  28.383  0.00  0.00    +0.138 C 
BRANCH  13   6
ATOM      3  O   UNL     1     -15.495  -0.630  30.293  0.00  0.00    -0.273 OA
ATOM      6  N   UNL     1     -15.784   1.160  28.834  0.00  0.00    -0.311 N 
ATOM     16  C   UNL     1     -15.080   0.396  29.761  0.00  0.00    +0.239 C 
ATOM     23  H   UNL     1     -15.352   2.001  28.460  0.00  0.00    +0.149 HD
BRANCH  16  17
ATOM     17  C   UNL     1     -13.712   0.975  30.053  0.00  0.00    +0.255 C 
BRANCH  17   4
ATOM      4  O   UNL     1     -13.806   2.354  30.342  0.00  0.00    -0.374 OA
ATOM     20  C   UNL     1     -13.595   2.623  31.724  0.00  0.00    +0.194 C 
ENDBRANCH  17   4
ENDBRANCH  16  17
ENDBRANCH  13   6
ENDBRANCH  11  13
TORSDOF 8
ENDMDL
MODEL 9
REMARK VINA RESULT:      -5.3      5.537      8.163
REMARK  Name = 75536585
REMARK  9 active torsions:
REMARK  status: ('A' for Active; 'I' for Inactive)
REMARK    1  A    between atoms: O_2  and  C_10
REMARK    2  A    between atoms: O_4  and  C_17
REMARK    3  A    between atoms: O_4  and  C_20
REMARK    4  A    between atoms: N_5  and  C_9
REMARK    5  A    between atoms: N_5  and  C_14
REMARK    6  A    between atoms: N_6  and  C_13
REMARK    7  A    between atoms: C_11  and  C_13
REMARK    8  A    between atoms: C_14  and  C_15
REMARK    9  A    between atoms: C_16  and  C_17
REMARK                            x       y       z     vdW  Elec       q    Type
REMARK                         _______ _______ _______ _____ _____    ______ ____
ROOT
ATOM      1  O   UNL     1      13.983   9.680  17.931  0.00  0.00    -0.371 OA
ATOM      9  C   UNL     1      13.547  10.755  15.859  0.00  0.00    +0.111 C 
ATOM     10  C   UNL     1      12.716   9.488  15.943  0.00  0.00    +0.164 C 
ATOM     11  C   UNL     1      12.701   9.246  17.446  0.00  0.00    +0.165 C 
ATOM     12  C   UNL     1      14.603  10.494  16.920  0.00  0.00    +0.181 C 
ENDROOT
BRANCH  10   2
ATOM      2  O   UNL     1      11.412   9.655  15.422  0.00  0.00    -0.388 OA
ATOM     22  H   UNL     1      11.447  10.321  14.716  0.00  0.00    +0.210 HD
ENDBRANCH  10   2
BRANCH   9   5
ATOM      5  N   UNL     1      14.115  10.994  14.542  0.00  0.00    -0.302 NA
ATOM     21  H   UNL     1      13.789  10.269  13.902  0.00  0.00    +0.123 HD
BRANCH   5  14
ATOM     14  C   UNL     1      13.712  12.296  14.024  0.00  0.00    +0.156 C 
BRANCH  14  15
ATOM      7  N   UNL     1      11.263  12.085  13.538  0.00  0.00    -0.347 N 
ATOM      8  N   UNL     1      12.597  12.176  11.765  0.00  0.00    -0.240 NA
ATOM     15  C   UNL     1      12.547  12.187  13.078  0.00  0.00    +0.121 A 
ATOM     18  C   UNL     1      10.443  12.003  12.448  0.00  0.00    +0.104 A 
ATOM     19  C   UNL     1      11.288  12.061  11.365  0.00  0.00    +0.130 A 
ATOM     24  H   UNL     1      10.973  12.073  14.507  0.00  0.00    +0.167 HD
ENDBRANCH  14  15
ENDBRANCH   5  14
ENDBRANCH   9   5
BRANCH  11  13
ATOM     13  C   UNL     1      12.477   7.792  17.819  0.00  0.00    +0.138 C 
BRANCH  13   6
ATOM      3  O   UNL     1      12.550   7.322  20.673  0.00  0.00    -0.273 OA
ATOM      6  N   UNL     1      13.574   7.274  18.583  0.00  0.00    -0.311 N 
ATOM     16  C   UNL     1      13.521   7.079  19.961  0.00  0.00    +0.239 C 
ATOM     23  H   UNL     1      14.433   7.050  18.088  0.00  0.00    +0.149 HD
BRANCH  16  17
ATOM     17  C   UNL     1      14.818   6.521  20.506  0.00  0.00    +0.255 C 
BRANCH  17   4
ATOM      4  O   UNL     1      15.698   6.187  19.454  0.00  0.00    -0.374 OA
ATOM     20  C   UNL     1      17.038   6.578  19.739  0.00  0.00    +0.194 C 
ENDBRANCH  17   4
ENDBRANCH  16  17
ENDBRANCH  13   6
ENDBRANCH  11  13
TORSDOF 8
ENDMDL
MODEL 10
REMARK VINA RESULT:      -5.2     25.943     27.444
REMARK  Name = 75536585
REMARK  9 active torsions:
REMARK  status: ('A' for Active; 'I' for Inactive)
REMARK    1  A    between atoms: O_2  and  C_10
REMARK    2  A    between atoms: O_4  and  C_17
REMARK    3  A    between atoms: O_4  and  C_20
REMARK    4  A    between atoms: N_5  and  C_9
REMARK    5  A    between atoms: N_5  and  C_14
REMARK    6  A    between atoms: N_6  and  C_13
REMARK    7  A    between atoms: C_11  and  C_13
REMARK    8  A    between atoms: C_14  and  C_15
REMARK    9  A    between atoms: C_16  and  C_17
REMARK                            x       y       z     vdW  Elec       q    Type
REMARK                         _______ _______ _______ _____ _____    ______ ____
ROOT
ATOM      1  O   UNL     1      -3.844 -10.381  13.996  0.00  0.00    -0.371 OA
ATOM      9  C   UNL     1      -3.131 -10.720  16.236  0.00  0.00    +0.111 C 
ATOM     10  C   UNL     1      -2.061 -11.237  15.292  0.00  0.00    +0.164 C 
ATOM     11  C   UNL     1      -2.410 -10.488  14.013  0.00  0.00    +0.165 C 
ATOM     12  C   UNL     1      -4.340 -10.661  15.317  0.00  0.00    +0.181 C 
ENDROOT
BRANCH  10   2
ATOM      2  O   UNL     1      -0.751 -10.939  15.737  0.00  0.00    -0.388 OA
ATOM     22  H   UNL     1      -0.176 -10.857  14.958  0.00  0.00    +0.210 HD
ENDBRANCH  10   2
BRANCH   9   5
ATOM      5  N   UNL     1      -3.345 -11.568  17.398  0.00  0.00    -0.302 NA
ATOM     21  H   UNL     1      -3.450 -10.980  18.225  0.00  0.00    +0.123 HD
BRANCH   5  14
ATOM     14  C   UNL     1      -4.545 -12.381  17.241  0.00  0.00    +0.156 C 
BRANCH  14  15
ATOM      7  N   UNL     1      -6.573 -12.953  18.597  0.00  0.00    -0.347 N 
ATOM      8  N   UNL     1      -5.651 -10.978  19.023  0.00  0.00    -0.240 NA
ATOM     15  C   UNL     1      -5.574 -12.069  18.295  0.00  0.00    +0.121 A 
ATOM     18  C   UNL     1      -7.336 -12.388  19.580  0.00  0.00    +0.104 A 
ATOM     19  C   UNL     1      -6.748 -11.170  19.826  0.00  0.00    +0.130 A 
ATOM     24  H   UNL     1      -6.721 -13.859  18.172  0.00  0.00    +0.167 HD
ENDBRANCH  14  15
ENDBRANCH   5  14
ENDBRANCH   9   5
BRANCH  11  13
ATOM     13  C   UNL     1      -1.934 -11.192  12.756  0.00  0.00    +0.138 C 
BRANCH  13   6
ATOM      3  O   UNL     1      -1.734  -9.110  10.757  0.00  0.00    -0.273 OA
ATOM      6  N   UNL     1      -2.825 -10.958  11.657  0.00  0.00    -0.311 N 
ATOM     16  C   UNL     1      -2.651  -9.927  10.739  0.00  0.00    +0.239 C 
ATOM     23  H   UNL     1      -3.627 -11.575  11.557  0.00  0.00    +0.149 HD
BRANCH  16  17
ATOM     17  C   UNL     1      -3.737  -9.914   9.685  0.00  0.00    +0.255 C 
BRANCH  17   4
ATOM      4  O   UNL     1      -4.270  -8.615   9.534  0.00  0.00    -0.374 OA
ATOM     20  C   UNL     1      -5.167  -8.283  10.589  0.00  0.00    +0.194 C 
ENDBRANCH  17   4
ENDBRANCH  16  17
ENDBRANCH  13   6
ENDBRANCH  11  13
TORSDOF 8
ENDMDL
