MODEL 1
REMARK VINA RESULT:      -6.5      0.000      0.000
REMARK  Name = 45783250
REMARK  12 active torsions:
REMARK  status: ('A' for Active; 'I' for Inactive)
REMARK    1  A    between atoms: S_1  and  C_22
REMARK    2  A    between atoms: S_1  and  C_28
REMARK    3  A    between atoms: O_6  and  C_36
REMARK    4  A    between atoms: N_9  and  C_14
REMARK    5  A    between atoms: N_10  and  C_21
REMARK    6  A    between atoms: C_15  and  C_19
REMARK    7  A    between atoms: C_20  and  C_22
REMARK    8  A    between atoms: C_21  and  C_24
REMARK    9  A    between atoms: C_21  and  C_25
REMARK   10  A    between atoms: C_23  and  C_26
REMARK   11  A    between atoms: C_24  and  C_27
REMARK   12  A    between atoms: C_28  and  C_36
REMARK                            x       y       z     vdW  Elec       q    Type
REMARK                         _______ _______ _______ _____ _____    ______ ____
ROOT
ATOM      3  O   UNL     1      12.344   6.585  18.831  0.00  0.00    -0.275 OA
ATOM      8  N   UNL     1      14.251   7.121  20.054  0.00  0.00    -0.289 N 
ATOM     14  C   UNL     1      17.150   6.935  20.349  0.00  0.00    +0.077 C 
ATOM     15  C   UNL     1      14.874   7.627  21.288  0.00  0.00    +0.164 C 
ATOM     16  C   UNL     1      16.238   6.997  21.577  0.00  0.00    +0.054 C 
ATOM     17  C   UNL     1      16.417   6.288  19.177  0.00  0.00    +0.041 C 
ATOM     18  C   UNL     1      15.118   7.024  18.874  0.00  0.00    +0.110 C 
ATOM     20  C   UNL     1      12.881   6.878  19.902  0.00  0.00    +0.226 C 
ENDROOT
BRANCH  15  19
ATOM      2  O   UNL     1      14.476   9.712  20.192  0.00  0.00    -0.274 OA
ATOM     10  N   UNL     1      15.645   9.703  22.205  0.00  0.00    -0.302 N 
ATOM     19  C   UNL     1      14.958   9.120  21.153  0.00  0.00    +0.234 C 
ATOM     39  H   UNL     1      15.878   9.136  23.015  0.00  0.00    +0.150 HD
BRANCH  10  21
ATOM     21  C   UNL     1      15.883  11.125  22.301  0.00  0.00    +0.163 C 
BRANCH  21  25
ATOM      5  O   UNL     1      14.769  12.816  23.643  0.00  0.00    -0.274 OA
ATOM     11  N   UNL     1      14.677  10.628  24.336  0.00  0.00    -0.328 N 
ATOM     25  C   UNL     1      15.074  11.637  23.484  0.00  0.00    +0.231 C 
ATOM     40  H   UNL     1      14.119  10.832  25.159  0.00  0.00    +0.145 HD
ATOM     41  H   UNL     1      14.919   9.655  24.179  0.00  0.00    +0.145 HD
ENDBRANCH  21  25
BRANCH  21  24
ATOM     24  C   UNL     1      17.370  11.452  22.490  0.00  0.00    +0.067 C 
BRANCH  24  27
ATOM     27  C   UNL     1      18.060  11.801  21.194  0.00  0.00    -0.045 A 
ATOM     30  C   UNL     1      17.323  12.318  20.128  0.00  0.00    +0.004 A 
ATOM     31  C   UNL     1      19.435  11.607  21.062  0.00  0.00    +0.004 A 
ATOM     32  C   UNL     1      17.962  12.642  18.930  0.00  0.00    +0.000 A 
ATOM     33  C   UNL     1      20.073  11.929  19.864  0.00  0.00    +0.000 A 
ATOM     35  C   UNL     1      19.336  12.446  18.798  0.00  0.00    +0.000 A 
ENDBRANCH  24  27
ENDBRANCH  21  24
ENDBRANCH  10  21
ENDBRANCH  15  19
BRANCH  14   9
ATOM      4  O   UNL     1      19.551   8.025  21.484  0.00  0.00    -0.268 OA
ATOM      9  N   UNL     1      18.366   6.217  20.647  0.00  0.00    -0.307 N 
ATOM     23  C   UNL     1      19.479   6.833  21.197  0.00  0.00    +0.264 C 
ATOM     38  H   UNL     1      18.420   5.234  20.395  0.00  0.00    +0.149 HD
BRANCH  23  26
ATOM     12  N   UNL     1      20.926   5.618  22.696  0.00  0.00    -0.247 NA
ATOM     13  N   UNL     1      22.519   4.741  20.561  0.00  0.00    -0.259 NA
ATOM     26  C   UNL     1      20.661   5.961  21.419  0.00  0.00    +0.143 A 
ATOM     29  C   UNL     1      21.443   5.530  20.371  0.00  0.00    +0.143 A 
ATOM     34  C   UNL     1      22.002   4.829  22.886  0.00  0.00    +0.131 A 
ATOM     37  C   UNL     1      22.784   4.399  21.837  0.00  0.00    +0.130 A 
ENDBRANCH  23  26
ENDBRANCH  14   9
BRANCH  20  22
ATOM     22  C   UNL     1      12.030   6.980  21.144  0.00  0.00    +0.165 C 
BRANCH  22   1
ATOM      1  S   UNL     1      10.906   8.366  20.923  0.00  0.00    -0.140 S 
BRANCH   1  28
ATOM     28  C   UNL     1      10.905   8.998  22.619  0.00  0.00    +0.189 C 
BRANCH  28  36
ATOM      7  O   UNL     1      11.637  11.047  23.655  0.00  0.00    -0.250 OA
ATOM     36  C   UNL     1      11.513  10.371  22.641  0.00  0.00    +0.315 C 
BRANCH  36   6
ATOM      6  O   UNL     1      11.926  10.782  21.416  0.00  0.00    -0.480 OA
ATOM     42  H   UNL     1      11.358  11.497  21.058  0.00  0.00    +0.295 HD
ENDBRANCH  36   6
ENDBRANCH  28  36
ENDBRANCH   1  28
ENDBRANCH  22   1
ENDBRANCH  20  22
TORSDOF 12
ENDMDL
MODEL 2
REMARK VINA RESULT:      -6.2     14.107     17.469
REMARK  Name = 45783250
REMARK  12 active torsions:
REMARK  status: ('A' for Active; 'I' for Inactive)
REMARK    1  A    between atoms: S_1  and  C_22
REMARK    2  A    between atoms: S_1  and  C_28
REMARK    3  A    between atoms: O_6  and  C_36
REMARK    4  A    between atoms: N_9  and  C_14
REMARK    5  A    between atoms: N_10  and  C_21
REMARK    6  A    between atoms: C_15  and  C_19
REMARK    7  A    between atoms: C_20  and  C_22
REMARK    8  A    between atoms: C_21  and  C_24
REMARK    9  A    between atoms: C_21  and  C_25
REMARK   10  A    between atoms: C_23  and  C_26
REMARK   11  A    between atoms: C_24  and  C_27
REMARK   12  A    between atoms: C_28  and  C_36
REMARK                            x       y       z     vdW  Elec       q    Type
REMARK                         _______ _______ _______ _____ _____    ______ ____
ROOT
ATOM      3  O   UNL     1      13.786   8.767   2.235  0.00  0.00    -0.275 OA
ATOM      8  N   UNL     1      13.210   8.497   4.474  0.00  0.00    -0.289 N 
ATOM     14  C   UNL     1      12.285   9.705   6.966  0.00  0.00    +0.077 C 
ATOM     15  C   UNL     1      13.200   7.680   5.699  0.00  0.00    +0.164 C 
ATOM     16  C   UNL     1      13.249   8.515   6.980  0.00  0.00    +0.054 C 
ATOM     17  C   UNL     1      12.479  10.528   5.696  0.00  0.00    +0.041 C 
ATOM     18  C   UNL     1      12.316   9.661   4.454  0.00  0.00    +0.110 C 
ATOM     20  C   UNL     1      13.889   8.152   3.300  0.00  0.00    +0.226 C 
ENDROOT
BRANCH  15  19
ATOM      2  O   UNL     1      11.620   6.271   4.593  0.00  0.00    -0.274 OA
ATOM     10  N   UNL     1      11.324   6.738   6.854  0.00  0.00    -0.302 N 
ATOM     19  C   UNL     1      11.976   6.814   5.635  0.00  0.00    +0.234 C 
ATOM     39  H   UNL     1      11.781   7.111   7.681  0.00  0.00    +0.150 HD
BRANCH  10  21
ATOM     21  C   UNL     1      10.106   5.985   7.053  0.00  0.00    +0.163 C 
BRANCH  21  25
ATOM      5  O   UNL     1      10.556   5.522   9.396  0.00  0.00    -0.274 OA
ATOM     11  N   UNL     1      10.182   3.753   7.978  0.00  0.00    -0.328 N 
ATOM     25  C   UNL     1      10.323   5.094   8.268  0.00  0.00    +0.231 C 
ATOM     40  H   UNL     1      10.288   3.051   8.702  0.00  0.00    +0.145 HD
ATOM     41  H   UNL     1       9.968   3.416   7.045  0.00  0.00    +0.145 HD
ENDBRANCH  21  25
BRANCH  21  24
ATOM     24  C   UNL     1       8.891   6.895   7.269  0.00  0.00    +0.067 C 
BRANCH  24  27
ATOM     27  C   UNL     1       8.588   7.760   6.070  0.00  0.00    -0.045 A 
ATOM     30  C   UNL     1       8.221   7.171   4.860  0.00  0.00    +0.004 A 
ATOM     31  C   UNL     1       8.674   9.149   6.172  0.00  0.00    +0.004 A 
ATOM     32  C   UNL     1       7.941   7.971   3.751  0.00  0.00    +0.000 A 
ATOM     33  C   UNL     1       8.395   9.948   5.064  0.00  0.00    +0.000 A 
ATOM     35  C   UNL     1       8.029   9.359   3.853  0.00  0.00    +0.000 A 
ENDBRANCH  24  27
ENDBRANCH  21  24
ENDBRANCH  10  21
ENDBRANCH  15  19
BRANCH  14   9
ATOM      4  O   UNL     1      10.242  10.568   8.790  0.00  0.00    -0.268 OA
ATOM      9  N   UNL     1      12.467  10.527   8.138  0.00  0.00    -0.307 N 
ATOM     23  C   UNL     1      11.414  10.893   8.961  0.00  0.00    +0.264 C 
ATOM     38  H   UNL     1      13.395  10.890   8.334  0.00  0.00    +0.149 HD
BRANCH  23  26
ATOM     12  N   UNL     1      10.868  11.819  11.121  0.00  0.00    -0.247 NA
ATOM     13  N   UNL     1      13.264  13.275  11.182  0.00  0.00    -0.259 NA
ATOM     26  C   UNL     1      11.762  11.765  10.113  0.00  0.00    +0.143 A 
ATOM     29  C   UNL     1      12.939  12.480  10.143  0.00  0.00    +0.143 A 
ATOM     34  C   UNL     1      11.193  12.614  12.160  0.00  0.00    +0.131 A 
ATOM     37  C   UNL     1      12.370  13.329  12.189  0.00  0.00    +0.130 A 
ENDBRANCH  23  26
ENDBRANCH  14   9
BRANCH  20  22
ATOM     22  C   UNL     1      14.804   6.955   3.369  0.00  0.00    +0.165 C 
BRANCH  22   1
ATOM      1  S   UNL     1      14.871   6.223   1.727  0.00  0.00    -0.140 S 
BRANCH   1  28
ATOM     28  C   UNL     1      13.547   5.003   1.911  0.00  0.00    +0.189 C 
BRANCH  28  36
ATOM      7  O   UNL     1      13.526   3.101   0.430  0.00  0.00    -0.250 OA
ATOM     36  C   UNL     1      14.017   3.674   1.396  0.00  0.00    +0.315 C 
BRANCH  36   6
ATOM      6  O   UNL     1      15.059   3.174   2.107  0.00  0.00    -0.480 OA
ATOM     42  H   UNL     1      15.174   3.637   2.964  0.00  0.00    +0.295 HD
ENDBRANCH  36   6
ENDBRANCH  28  36
ENDBRANCH   1  28
ENDBRANCH  22   1
ENDBRANCH  20  22
TORSDOF 12
ENDMDL
MODEL 3
REMARK VINA RESULT:      -6.1      2.928      4.431
REMARK  Name = 45783250
REMARK  12 active torsions:
REMARK  status: ('A' for Active; 'I' for Inactive)
REMARK    1  A    between atoms: S_1  and  C_22
REMARK    2  A    between atoms: S_1  and  C_28
REMARK    3  A    between atoms: O_6  and  C_36
REMARK    4  A    between atoms: N_9  and  C_14
REMARK    5  A    between atoms: N_10  and  C_21
REMARK    6  A    between atoms: C_15  and  C_19
REMARK    7  A    between atoms: C_20  and  C_22
REMARK    8  A    between atoms: C_21  and  C_24
REMARK    9  A    between atoms: C_21  and  C_25
REMARK   10  A    between atoms: C_23  and  C_26
REMARK   11  A    between atoms: C_24  and  C_27
REMARK   12  A    between atoms: C_28  and  C_36
REMARK                            x       y       z     vdW  Elec       q    Type
REMARK                         _______ _______ _______ _____ _____    ______ ____
ROOT
ATOM      3  O   UNL     1      11.680   8.926  22.001  0.00  0.00    -0.275 OA
ATOM      8  N   UNL     1      13.724   8.825  20.893  0.00  0.00    -0.289 N 
ATOM     14  C   UNL     1      16.415   7.702  20.738  0.00  0.00    +0.077 C 
ATOM     15  C   UNL     1      14.666   9.370  19.901  0.00  0.00    +0.164 C 
ATOM     16  C   UNL     1      16.132   9.132  20.268  0.00  0.00    +0.054 C 
ATOM     17  C   UNL     1      15.440   7.305  21.842  0.00  0.00    +0.041 C 
ATOM     18  C   UNL     1      13.997   7.467  21.379  0.00  0.00    +0.110 C 
ATOM     20  C   UNL     1      12.530   9.447  21.274  0.00  0.00    +0.226 C 
ENDROOT
BRANCH  15  19
ATOM      2  O   UNL     1      14.702   7.644  18.251  0.00  0.00    -0.274 OA
ATOM     10  N   UNL     1      13.527   9.604  17.806  0.00  0.00    -0.302 N 
ATOM     19  C   UNL     1      14.308   8.760  18.577  0.00  0.00    +0.234 C 
ATOM     39  H   UNL     1      13.143  10.443  18.230  0.00  0.00    +0.150 HD
BRANCH  10  21
ATOM     21  C   UNL     1      13.066   9.261  16.480  0.00  0.00    +0.163 C 
BRANCH  21  25
ATOM      5  O   UNL     1      11.390   7.723  17.334  0.00  0.00    -0.274 OA
ATOM     11  N   UNL     1      10.720   9.402  15.916  0.00  0.00    -0.328 N 
ATOM     25  C   UNL     1      11.663   8.689  16.626  0.00  0.00    +0.231 C 
ATOM     40  H   UNL     1       9.741   9.134  15.938  0.00  0.00    +0.145 HD
ATOM     41  H   UNL     1      10.958  10.211  15.353  0.00  0.00    +0.145 HD
ENDBRANCH  21  25
BRANCH  21  24
ATOM     24  C   UNL     1      13.053  10.472  15.540  0.00  0.00    +0.067 C 
BRANCH  24  27
ATOM     27  C   UNL     1      14.375  11.200  15.506  0.00  0.00    -0.045 A 
ATOM     30  C   UNL     1      14.552  12.360  16.259  0.00  0.00    +0.004 A 
ATOM     31  C   UNL     1      15.420  10.711  14.722  0.00  0.00    +0.004 A 
ATOM     32  C   UNL     1      15.774  13.033  16.228  0.00  0.00    +0.000 A 
ATOM     33  C   UNL     1      16.641  11.383  14.690  0.00  0.00    +0.000 A 
ATOM     35  C   UNL     1      16.819  12.544  15.443  0.00  0.00    +0.000 A 
ENDBRANCH  24  27
ENDBRANCH  21  24
ENDBRANCH  10  21
ENDBRANCH  15  19
BRANCH  14   9
ATOM      4  O   UNL     1      18.335   5.756  19.859  0.00  0.00    -0.268 OA
ATOM      9  N   UNL     1      17.778   7.570  21.191  0.00  0.00    -0.307 N 
ATOM     23  C   UNL     1      18.634   6.594  20.706  0.00  0.00    +0.264 C 
ATOM     38  H   UNL     1      18.103   8.186  21.932  0.00  0.00    +0.149 HD
BRANCH  23  26
ATOM     12  N   UNL     1      20.092   6.206  22.588  0.00  0.00    -0.247 NA
ATOM     13  N   UNL     1      22.348   6.905  21.076  0.00  0.00    -0.259 NA
ATOM     26  C   UNL     1      19.998   6.574  21.295  0.00  0.00    +0.143 A 
ATOM     29  C   UNL     1      21.106   6.917  20.552  0.00  0.00    +0.143 A 
ATOM     34  C   UNL     1      21.334   6.194  23.112  0.00  0.00    +0.131 A 
ATOM     37  C   UNL     1      22.441   6.538  22.369  0.00  0.00    +0.130 A 
ENDBRANCH  23  26
ENDBRANCH  14   9
BRANCH  20  22
ATOM     22  C   UNL     1      12.297  10.846  20.758  0.00  0.00    +0.165 C 
BRANCH  22   1
ATOM      1  S   UNL     1      11.256  11.700  21.951  0.00  0.00    -0.140 S 
BRANCH   1  28
ATOM     28  C   UNL     1      12.525  12.138  23.165  0.00  0.00    +0.189 C 
BRANCH  28  36
ATOM      7  O   UNL     1      12.709  11.829  25.548  0.00  0.00    -0.250 OA
ATOM     36  C   UNL     1      12.193  11.505  24.486  0.00  0.00    +0.315 C 
BRANCH  36   6
ATOM      6  O   UNL     1      11.246  10.539  24.382  0.00  0.00    -0.480 OA
ATOM     42  H   UNL     1      10.776  10.576  23.521  0.00  0.00    +0.295 HD
ENDBRANCH  36   6
ENDBRANCH  28  36
ENDBRANCH   1  28
ENDBRANCH  22   1
ENDBRANCH  20  22
TORSDOF 12
ENDMDL
MODEL 4
REMARK VINA RESULT:      -5.8     27.741     31.728
REMARK  Name = 45783250
REMARK  12 active torsions:
REMARK  status: ('A' for Active; 'I' for Inactive)
REMARK    1  A    between atoms: S_1  and  C_22
REMARK    2  A    between atoms: S_1  and  C_28
REMARK    3  A    between atoms: O_6  and  C_36
REMARK    4  A    between atoms: N_9  and  C_14
REMARK    5  A    between atoms: N_10  and  C_21
REMARK    6  A    between atoms: C_15  and  C_19
REMARK    7  A    between atoms: C_20  and  C_22
REMARK    8  A    between atoms: C_21  and  C_24
REMARK    9  A    between atoms: C_21  and  C_25
REMARK   10  A    between atoms: C_23  and  C_26
REMARK   11  A    between atoms: C_24  and  C_27
REMARK   12  A    between atoms: C_28  and  C_36
REMARK                            x       y       z     vdW  Elec       q    Type
REMARK                         _______ _______ _______ _____ _____    ______ ____
ROOT
ATOM      3  O   UNL     1      -6.007 -12.956   9.740  0.00  0.00    -0.275 OA
ATOM      8  N   UNL     1      -6.130 -11.523  11.571  0.00  0.00    -0.289 N 
ATOM     14  C   UNL     1      -7.779 -10.182  13.573  0.00  0.00    +0.077 C 
ATOM     15  C   UNL     1      -5.506 -10.519  12.449  0.00  0.00    +0.164 C 
ATOM     16  C   UNL     1      -6.509  -9.520  13.029  0.00  0.00    +0.054 C 
ATOM     17  C   UNL     1      -8.383 -11.110  12.523  0.00  0.00    +0.041 C 
ATOM     18  C   UNL     1      -7.366 -12.146  12.061  0.00  0.00    +0.110 C 
ATOM     20  C   UNL     1      -5.548 -12.019  10.399  0.00  0.00    +0.226 C 
ENDROOT
BRANCH  15  19
ATOM      2  O   UNL     1      -4.713 -12.498  13.526  0.00  0.00    -0.274 OA
ATOM     10  N   UNL     1      -4.222 -10.427  14.470  0.00  0.00    -0.302 N 
ATOM     19  C   UNL     1      -4.773 -11.272  13.521  0.00  0.00    +0.234 C 
ATOM     39  H   UNL     1      -4.212  -9.427  14.292  0.00  0.00    +0.150 HD
BRANCH  10  21
ATOM     21  C   UNL     1      -3.484 -10.903  15.618  0.00  0.00    +0.163 C 
BRANCH  21  25
ATOM      5  O   UNL     1      -1.591 -10.090  14.330  0.00  0.00    -0.274 OA
ATOM     11  N   UNL     1      -1.201 -10.996  16.404  0.00  0.00    -0.328 N 
ATOM     25  C   UNL     1      -2.012 -10.626  15.352  0.00  0.00    +0.231 C 
ATOM     40  H   UNL     1      -0.197 -10.854  16.362  0.00  0.00    +0.145 HD
ATOM     41  H   UNL     1      -1.565 -11.419  17.252  0.00  0.00    +0.145 HD
ENDBRANCH  21  25
BRANCH  21  24
ATOM     24  C   UNL     1      -3.930 -10.221  16.917  0.00  0.00    +0.067 C 
BRANCH  24  27
ATOM     27  C   UNL     1      -4.958 -11.024  17.676  0.00  0.00    -0.045 A 
ATOM     30  C   UNL     1      -5.399 -12.248  17.171  0.00  0.00    +0.004 A 
ATOM     31  C   UNL     1      -5.467 -10.544  18.882  0.00  0.00    +0.004 A 
ATOM     32  C   UNL     1      -6.349 -12.991  17.873  0.00  0.00    +0.000 A 
ATOM     33  C   UNL     1      -6.418 -11.285  19.583  0.00  0.00    +0.000 A 
ATOM     35  C   UNL     1      -6.859 -12.509  19.078  0.00  0.00    +0.000 A 
ENDBRANCH  24  27
ENDBRANCH  21  24
ENDBRANCH  10  21
ENDBRANCH  15  19
BRANCH  14   9
ATOM      4  O   UNL     1      -9.780 -10.474  15.611  0.00  0.00    -0.268 OA
ATOM      9  N   UNL     1      -8.740  -9.188  13.986  0.00  0.00    -0.307 N 
ATOM     23  C   UNL     1      -9.672  -9.423  14.985  0.00  0.00    +0.264 C 
ATOM     38  H   UNL     1      -8.763  -8.302  13.489  0.00  0.00    +0.149 HD
BRANCH  23  26
ATOM     12  N   UNL     1     -11.923  -8.566  15.121  0.00  0.00    -0.247 NA
ATOM     13  N   UNL     1     -10.992  -6.051  15.943  0.00  0.00    -0.259 NA
ATOM     26  C   UNL     1     -10.609  -8.307  15.275  0.00  0.00    +0.143 A 
ATOM     29  C   UNL     1     -10.152  -7.072  15.679  0.00  0.00    +0.143 A 
ATOM     34  C   UNL     1     -12.763  -7.546  15.385  0.00  0.00    +0.131 A 
ATOM     37  C   UNL     1     -12.306  -6.311  15.788  0.00  0.00    +0.130 A 
ENDBRANCH  23  26
ENDBRANCH  14   9
BRANCH  20  22
ATOM     22  C   UNL     1      -4.284 -11.343   9.928  0.00  0.00    +0.165 C 
BRANCH  22   1
ATOM      1  S   UNL     1      -4.681 -10.426   8.433  0.00  0.00    -0.140 S 
BRANCH   1  28
ATOM     28  C   UNL     1      -5.242  -8.882   9.193  0.00  0.00    +0.189 C 
BRANCH  28  36
ATOM      7  O   UNL     1      -7.517  -9.506   8.697  0.00  0.00    -0.250 OA
ATOM     36  C   UNL     1      -6.672  -8.627   8.810  0.00  0.00    +0.315 C 
BRANCH  36   6
ATOM      6  O   UNL     1      -6.936  -7.311   8.613  0.00  0.00    -0.480 OA
ATOM     42  H   UNL     1      -7.836  -7.068   8.917  0.00  0.00    +0.295 HD
ENDBRANCH  36   6
ENDBRANCH  28  36
ENDBRANCH   1  28
ENDBRANCH  22   1
ENDBRANCH  20  22
TORSDOF 12
ENDMDL
MODEL 5
REMARK VINA RESULT:      -5.7     18.393     21.179
REMARK  Name = 45783250
REMARK  12 active torsions:
REMARK  status: ('A' for Active; 'I' for Inactive)
REMARK    1  A    between atoms: S_1  and  C_22
REMARK    2  A    between atoms: S_1  and  C_28
REMARK    3  A    between atoms: O_6  and  C_36
REMARK    4  A    between atoms: N_9  and  C_14
REMARK    5  A    between atoms: N_10  and  C_21
REMARK    6  A    between atoms: C_15  and  C_19
REMARK    7  A    between atoms: C_20  and  C_22
REMARK    8  A    between atoms: C_21  and  C_24
REMARK    9  A    between atoms: C_21  and  C_25
REMARK   10  A    between atoms: C_23  and  C_26
REMARK   11  A    between atoms: C_24  and  C_27
REMARK   12  A    between atoms: C_28  and  C_36
REMARK                            x       y       z     vdW  Elec       q    Type
REMARK                         _______ _______ _______ _____ _____    ______ ____
ROOT
ATOM      3  O   UNL     1      11.473   6.058   6.754  0.00  0.00    -0.275 OA
ATOM      8  N   UNL     1      10.984   6.373   4.499  0.00  0.00    -0.289 N 
ATOM     14  C   UNL     1      10.711   5.222   1.830  0.00  0.00    +0.077 C 
ATOM     15  C   UNL     1      10.763   7.274   3.356  0.00  0.00    +0.164 C 
ATOM     16  C   UNL     1      11.188   6.665   2.018  0.00  0.00    +0.054 C 
ATOM     17  C   UNL     1      11.102   4.373   3.036  0.00  0.00    +0.041 C 
ATOM     18  C   UNL     1      10.562   4.978   4.327  0.00  0.00    +0.110 C 
ATOM     20  C   UNL     1      11.419   6.791   5.762  0.00  0.00    +0.226 C 
ENDROOT
BRANCH  15  19
ATOM      2  O   UNL     1       8.468   6.958   3.937  0.00  0.00    -0.274 OA
ATOM     10  N   UNL     1       9.063   8.815   2.667  0.00  0.00    -0.302 N 
ATOM     19  C   UNL     1       9.309   7.649   3.370  0.00  0.00    +0.234 C 
ATOM     39  H   UNL     1       9.849   9.380   2.358  0.00  0.00    +0.150 HD
BRANCH  10  21
ATOM     21  C   UNL     1       7.741   9.380   2.512  0.00  0.00    +0.163 C 
BRANCH  21  25
ATOM      5  O   UNL     1       6.652   9.965   4.603  0.00  0.00    -0.274 OA
ATOM     11  N   UNL     1       8.293  11.354   3.792  0.00  0.00    -0.328 N 
ATOM     25  C   UNL     1       7.475  10.244   3.735  0.00  0.00    +0.231 C 
ATOM     40  H   UNL     1       8.228  12.008   4.565  0.00  0.00    +0.145 HD
ATOM     41  H   UNL     1       8.983  11.560   3.078  0.00  0.00    +0.145 HD
ENDBRANCH  21  25
BRANCH  21  24
ATOM     24  C   UNL     1       7.614  10.213   1.231  0.00  0.00    +0.067 C 
BRANCH  24  27
ATOM     27  C   UNL     1       6.595   9.654   0.268  0.00  0.00    -0.045 A 
ATOM     30  C   UNL     1       5.262   9.529   0.659  0.00  0.00    +0.004 A 
ATOM     31  C   UNL     1       6.986   9.263  -1.012  0.00  0.00    +0.004 A 
ATOM     32  C   UNL     1       4.319   9.012  -0.231  0.00  0.00    +0.000 A 
ATOM     33  C   UNL     1       6.045   8.746  -1.901  0.00  0.00    +0.000 A 
ATOM     35  C   UNL     1       4.711   8.620  -1.511  0.00  0.00    +0.000 A 
ENDBRANCH  24  27
ENDBRANCH  21  24
ENDBRANCH  10  21
ENDBRANCH  15  19
BRANCH  14   9
ATOM      4  O   UNL     1       9.375   5.019  -0.704  0.00  0.00    -0.268 OA
ATOM      9  N   UNL     1      11.247   4.657   0.616  0.00  0.00    -0.307 N 
ATOM     23  C   UNL     1      10.522   4.604  -0.565  0.00  0.00    +0.264 C 
ATOM     38  H   UNL     1      12.173   4.239   0.645  0.00  0.00    +0.149 HD
BRANCH  23  26
ATOM     12  N   UNL     1      10.420   3.348  -2.622  0.00  0.00    -0.247 NA
ATOM     13  N   UNL     1      13.210   3.434  -2.897  0.00  0.00    -0.259 NA
ATOM     26  C   UNL     1      11.207   3.967  -1.719  0.00  0.00    +0.143 A 
ATOM     29  C   UNL     1      12.577   4.010  -1.855  0.00  0.00    +0.143 A 
ATOM     34  C   UNL     1      11.051   2.773  -3.664  0.00  0.00    +0.131 A 
ATOM     37  C   UNL     1      12.422   2.815  -3.799  0.00  0.00    +0.130 A 
ENDBRANCH  23  26
ENDBRANCH  14   9
BRANCH  20  22
ATOM     22  C   UNL     1      11.851   8.231   5.891  0.00  0.00    +0.165 C 
BRANCH  22   1
ATOM      1  S   UNL     1      11.075   8.903   7.367  0.00  0.00    -0.140 S 
BRANCH   1  28
ATOM     28  C   UNL     1       9.400   9.134   6.722  0.00  0.00    +0.189 C 
BRANCH  28  36
ATOM      7  O   UNL     1       8.677   7.499   8.338  0.00  0.00    -0.250 OA
ATOM     36  C   UNL     1       8.503   8.057   7.262  0.00  0.00    +0.315 C 
BRANCH  36   6
ATOM      6  O   UNL     1       7.466   7.775   6.435  0.00  0.00    -0.480 OA
ATOM     42  H   UNL     1       6.914   7.039   6.776  0.00  0.00    +0.295 HD
ENDBRANCH  36   6
ENDBRANCH  28  36
ENDBRANCH   1  28
ENDBRANCH  22   1
ENDBRANCH  20  22
TORSDOF 12
ENDMDL
MODEL 6
REMARK VINA RESULT:      -5.6     28.774     31.915
REMARK  Name = 45783250
REMARK  12 active torsions:
REMARK  status: ('A' for Active; 'I' for Inactive)
REMARK    1  A    between atoms: S_1  and  C_22
REMARK    2  A    between atoms: S_1  and  C_28
REMARK    3  A    between atoms: O_6  and  C_36
REMARK    4  A    between atoms: N_9  and  C_14
REMARK    5  A    between atoms: N_10  and  C_21
REMARK    6  A    between atoms: C_15  and  C_19
REMARK    7  A    between atoms: C_20  and  C_22
REMARK    8  A    between atoms: C_21  and  C_24
REMARK    9  A    between atoms: C_21  and  C_25
REMARK   10  A    between atoms: C_23  and  C_26
REMARK   11  A    between atoms: C_24  and  C_27
REMARK   12  A    between atoms: C_28  and  C_36
REMARK                            x       y       z     vdW  Elec       q    Type
REMARK                         _______ _______ _______ _____ _____    ______ ____
ROOT
ATOM      3  O   UNL     1      -7.228 -12.346  19.330  0.00  0.00    -0.275 OA
ATOM      8  N   UNL     1      -7.621 -11.252  17.314  0.00  0.00    -0.289 N 
ATOM     14  C   UNL     1      -9.100  -9.213  15.838  0.00  0.00    +0.077 C 
ATOM     15  C   UNL     1      -7.458 -11.173  15.852  0.00  0.00    +0.164 C 
ATOM     16  C   UNL     1      -8.639 -10.501  15.150  0.00  0.00    +0.054 C 
ATOM     17  C   UNL     1      -9.339  -9.463  17.324  0.00  0.00    +0.041 C 
ATOM     18  C   UNL     1      -8.093 -10.036  17.987  0.00  0.00    +0.110 C 
ATOM     20  C   UNL     1      -7.216 -12.339  18.097  0.00  0.00    +0.226 C 
ENDROOT
BRANCH  15  19
ATOM      2  O   UNL     1      -5.968  -9.312  15.994  0.00  0.00    -0.274 OA
ATOM     10  N   UNL     1      -5.277 -11.224  14.860  0.00  0.00    -0.302 N 
ATOM     19  C   UNL     1      -6.164 -10.456  15.595  0.00  0.00    +0.234 C 
ATOM     39  H   UNL     1      -5.488 -12.206  14.704  0.00  0.00    +0.150 HD
BRANCH  10  21
ATOM     21  C   UNL     1      -3.970 -10.756  14.461  0.00  0.00    +0.163 C 
BRANCH  21  25
ATOM      5  O   UNL     1      -3.074 -10.838  16.718  0.00  0.00    -0.274 OA
ATOM     11  N   UNL     1      -2.021 -12.047  15.074  0.00  0.00    -0.328 N 
ATOM     25  C   UNL     1      -2.989 -11.185  15.543  0.00  0.00    +0.231 C 
ATOM     40  H   UNL     1      -1.311 -12.420  15.696  0.00  0.00    +0.145 HD
ATOM     41  H   UNL     1      -1.976 -12.342  14.104  0.00  0.00    +0.145 HD
ENDBRANCH  21  25
BRANCH  21  24
ATOM     24  C   UNL     1      -3.543 -11.319  13.100  0.00  0.00    +0.067 C 
BRANCH  24  27
ATOM     27  C   UNL     1      -3.840 -10.378  11.959  0.00  0.00    -0.045 A 
ATOM     30  C   UNL     1      -5.135  -9.895  11.772  0.00  0.00    +0.004 A 
ATOM     31  C   UNL     1      -2.819  -9.990  11.091  0.00  0.00    +0.004 A 
ATOM     32  C   UNL     1      -5.409  -9.024  10.716  0.00  0.00    +0.000 A 
ATOM     33  C   UNL     1      -3.093  -9.120  10.036  0.00  0.00    +0.000 A 
ATOM     35  C   UNL     1      -4.389  -8.637   9.848  0.00  0.00    +0.000 A 
ENDBRANCH  24  27
ENDBRANCH  21  24
ENDBRANCH  10  21
ENDBRANCH  15  19
BRANCH  14   9
ATOM      4  O   UNL     1     -10.014  -6.491  15.878  0.00  0.00    -0.268 OA
ATOM      9  N   UNL     1     -10.292  -8.694  15.212  0.00  0.00    -0.307 N 
ATOM     23  C   UNL     1     -10.652  -7.358  15.287  0.00  0.00    +0.264 C 
ATOM     38  H   UNL     1     -10.914  -9.347  14.742  0.00  0.00    +0.149 HD
BRANCH  23  26
ATOM     12  N   UNL     1     -12.191  -5.670  14.509  0.00  0.00    -0.247 NA
ATOM     13  N   UNL     1     -13.935  -7.623  13.504  0.00  0.00    -0.259 NA
ATOM     26  C   UNL     1     -11.922  -6.988  14.611  0.00  0.00    +0.143 A 
ATOM     29  C   UNL     1     -12.779  -7.947  14.117  0.00  0.00    +0.143 A 
ATOM     34  C   UNL     1     -13.346  -5.346  13.896  0.00  0.00    +0.131 A 
ATOM     37  C   UNL     1     -14.203  -6.306  13.403  0.00  0.00    +0.130 A 
ENDBRANCH  23  26
ENDBRANCH  14   9
BRANCH  20  22
ATOM     22  C   UNL     1      -6.747 -13.570  17.361  0.00  0.00    +0.165 C 
BRANCH  22   1
ATOM      1  S   UNL     1      -4.975 -13.724  17.630  0.00  0.00    -0.140 S 
BRANCH   1  28
ATOM     28  C   UNL     1      -4.663 -15.184  16.608  0.00  0.00    +0.189 C 
BRANCH  28  36
ATOM      7  O   UNL     1      -4.937 -14.288  14.387  0.00  0.00    -0.250 OA
ATOM     36  C   UNL     1      -4.199 -14.753  15.247  0.00  0.00    +0.315 C 
BRANCH  36   6
ATOM      6  O   UNL     1      -2.863 -14.918  15.071  0.00  0.00    -0.480 OA
ATOM     42  H   UNL     1      -2.580 -15.839  15.254  0.00  0.00    +0.295 HD
ENDBRANCH  36   6
ENDBRANCH  28  36
ENDBRANCH   1  28
ENDBRANCH  22   1
ENDBRANCH  20  22
TORSDOF 12
ENDMDL
MODEL 7
REMARK VINA RESULT:      -5.6     17.050     19.711
REMARK  Name = 45783250
REMARK  12 active torsions:
REMARK  status: ('A' for Active; 'I' for Inactive)
REMARK    1  A    between atoms: S_1  and  C_22
REMARK    2  A    between atoms: S_1  and  C_28
REMARK    3  A    between atoms: O_6  and  C_36
REMARK    4  A    between atoms: N_9  and  C_14
REMARK    5  A    between atoms: N_10  and  C_21
REMARK    6  A    between atoms: C_15  and  C_19
REMARK    7  A    between atoms: C_20  and  C_22
REMARK    8  A    between atoms: C_21  and  C_24
REMARK    9  A    between atoms: C_21  and  C_25
REMARK   10  A    between atoms: C_23  and  C_26
REMARK   11  A    between atoms: C_24  and  C_27
REMARK   12  A    between atoms: C_28  and  C_36
REMARK                            x       y       z     vdW  Elec       q    Type
REMARK                         _______ _______ _______ _____ _____    ______ ____
ROOT
ATOM      3  O   UNL     1       7.327   8.396   4.051  0.00  0.00    -0.275 OA
ATOM      8  N   UNL     1       9.346   7.444   3.391  0.00  0.00    -0.289 N 
ATOM     14  C   UNL     1      11.149   6.691   1.220  0.00  0.00    +0.077 C 
ATOM     15  C   UNL     1      10.544   6.646   3.705  0.00  0.00    +0.164 C 
ATOM     16  C   UNL     1      11.076   5.861   2.506  0.00  0.00    +0.054 C 
ATOM     17  C   UNL     1       9.810   7.373   0.955  0.00  0.00    +0.041 C 
ATOM     18  C   UNL     1       9.384   8.221   2.147  0.00  0.00    +0.110 C 
ATOM     20  C   UNL     1       8.264   7.621   4.260  0.00  0.00    +0.226 C 
ENDROOT
BRANCH  15  19
ATOM      2  O   UNL     1      11.346   8.799   4.360  0.00  0.00    -0.274 OA
ATOM     10  N   UNL     1      12.745   6.954   4.601  0.00  0.00    -0.302 N 
ATOM     19  C   UNL     1      11.566   7.595   4.259  0.00  0.00    +0.234 C 
ATOM     39  H   UNL     1      12.768   5.938   4.608  0.00  0.00    +0.150 HD
BRANCH  10  21
ATOM     21  C   UNL     1      13.895   7.646   5.136  0.00  0.00    +0.163 C 
BRANCH  21  25
ATOM      5  O   UNL     1      13.458   8.612   7.323  0.00  0.00    -0.274 OA
ATOM     11  N   UNL     1      13.978   6.378   7.192  0.00  0.00    -0.328 N 
ATOM     25  C   UNL     1      13.764   7.629   6.652  0.00  0.00    +0.231 C 
ATOM     40  H   UNL     1      13.908   6.225   8.193  0.00  0.00    +0.145 HD
ATOM     41  H   UNL     1      14.209   5.570   6.623  0.00  0.00    +0.145 HD
ENDBRANCH  21  25
BRANCH  21  24
ATOM     24  C   UNL     1      15.215   6.995   4.707  0.00  0.00    +0.067 C 
BRANCH  24  27
ATOM     27  C   UNL     1      15.472   7.117   3.225  0.00  0.00    -0.045 A 
ATOM     30  C   UNL     1      16.296   8.132   2.740  0.00  0.00    +0.004 A 
ATOM     31  C   UNL     1      14.885   6.212   2.339  0.00  0.00    +0.004 A 
ATOM     32  C   UNL     1      16.534   8.244   1.370  0.00  0.00    +0.000 A 
ATOM     33  C   UNL     1      15.122   6.325   0.969  0.00  0.00    +0.000 A 
ATOM     35  C   UNL     1      15.946   7.341   0.484  0.00  0.00    +0.000 A 
ENDBRANCH  24  27
ENDBRANCH  21  24
ENDBRANCH  10  21
ENDBRANCH  15  19
BRANCH  14   9
ATOM      4  O   UNL     1       9.813   4.326   0.290  0.00  0.00    -0.268 OA
ATOM      9  N   UNL     1      11.532   5.869   0.099  0.00  0.00    -0.307 N 
ATOM     23  C   UNL     1      10.821   4.740  -0.276  0.00  0.00    +0.264 C 
ATOM     38  H   UNL     1      12.386   6.102  -0.402  0.00  0.00    +0.149 HD
BRANCH  23  26
ATOM     12  N   UNL     1      10.510   3.149  -2.062  0.00  0.00    -0.247 NA
ATOM     13  N   UNL     1      13.168   3.460  -2.899  0.00  0.00    -0.259 NA
ATOM     26  C   UNL     1      11.361   3.987  -1.437  0.00  0.00    +0.143 A 
ATOM     29  C   UNL     1      12.667   4.140  -1.848  0.00  0.00    +0.143 A 
ATOM     34  C   UNL     1      11.011   2.469  -3.112  0.00  0.00    +0.131 A 
ATOM     37  C   UNL     1      12.317   2.622  -3.523  0.00  0.00    +0.130 A 
ENDBRANCH  23  26
ENDBRANCH  14   9
BRANCH  20  22
ATOM     22  C   UNL     1       8.263   6.794   5.522  0.00  0.00    +0.165 C 
BRANCH  22   1
ATOM      1  S   UNL     1       8.428   7.922   6.914  0.00  0.00    -0.140 S 
BRANCH   1  28
ATOM     28  C   UNL     1      10.102   7.477   7.437  0.00  0.00    +0.189 C 
BRANCH  28  36
ATOM      7  O   UNL     1       9.438   5.420   8.503  0.00  0.00    -0.250 OA
ATOM     36  C   UNL     1      10.166   6.002   7.707  0.00  0.00    +0.315 C 
BRANCH  36   6
ATOM      6  O   UNL     1      11.110   5.372   6.964  0.00  0.00    -0.480 OA
ATOM     42  H   UNL     1      11.995   5.409   7.386  0.00  0.00    +0.295 HD
ENDBRANCH  36   6
ENDBRANCH  28  36
ENDBRANCH   1  28
ENDBRANCH  22   1
ENDBRANCH  20  22
TORSDOF 12
ENDMDL
MODEL 8
REMARK VINA RESULT:      -5.5     27.767     31.869
REMARK  Name = 45783250
REMARK  12 active torsions:
REMARK  status: ('A' for Active; 'I' for Inactive)
REMARK    1  A    between atoms: S_1  and  C_22
REMARK    2  A    between atoms: S_1  and  C_28
REMARK    3  A    between atoms: O_6  and  C_36
REMARK    4  A    between atoms: N_9  and  C_14
REMARK    5  A    between atoms: N_10  and  C_21
REMARK    6  A    between atoms: C_15  and  C_19
REMARK    7  A    between atoms: C_20  and  C_22
REMARK    8  A    between atoms: C_21  and  C_24
REMARK    9  A    between atoms: C_21  and  C_25
REMARK   10  A    between atoms: C_23  and  C_26
REMARK   11  A    between atoms: C_24  and  C_27
REMARK   12  A    between atoms: C_28  and  C_36
REMARK                            x       y       z     vdW  Elec       q    Type
REMARK                         _______ _______ _______ _____ _____    ______ ____
ROOT
ATOM      3  O   UNL     1      -7.676 -10.903   9.975  0.00  0.00    -0.275 OA
ATOM      8  N   UNL     1      -7.269 -10.594  12.246  0.00  0.00    -0.289 N 
ATOM     14  C   UNL     1      -8.185 -10.901  15.001  0.00  0.00    +0.077 C 
ATOM     15  C   UNL     1      -6.487  -9.974  13.329  0.00  0.00    +0.164 C 
ATOM     16  C   UNL     1      -7.308  -9.714  14.593  0.00  0.00    +0.054 C 
ATOM     17  C   UNL     1      -9.024 -11.372  13.817  0.00  0.00    +0.041 C 
ATOM     18  C   UNL     1      -8.140 -11.713  12.624  0.00  0.00    +0.110 C 
ATOM     20  C   UNL     1      -7.119 -10.288  10.888  0.00  0.00    +0.226 C 
ENDROOT
BRANCH  15  19
ATOM      2  O   UNL     1      -5.224 -11.986  13.077  0.00  0.00    -0.274 OA
ATOM     10  N   UNL     1      -4.408 -10.311  14.472  0.00  0.00    -0.302 N 
ATOM     19  C   UNL     1      -5.315 -10.875  13.591  0.00  0.00    +0.234 C 
ATOM     39  H   UNL     1      -4.511  -9.332  14.725  0.00  0.00    +0.150 HD
BRANCH  10  21
ATOM     21  C   UNL     1      -3.204 -10.984  14.905  0.00  0.00    +0.163 C 
BRANCH  21  25
ATOM      5  O   UNL     1      -1.825 -10.339  13.012  0.00  0.00    -0.274 OA
ATOM     11  N   UNL     1      -1.254  -9.569  15.100  0.00  0.00    -0.328 N 
ATOM     25  C   UNL     1      -2.033 -10.294  14.222  0.00  0.00    +0.231 C 
ATOM     40  H   UNL     1      -0.447  -9.049  14.771  0.00  0.00    +0.145 HD
ATOM     41  H   UNL     1      -1.451  -9.524  16.094  0.00  0.00    +0.145 HD
ENDBRANCH  21  25
BRANCH  21  24
ATOM     24  C   UNL     1      -3.034 -10.942  16.429  0.00  0.00    +0.067 C 
BRANCH  24  27
ATOM     27  C   UNL     1      -4.261 -11.416  17.168  0.00  0.00    -0.045 A 
ATOM     30  C   UNL     1      -4.970 -10.533  17.981  0.00  0.00    +0.004 A 
ATOM     31  C   UNL     1      -4.686 -12.738  17.036  0.00  0.00    +0.004 A 
ATOM     32  C   UNL     1      -6.106 -10.972  18.664  0.00  0.00    +0.000 A 
ATOM     33  C   UNL     1      -5.820 -13.177  17.720  0.00  0.00    +0.000 A 
ATOM     35  C   UNL     1      -6.530 -12.294  18.534  0.00  0.00    +0.000 A 
ENDBRANCH  24  27
ENDBRANCH  21  24
ENDBRANCH  10  21
ENDBRANCH  15  19
BRANCH  14   9
ATOM      4  O   UNL     1      -9.493 -12.725  16.792  0.00  0.00    -0.268 OA
ATOM      9  N   UNL     1      -9.031 -10.556  16.118  0.00  0.00    -0.307 N 
ATOM     23  C   UNL     1      -9.621 -11.511  16.929  0.00  0.00    +0.264 C 
ATOM     38  H   UNL     1      -9.239  -9.574  16.280  0.00  0.00    +0.149 HD
BRANCH  23  26
ATOM     12  N   UNL     1     -11.588 -10.314  17.647  0.00  0.00    -0.247 NA
ATOM     13  N   UNL     1     -10.945 -10.731  20.345  0.00  0.00    -0.259 NA
ATOM     26  C   UNL     1     -10.485 -10.993  18.021  0.00  0.00    +0.143 A 
ATOM     29  C   UNL     1     -10.169 -11.198  19.346  0.00  0.00    +0.143 A 
ATOM     34  C   UNL     1     -12.363  -9.846  18.646  0.00  0.00    +0.131 A 
ATOM     37  C   UNL     1     -12.047 -10.051  19.971  0.00  0.00    +0.130 A 
ENDBRANCH  23  26
ENDBRANCH  14   9
BRANCH  20  22
ATOM     22  C   UNL     1      -6.222  -9.124  10.548  0.00  0.00    +0.165 C 
BRANCH  22   1
ATOM      1  S   UNL     1      -5.193  -9.617   9.157  0.00  0.00    -0.140 S 
BRANCH   1  28
ATOM     28  C   UNL     1      -3.732 -10.168  10.073  0.00  0.00    +0.189 C 
BRANCH  28  36
ATOM      7  O   UNL     1      -4.231 -12.385   9.268  0.00  0.00    -0.250 OA
ATOM     36  C   UNL     1      -3.702 -11.669  10.110  0.00  0.00    +0.315 C 
BRANCH  36   6
ATOM      6  O   UNL     1      -3.011 -12.154  11.172  0.00  0.00    -0.480 OA
ATOM     42  H   UNL     1      -2.532 -12.982  10.951  0.00  0.00    +0.295 HD
ENDBRANCH  36   6
ENDBRANCH  28  36
ENDBRANCH   1  28
ENDBRANCH  22   1
ENDBRANCH  20  22
TORSDOF 12
ENDMDL
MODEL 9
REMARK VINA RESULT:      -5.4     29.026     31.634
REMARK  Name = 45783250
REMARK  12 active torsions:
REMARK  status: ('A' for Active; 'I' for Inactive)
REMARK    1  A    between atoms: S_1  and  C_22
REMARK    2  A    between atoms: S_1  and  C_28
REMARK    3  A    between atoms: O_6  and  C_36
REMARK    4  A    between atoms: N_9  and  C_14
REMARK    5  A    between atoms: N_10  and  C_21
REMARK    6  A    between atoms: C_15  and  C_19
REMARK    7  A    between atoms: C_20  and  C_22
REMARK    8  A    between atoms: C_21  and  C_24
REMARK    9  A    between atoms: C_21  and  C_25
REMARK   10  A    between atoms: C_23  and  C_26
REMARK   11  A    between atoms: C_24  and  C_27
REMARK   12  A    between atoms: C_28  and  C_36
REMARK                            x       y       z     vdW  Elec       q    Type
REMARK                         _______ _______ _______ _____ _____    ______ ____
ROOT
ATOM      3  O   UNL     1     -11.241  -9.829  17.286  0.00  0.00    -0.275 OA
ATOM      8  N   UNL     1      -9.325 -10.361  16.076  0.00  0.00    -0.289 N 
ATOM     14  C   UNL     1      -7.765 -10.054  13.627  0.00  0.00    +0.077 C 
ATOM     15  C   UNL     1      -8.127 -11.197  15.886  0.00  0.00    +0.164 C 
ATOM     16  C   UNL     1      -7.737 -11.365  14.417  0.00  0.00    +0.054 C 
ATOM     17  C   UNL     1      -9.102  -9.346  13.823  0.00  0.00    +0.041 C 
ATOM     18  C   UNL     1      -9.385  -9.115  15.303  0.00  0.00    +0.110 C 
ATOM     20  C   UNL     1     -10.312 -10.602  17.038  0.00  0.00    +0.226 C 
ENDROOT
BRANCH  15  19
ATOM      2  O   UNL     1      -7.114  -9.428  17.132  0.00  0.00    -0.274 OA
ATOM     10  N   UNL     1      -5.944 -11.420  16.849  0.00  0.00    -0.302 N 
ATOM     19  C   UNL     1      -7.027 -10.572  16.695  0.00  0.00    +0.234 C 
ATOM     39  H   UNL     1      -6.036 -12.392  16.567  0.00  0.00    +0.150 HD
BRANCH  10  21
ATOM     21  C   UNL     1      -4.747 -11.049  17.569  0.00  0.00    +0.163 C 
BRANCH  21  25
ATOM      5  O   UNL     1      -4.773 -13.394  18.204  0.00  0.00    -0.274 OA
ATOM     11  N   UNL     1      -3.270 -11.995  19.232  0.00  0.00    -0.328 N 
ATOM     25  C   UNL     1      -4.300 -12.271  18.357  0.00  0.00    +0.231 C 
ATOM     40  H   UNL     1      -2.868 -12.726  19.810  0.00  0.00    +0.145 HD
ATOM     41  H   UNL     1      -2.874 -11.066  19.332  0.00  0.00    +0.145 HD
ENDBRANCH  21  25
BRANCH  21  24
ATOM     24  C   UNL     1      -3.628 -10.582  16.629  0.00  0.00    +0.067 C 
BRANCH  24  27
ATOM     27  C   UNL     1      -3.661 -11.277  15.290  0.00  0.00    -0.045 A 
ATOM     30  C   UNL     1      -4.106 -10.591  14.160  0.00  0.00    +0.004 A 
ATOM     31  C   UNL     1      -3.246 -12.604  15.183  0.00  0.00    +0.004 A 
ATOM     32  C   UNL     1      -4.135 -11.234  12.921  0.00  0.00    +0.000 A 
ATOM     33  C   UNL     1      -3.276 -13.246  13.945  0.00  0.00    +0.000 A 
ATOM     35  C   UNL     1      -3.721 -12.561  12.814  0.00  0.00    +0.000 A 
ENDBRANCH  24  27
ENDBRANCH  21  24
ENDBRANCH  10  21
ENDBRANCH  15  19
BRANCH  14   9
ATOM      4  O   UNL     1      -6.136  -8.461  11.878  0.00  0.00    -0.268 OA
ATOM      9  N   UNL     1      -7.516 -10.292  12.226  0.00  0.00    -0.307 N 
ATOM     23  C   UNL     1      -6.712  -9.463  11.460  0.00  0.00    +0.264 C 
ATOM     38  H   UNL     1      -7.992 -11.069  11.776  0.00  0.00    +0.149 HD
BRANCH  23  26
ATOM     12  N   UNL     1      -5.379  -9.600   9.454  0.00  0.00    -0.247 NA
ATOM     13  N   UNL     1      -7.519 -10.711   8.022  0.00  0.00    -0.259 NA
ATOM     26  C   UNL     1      -6.578  -9.830  10.027  0.00  0.00    +0.143 A 
ATOM     29  C   UNL     1      -7.628 -10.376   9.324  0.00  0.00    +0.143 A 
ATOM     34  C   UNL     1      -5.269  -9.934   8.153  0.00  0.00    +0.131 A 
ATOM     37  C   UNL     1      -6.321 -10.480   7.450  0.00  0.00    +0.130 A 
ENDBRANCH  23  26
ENDBRANCH  14   9
BRANCH  20  22
ATOM     22  C   UNL     1     -10.215 -11.900  17.802  0.00  0.00    +0.165 C 
BRANCH  22   1
ATOM      1  S   UNL     1     -10.366 -11.515  19.553  0.00  0.00    -0.140 S 
BRANCH   1  28
ATOM     28  C   UNL     1      -9.282 -12.803  20.216  0.00  0.00    +0.189 C 
BRANCH  28  36
ATOM      7  O   UNL     1      -7.190 -11.614  20.093  0.00  0.00    -0.250 OA
ATOM     36  C   UNL     1      -7.876 -12.566  19.745  0.00  0.00    +0.315 C 
BRANCH  36   6
ATOM      6  O   UNL     1      -7.437 -13.531  18.898  0.00  0.00    -0.480 OA
ATOM     42  H   UNL     1      -7.040 -14.288  19.379  0.00  0.00    +0.295 HD
ENDBRANCH  36   6
ENDBRANCH  28  36
ENDBRANCH   1  28
ENDBRANCH  22   1
ENDBRANCH  20  22
TORSDOF 12
ENDMDL
MODEL 10
REMARK VINA RESULT:      -5.4     28.433     31.828
REMARK  Name = 45783250
REMARK  12 active torsions:
REMARK  status: ('A' for Active; 'I' for Inactive)
REMARK    1  A    between atoms: S_1  and  C_22
REMARK    2  A    between atoms: S_1  and  C_28
REMARK    3  A    between atoms: O_6  and  C_36
REMARK    4  A    between atoms: N_9  and  C_14
REMARK    5  A    between atoms: N_10  and  C_21
REMARK    6  A    between atoms: C_15  and  C_19
REMARK    7  A    between atoms: C_20  and  C_22
REMARK    8  A    between atoms: C_21  and  C_24
REMARK    9  A    between atoms: C_21  and  C_25
REMARK   10  A    between atoms: C_23  and  C_26
REMARK   11  A    between atoms: C_24  and  C_27
REMARK   12  A    between atoms: C_28  and  C_36
REMARK                            x       y       z     vdW  Elec       q    Type
REMARK                         _______ _______ _______ _____ _____    ______ ____
ROOT
ATOM      3  O   UNL     1      -8.825 -11.233  16.499  0.00  0.00    -0.275 OA
ATOM      8  N   UNL     1      -7.646 -11.170  14.493  0.00  0.00    -0.289 N 
ATOM     14  C   UNL     1      -7.560 -10.381  11.683  0.00  0.00    +0.077 C 
ATOM     15  C   UNL     1      -6.517 -11.622  13.662  0.00  0.00    +0.164 C 
ATOM     16  C   UNL     1      -6.841 -11.644  12.167  0.00  0.00    +0.054 C 
ATOM     17  C   UNL     1      -8.772 -10.092  12.564  0.00  0.00    +0.041 C 
ATOM     18  C   UNL     1      -8.367  -9.979  14.028  0.00  0.00    +0.110 C 
ATOM     20  C   UNL     1      -7.966 -11.702  15.747  0.00  0.00    +0.226 C 
ENDROOT
BRANCH  15  19
ATOM      2  O   UNL     1      -5.476  -9.743  14.705  0.00  0.00    -0.274 OA
ATOM     10  N   UNL     1      -4.196 -11.124  13.336  0.00  0.00    -0.302 N 
ATOM     19  C   UNL     1      -5.357 -10.723  13.976  0.00  0.00    +0.234 C 
ATOM     39  H   UNL     1      -4.178 -12.027  12.871  0.00  0.00    +0.150 HD
BRANCH  10  21
ATOM     21  C   UNL     1      -2.943 -10.415  13.456  0.00  0.00    +0.163 C 
BRANCH  21  25
ATOM      5  O   UNL     1      -1.614 -12.156  14.507  0.00  0.00    -0.274 OA
ATOM     11  N   UNL     1      -2.108 -10.269  15.719  0.00  0.00    -0.328 N 
ATOM     25  C   UNL     1      -2.167 -11.063  14.593  0.00  0.00    +0.231 C 
ATOM     40  H   UNL     1      -1.609 -10.577  16.548  0.00  0.00    +0.145 HD
ATOM     41  H   UNL     1      -2.552  -9.358  15.769  0.00  0.00    +0.145 HD
ENDBRANCH  21  25
BRANCH  21  24
ATOM     24  C   UNL     1      -2.126 -10.459  12.159  0.00  0.00    +0.067 C 
BRANCH  24  27
ATOM     27  C   UNL     1      -2.991 -10.439  10.923  0.00  0.00    -0.045 A 
ATOM     30  C   UNL     1      -3.295  -9.226  10.304  0.00  0.00    +0.004 A 
ATOM     31  C   UNL     1      -3.485 -11.633  10.398  0.00  0.00    +0.004 A 
ATOM     32  C   UNL     1      -4.094  -9.208   9.160  0.00  0.00    +0.000 A 
ATOM     33  C   UNL     1      -4.285 -11.614   9.256  0.00  0.00    +0.000 A 
ATOM     35  C   UNL     1      -4.589 -10.402   8.636  0.00  0.00    +0.000 A 
ENDBRANCH  24  27
ENDBRANCH  21  24
ENDBRANCH  10  21
ENDBRANCH  15  19
BRANCH  14   9
ATOM      4  O   UNL     1      -7.702  -8.278   9.733  0.00  0.00    -0.268 OA
ATOM      9  N   UNL     1      -7.955 -10.512  10.302  0.00  0.00    -0.307 N 
ATOM     23  C   UNL     1      -7.993  -9.433   9.432  0.00  0.00    +0.264 C 
ATOM     38  H   UNL     1      -8.264 -11.422   9.971  0.00  0.00    +0.149 HD
BRANCH  23  26
ATOM     12  N   UNL     1      -9.117  -8.748   7.411  0.00  0.00    -0.247 NA
ATOM     13  N   UNL     1      -8.602 -11.225   6.201  0.00  0.00    -0.259 NA
ATOM     26  C   UNL     1      -8.446  -9.729   8.049  0.00  0.00    +0.143 A 
ATOM     29  C   UNL     1      -8.193 -10.945   7.454  0.00  0.00    +0.143 A 
ATOM     34  C   UNL     1      -9.525  -9.028   6.158  0.00  0.00    +0.131 A 
ATOM     37  C   UNL     1      -9.273 -10.245   5.564  0.00  0.00    +0.130 A 
ENDBRANCH  23  26
ENDBRANCH  14   9
BRANCH  20  22
ATOM     22  C   UNL     1      -7.206 -12.932  16.179  0.00  0.00    +0.165 C 
BRANCH  22   1
ATOM      1  S   UNL     1      -7.503 -13.167  17.938  0.00  0.00    -0.140 S 
BRANCH   1  28
ATOM     28  C   UNL     1      -6.139 -12.171  18.587  0.00  0.00    +0.189 C 
BRANCH  28  36
ATOM      7  O   UNL     1      -4.154 -11.853  17.258  0.00  0.00    -0.250 OA
ATOM     36  C   UNL     1      -4.855 -12.595  17.934  0.00  0.00    +0.315 C 
BRANCH  36   6
ATOM      6  O   UNL     1      -4.542 -13.891  18.185  0.00  0.00    -0.480 OA
ATOM     42  H   UNL     1      -4.573 -14.098  19.143  0.00  0.00    +0.295 HD
ENDBRANCH  36   6
ENDBRANCH  28  36
ENDBRANCH   1  28
ENDBRANCH  22   1
ENDBRANCH  20  22
TORSDOF 12
ENDMDL
