REMARK  Name = 45783379
REMARK  7 active torsions:
REMARK  status: ('A' for Active; 'I' for Inactive)
REMARK    1  A    between atoms: O_2  and  C_20
REMARK    2  A    between atoms: O_2  and  C_22
REMARK    3  A    between atoms: N_3  and  C_13
REMARK    4  A    between atoms: N_6  and  C_18
REMARK    5  A    between atoms: C_8  and  C_12
REMARK    6  A    between atoms: C_14  and  C_15
REMARK    7  A    between atoms: C_18  and  C_20
REMARK                            x       y       z     vdW  Elec       q    Type
REMARK                         _______ _______ _______ _____ _____    ______ ____
ROOT
ATOM      6  N   UNL     1      -1.386  -1.359   0.276  0.00  0.00    -0.326 N 
ATOM      7  N   UNL     1      -3.696  -1.009  -0.097  0.00  0.00    -0.240 NA
ATOM     15  C   UNL     1      -2.200   0.889  -0.035  0.00  0.00    +0.062 A 
ATOM     16  C   UNL     1      -2.464  -0.469   0.040  0.00  0.00    +0.130 A 
ATOM     17  C   UNL     1      -3.269   1.748  -0.266  0.00  0.00    +0.016 A 
ATOM     19  C   UNL     1      -4.551   1.230  -0.413  0.00  0.00    +0.020 A 
ATOM     21  C   UNL     1      -4.710  -0.143  -0.320  0.00  0.00    +0.113 A 
ATOM     23  H   UNL     1      -0.572  -0.961   0.734  0.00  0.00    +0.148 HD
ENDROOT
BRANCH  15  14
ATOM      1  O   UNL     1       0.739   2.748   0.572  0.00  0.00    -0.336 OA
ATOM      4  N   UNL     1       0.229   0.728  -0.250  0.00  0.00    -0.190 NA
ATOM      5  N   UNL     1      -0.658   2.651   0.615  0.00  0.00    -0.056 NA
ATOM     12  C   UNL     1       1.182   1.575   0.049  0.00  0.00    +0.245 A 
ATOM     14  C   UNL     1      -0.881   1.432   0.115  0.00  0.00    +0.205 A 
BRANCH  12   8
ATOM      3  N   UNL     1       3.212   0.252   0.616  0.00  0.00    -0.294 NA
ATOM      8  C   UNL     1       2.681   1.427  -0.104  0.00  0.00    +0.146 C 
ATOM      9  C   UNL     1       3.112   1.216  -1.567  0.00  0.00    +0.030 C 
ATOM     10  C   UNL     1       3.929  -0.067  -1.560  0.00  0.00    +0.017 C 
ATOM     11  C   UNL     1       4.396  -0.186  -0.123  0.00  0.00    +0.085 C 
ATOM     13  C   UNL     1       3.509   0.522   2.017  0.00  0.00    +0.105 C 
ENDBRANCH  12   8
ENDBRANCH  15  14
BRANCH   6  18
ATOM     18  C   UNL     1      -1.560  -2.771   0.369  0.00  0.00    +0.131 C 
BRANCH  18  20
ATOM     20  C   UNL     1      -0.228  -3.441   0.659  0.00  0.00    +0.178 C 
BRANCH  20   2
ATOM      2  O   UNL     1       0.676  -3.180  -0.408  0.00  0.00    -0.381 OA
ATOM     22  C   UNL     1       1.938  -3.794  -0.184  0.00  0.00    +0.194 C 
ENDBRANCH  20   2
ENDBRANCH  18  20
ENDBRANCH   6  18
TORSDOF 5
