MODEL 1
REMARK VINA RESULT:      -6.8      0.000      0.000
REMARK  Name = 7049398
REMARK  9 active torsions:
REMARK  status: ('A' for Active; 'I' for Inactive)
REMARK    1  A    between atoms: N_6  and  C_15
REMARK    2  A    between atoms: N_7  and  C_20
REMARK    3  A    between atoms: N_8  and  C_27
REMARK    4  A    between atoms: C_11  and  C_16
REMARK    5  A    between atoms: C_14  and  C_19
REMARK    6  A    between atoms: C_20  and  C_22
REMARK    7  A    between atoms: C_20  and  C_24
REMARK    8  A    between atoms: C_22  and  C_23
REMARK    9  A    between atoms: C_27  and  C_31
REMARK                            x       y       z     vdW  Elec       q    Type
REMARK                         _______ _______ _______ _____ _____    ______ ____
ROOT
ATOM      2  O   UNL     1      -5.782  -9.524  15.528  0.00  0.00    -0.274 OA
ATOM      7  N   UNL     1      -5.793 -11.342  16.982  0.00  0.00    -0.302 N 
ATOM     19  C   UNL     1      -6.337 -10.499  16.029  0.00  0.00    +0.234 C 
ATOM     36  H   UNL     1      -6.377 -12.069  17.386  0.00  0.00    +0.150 HD
ENDROOT
BRANCH  19  14
ATOM      1  O   UNL     1      -8.753  -9.042  17.555  0.00  0.00    -0.275 OA
ATOM      5  N   UNL     1      -8.505  -9.722  15.351  0.00  0.00    -0.288 N 
ATOM     14  C   UNL     1      -7.720 -10.915  15.627  0.00  0.00    +0.164 C 
ATOM     15  C   UNL     1      -7.940 -10.641  13.233  0.00  0.00    +0.094 C 
ATOM     16  C   UNL     1      -9.020  -8.922  16.362  0.00  0.00    +0.219 C 
ATOM     17  C   UNL     1      -8.809  -9.597  13.926  0.00  0.00    +0.131 C 
ATOM     18  C   UNL     1      -7.714 -11.699  14.317  0.00  0.00    +0.055 C 
BRANCH  15   6
ATOM      3  O   UNL     1      -7.559  -9.068  10.843  0.00  0.00    -0.253 OA
ATOM      6  N   UNL     1      -6.705 -10.074  12.754  0.00  0.00    -0.295 N 
ATOM      8  N   UNL     1      -5.303  -8.898  11.357  0.00  0.00    -0.296 N 
ATOM     21  C   UNL     1      -6.609  -9.323  11.583  0.00  0.00    +0.300 C 
ATOM     35  H   UNL     1      -5.849 -10.285  13.257  0.00  0.00    +0.151 HD
ATOM     37  H   UNL     1      -4.586  -9.142  12.034  0.00  0.00    +0.151 HD
BRANCH   8  27
ATOM     27  C   UNL     1      -4.926  -8.103  10.213  0.00  0.00    +0.132 C 
BRANCH  27  31
ATOM     31  C   UNL     1      -4.248  -8.979   9.212  0.00  0.00    -0.016 C 
ATOM     34  C   UNL     1      -4.895  -9.677   8.272  0.00  0.00    +0.005 C 
ENDBRANCH  27  31
ENDBRANCH   8  27
ENDBRANCH  15   6
BRANCH  16  11
ATOM     11  C   UNL     1      -9.949  -7.831  15.937  0.00  0.00    +0.075 C 
ATOM     12  C   UNL     1     -11.430  -8.061  16.015  0.00  0.00    +0.013 C 
ATOM     13  C   UNL     1     -10.765  -7.120  16.976  0.00  0.00    +0.013 C 
ENDBRANCH  16  11
ENDBRANCH  19  14
BRANCH   7  20
ATOM     20  C   UNL     1      -4.462 -11.174  17.520  0.00  0.00    +0.163 C 
BRANCH  20  24
ATOM      4  O   UNL     1      -5.522 -11.495  19.683  0.00  0.00    -0.274 OA
ATOM     10  N   UNL     1      -3.329 -12.132  19.429  0.00  0.00    -0.328 N 
ATOM     24  C   UNL     1      -4.517 -11.589  18.984  0.00  0.00    +0.231 C 
ATOM     39  H   UNL     1      -3.235 -12.462  20.383  0.00  0.00    +0.145 HD
ATOM     40  H   UNL     1      -2.514 -12.225  18.832  0.00  0.00    +0.145 HD
ENDBRANCH  20  24
BRANCH  20  22
ATOM     22  C   UNL     1      -3.419 -12.006  16.765  0.00  0.00    +0.069 C 
BRANCH  22  23
ATOM      9  N   UNL     1      -1.395  -9.778  14.655  0.00  0.00    -0.360 N 
ATOM     23  C   UNL     1      -2.718 -11.232  15.685  0.00  0.00    -0.020 A 
ATOM     25  C   UNL     1      -2.885 -11.396  14.282  0.00  0.00    +0.003 A 
ATOM     26  C   UNL     1      -1.796 -10.230  15.882  0.00  0.00    +0.087 A 
ATOM     28  C   UNL     1      -2.043 -10.472  13.658  0.00  0.00    +0.047 A 
ATOM     29  C   UNL     1      -3.674 -12.243  13.478  0.00  0.00    +0.010 A 
ATOM     30  C   UNL     1      -1.951 -10.353  12.267  0.00  0.00    +0.026 A 
ATOM     32  C   UNL     1      -3.592 -12.136  12.086  0.00  0.00    +0.001 A 
ATOM     33  C   UNL     1      -2.742 -11.205  11.491  0.00  0.00    +0.002 A 
ATOM     38  H   UNL     1      -0.719  -9.043  14.501  0.00  0.00    +0.165 HD
ENDBRANCH  22  23
ENDBRANCH  20  22
ENDBRANCH   7  20
TORSDOF 9
ENDMDL
MODEL 2
REMARK VINA RESULT:      -6.5     25.944     28.526
REMARK  Name = 7049398
REMARK  9 active torsions:
REMARK  status: ('A' for Active; 'I' for Inactive)
REMARK    1  A    between atoms: N_6  and  C_15
REMARK    2  A    between atoms: N_7  and  C_20
REMARK    3  A    between atoms: N_8  and  C_27
REMARK    4  A    between atoms: C_11  and  C_16
REMARK    5  A    between atoms: C_14  and  C_19
REMARK    6  A    between atoms: C_20  and  C_22
REMARK    7  A    between atoms: C_20  and  C_24
REMARK    8  A    between atoms: C_22  and  C_23
REMARK    9  A    between atoms: C_27  and  C_31
REMARK                            x       y       z     vdW  Elec       q    Type
REMARK                         _______ _______ _______ _____ _____    ______ ____
ROOT
ATOM      2  O   UNL     1      13.566   9.540  22.667  0.00  0.00    -0.274 OA
ATOM      7  N   UNL     1      12.170   8.752  20.980  0.00  0.00    -0.302 N 
ATOM     19  C   UNL     1      12.788   9.732  21.735  0.00  0.00    +0.234 C 
ATOM     36  H   UNL     1      11.478   9.028  20.288  0.00  0.00    +0.150 HD
ENDROOT
BRANCH  19  14
ATOM      1  O   UNL     1      10.483  11.211  23.405  0.00  0.00    -0.275 OA
ATOM      5  N   UNL     1      12.435  12.002  22.433  0.00  0.00    -0.288 N 
ATOM     14  C   UNL     1      12.425  11.114  21.281  0.00  0.00    +0.164 C 
ATOM     15  C   UNL     1      14.434  12.461  21.232  0.00  0.00    +0.094 C 
ATOM     16  C   UNL     1      11.407  12.020  23.365  0.00  0.00    +0.219 C 
ATOM     17  C   UNL     1      13.543  12.954  22.367  0.00  0.00    +0.131 C 
ATOM     18  C   UNL     1      13.471  11.686  20.328  0.00  0.00    +0.055 C 
BRANCH  15   6
ATOM      3  O   UNL     1      16.223  10.830  19.662  0.00  0.00    -0.253 OA
ATOM      6  N   UNL     1      15.512  11.636  21.719  0.00  0.00    -0.295 N 
ATOM      8  N   UNL     1      17.289  10.177  21.616  0.00  0.00    -0.296 N 
ATOM     21  C   UNL     1      16.331  10.876  20.887  0.00  0.00    +0.300 C 
ATOM     35  H   UNL     1      15.640  11.552  22.723  0.00  0.00    +0.151 HD
ATOM     37  H   UNL     1      17.313  10.292  22.625  0.00  0.00    +0.151 HD
BRANCH   8  27
ATOM     27  C   UNL     1      18.266   9.312  20.999  0.00  0.00    +0.132 C 
BRANCH  27  31
ATOM     31  C   UNL     1      17.964   7.896  21.363  0.00  0.00    -0.016 C 
ATOM     34  C   UNL     1      17.864   6.903  20.474  0.00  0.00    +0.005 C 
ENDBRANCH  27  31
ENDBRANCH   8  27
ENDBRANCH  15   6
BRANCH  16  11
ATOM     11  C   UNL     1      11.465  13.099  24.397  0.00  0.00    +0.075 C 
ATOM     12  C   UNL     1      10.291  14.021  24.557  0.00  0.00    +0.013 C 
ATOM     13  C   UNL     1      10.591  12.998  25.612  0.00  0.00    +0.013 C 
ENDBRANCH  16  11
ENDBRANCH  19  14
BRANCH   7  20
ATOM     20  C   UNL     1      12.371   7.338  21.199  0.00  0.00    +0.163 C 
BRANCH  20  24
ATOM      4  O   UNL     1      10.157   7.409  22.197  0.00  0.00    -0.274 OA
ATOM     10  N   UNL     1      10.885   5.433  21.279  0.00  0.00    -0.328 N 
ATOM     24  C   UNL     1      11.032   6.758  21.633  0.00  0.00    +0.231 C 
ATOM     39  H   UNL     1      10.032   4.929  21.497  0.00  0.00    +0.145 HD
ATOM     40  H   UNL     1      11.608   4.915  20.792  0.00  0.00    +0.145 HD
ENDBRANCH  20  24
BRANCH  20  22
ATOM     22  C   UNL     1      12.885   6.621  19.945  0.00  0.00    +0.069 C 
BRANCH  22  23
ATOM      9  N   UNL     1      14.637   8.885  17.638  0.00  0.00    -0.360 N 
ATOM     23  C   UNL     1      13.347   7.567  18.873  0.00  0.00    -0.020 A 
ATOM     25  C   UNL     1      12.550   8.121  17.833  0.00  0.00    +0.003 A 
ATOM     26  C   UNL     1      14.624   8.055  18.727  0.00  0.00    +0.087 A 
ATOM     28  C   UNL     1      13.384   8.943  17.071  0.00  0.00    +0.047 A 
ATOM     29  C   UNL     1      11.195   8.002  17.463  0.00  0.00    +0.010 A 
ATOM     30  C   UNL     1      12.929   9.655  15.956  0.00  0.00    +0.026 A 
ATOM     32  C   UNL     1      10.726   8.707  16.349  0.00  0.00    +0.001 A 
ATOM     33  C   UNL     1      11.582   9.520  15.608  0.00  0.00    +0.002 A 
ATOM     38  H   UNL     1      15.449   9.380  17.297  0.00  0.00    +0.165 HD
ENDBRANCH  22  23
ENDBRANCH  20  22
ENDBRANCH   7  20
TORSDOF 9
ENDMDL
MODEL 3
REMARK VINA RESULT:      -6.2      2.423      4.004
REMARK  Name = 7049398
REMARK  9 active torsions:
REMARK  status: ('A' for Active; 'I' for Inactive)
REMARK    1  A    between atoms: N_6  and  C_15
REMARK    2  A    between atoms: N_7  and  C_20
REMARK    3  A    between atoms: N_8  and  C_27
REMARK    4  A    between atoms: C_11  and  C_16
REMARK    5  A    between atoms: C_14  and  C_19
REMARK    6  A    between atoms: C_20  and  C_22
REMARK    7  A    between atoms: C_20  and  C_24
REMARK    8  A    between atoms: C_22  and  C_23
REMARK    9  A    between atoms: C_27  and  C_31
REMARK                            x       y       z     vdW  Elec       q    Type
REMARK                         _______ _______ _______ _____ _____    ______ ____
ROOT
ATOM      2  O   UNL     1      -5.341 -10.542  13.598  0.00  0.00    -0.274 OA
ATOM      7  N   UNL     1      -3.581 -11.567  14.726  0.00  0.00    -0.302 N 
ATOM     19  C   UNL     1      -4.911 -11.374  14.393  0.00  0.00    +0.234 C 
ATOM     36  H   UNL     1      -3.351 -12.231  15.461  0.00  0.00    +0.150 HD
ENDROOT
BRANCH  19  14
ATOM      1  O   UNL     1      -4.702 -11.408  17.594  0.00  0.00    -0.275 OA
ATOM      5  N   UNL     1      -6.516 -11.614  16.163  0.00  0.00    -0.288 N 
ATOM     14  C   UNL     1      -5.820 -12.330  15.105  0.00  0.00    +0.164 C 
ATOM     15  C   UNL     1      -8.095 -11.893  14.408  0.00  0.00    +0.094 C 
ATOM     16  C   UNL     1      -5.901 -11.278  17.361  0.00  0.00    +0.219 C 
ATOM     17  C   UNL     1      -7.940 -11.468  15.865  0.00  0.00    +0.131 C 
ATOM     18  C   UNL     1      -6.921 -12.851  14.185  0.00  0.00    +0.055 C 
BRANCH  15   6
ATOM      3  O   UNL     1      -9.147 -11.760  11.724  0.00  0.00    -0.253 OA
ATOM      6  N   UNL     1      -8.057 -10.763  13.515  0.00  0.00    -0.295 N 
ATOM      8  N   UNL     1      -8.420  -9.562  11.585  0.00  0.00    -0.296 N 
ATOM     21  C   UNL     1      -8.592 -10.784  12.228  0.00  0.00    +0.300 C 
ATOM     35  H   UNL     1      -7.559  -9.929  13.812  0.00  0.00    +0.151 HD
ATOM     37  H   UNL     1      -7.964  -8.806  12.089  0.00  0.00    +0.151 HD
BRANCH   8  27
ATOM     27  C   UNL     1      -8.881  -9.313  10.240  0.00  0.00    +0.132 C 
BRANCH  27  31
ATOM     31  C   UNL     1      -7.866  -8.487   9.521  0.00  0.00    -0.016 C 
ATOM     34  C   UNL     1      -7.742  -8.451   8.190  0.00  0.00    +0.005 C 
ENDBRANCH  27  31
ENDBRANCH   8  27
ENDBRANCH  15   6
BRANCH  16  11
ATOM     11  C   UNL     1      -6.782 -10.700  18.420  0.00  0.00    +0.075 C 
ATOM     12  C   UNL     1      -7.286 -11.591  19.518  0.00  0.00    +0.013 C 
ATOM     13  C   UNL     1      -6.248 -10.549  19.814  0.00  0.00    +0.013 C 
ENDBRANCH  16  11
ENDBRANCH  19  14
BRANCH   7  20
ATOM     20  C   UNL     1      -2.503 -10.791  14.159  0.00  0.00    +0.163 C 
BRANCH  20  24
ATOM      4  O   UNL     1      -0.756  -9.495  15.244  0.00  0.00    -0.274 OA
ATOM     10  N   UNL     1      -1.804 -11.149  16.446  0.00  0.00    -0.328 N 
ATOM     24  C   UNL     1      -1.580 -10.404  15.307  0.00  0.00    +0.231 C 
ATOM     39  H   UNL     1      -1.266 -10.983  17.290  0.00  0.00    +0.145 HD
ATOM     40  H   UNL     1      -2.506 -11.880  16.491  0.00  0.00    +0.145 HD
ENDBRANCH  20  24
BRANCH  20  22
ATOM     22  C   UNL     1      -1.728 -11.566  13.086  0.00  0.00    +0.069 C 
BRANCH  22  23
ATOM      9  N   UNL     1      -3.732 -13.155  10.446  0.00  0.00    -0.360 N 
ATOM     23  C   UNL     1      -2.577 -11.948  11.908  0.00  0.00    -0.020 A 
ATOM     25  C   UNL     1      -3.111 -11.067  10.927  0.00  0.00    +0.003 A 
ATOM     26  C   UNL     1      -2.976 -13.225  11.585  0.00  0.00    +0.087 A 
ATOM     28  C   UNL     1      -3.832 -11.849  10.022  0.00  0.00    +0.047 A 
ATOM     29  C   UNL     1      -3.050  -9.674  10.721  0.00  0.00    +0.010 A 
ATOM     30  C   UNL     1      -4.498 -11.306   8.918  0.00  0.00    +0.026 A 
ATOM     32  C   UNL     1      -3.712  -9.117   9.621  0.00  0.00    +0.001 A 
ATOM     33  C   UNL     1      -4.424  -9.922   8.735  0.00  0.00    +0.002 A 
ATOM     38  H   UNL     1      -4.158 -13.946   9.984  0.00  0.00    +0.165 HD
ENDBRANCH  22  23
ENDBRANCH  20  22
ENDBRANCH   7  20
TORSDOF 9
ENDMDL
MODEL 4
REMARK VINA RESULT:      -6.2      1.607      2.207
REMARK  Name = 7049398
REMARK  9 active torsions:
REMARK  status: ('A' for Active; 'I' for Inactive)
REMARK    1  A    between atoms: N_6  and  C_15
REMARK    2  A    between atoms: N_7  and  C_20
REMARK    3  A    between atoms: N_8  and  C_27
REMARK    4  A    between atoms: C_11  and  C_16
REMARK    5  A    between atoms: C_14  and  C_19
REMARK    6  A    between atoms: C_20  and  C_22
REMARK    7  A    between atoms: C_20  and  C_24
REMARK    8  A    between atoms: C_22  and  C_23
REMARK    9  A    between atoms: C_27  and  C_31
REMARK                            x       y       z     vdW  Elec       q    Type
REMARK                         _______ _______ _______ _____ _____    ______ ____
ROOT
ATOM      2  O   UNL     1      -6.982  -9.536  16.025  0.00  0.00    -0.274 OA
ATOM      7  N   UNL     1      -7.485 -11.419  17.299  0.00  0.00    -0.302 N 
ATOM     19  C   UNL     1      -7.747 -10.439  16.358  0.00  0.00    +0.234 C 
ATOM     36  H   UNL     1      -8.227 -12.066  17.554  0.00  0.00    +0.150 HD
ENDROOT
BRANCH  19  14
ATOM      1  O   UNL     1     -10.046  -8.488  17.454  0.00  0.00    -0.275 OA
ATOM      5  N   UNL     1      -9.583  -9.287  15.326  0.00  0.00    -0.288 N 
ATOM     14  C   UNL     1      -9.101 -10.597  15.735  0.00  0.00    +0.164 C 
ATOM     15  C   UNL     1      -8.875 -10.377  13.336  0.00  0.00    +0.094 C 
ATOM     16  C   UNL     1     -10.089  -8.365  16.233  0.00  0.00    +0.219 C 
ATOM     17  C   UNL     1      -9.623  -9.160  13.870  0.00  0.00    +0.131 C 
ATOM     18  C   UNL     1      -9.037 -11.417  14.449  0.00  0.00    +0.055 C 
BRANCH  15   6
ATOM      3  O   UNL     1      -7.807  -9.056  11.003  0.00  0.00    -0.253 OA
ATOM      6  N   UNL     1      -7.492 -10.076  13.064  0.00  0.00    -0.295 N 
ATOM      8  N   UNL     1      -5.679  -9.266  11.900  0.00  0.00    -0.296 N 
ATOM     21  C   UNL     1      -7.061  -9.432  11.906  0.00  0.00    +0.300 C 
ATOM     35  H   UNL     1      -6.788 -10.407  13.717  0.00  0.00    +0.151 HD
ATOM     37  H   UNL     1      -5.145  -9.593  12.701  0.00  0.00    +0.151 HD
BRANCH   8  27
ATOM     27  C   UNL     1      -4.971  -8.627  10.816  0.00  0.00    +0.132 C 
BRANCH  27  31
ATOM     31  C   UNL     1      -3.923  -9.558  10.303  0.00  0.00    -0.016 C 
ATOM     34  C   UNL     1      -2.612  -9.390  10.506  0.00  0.00    +0.005 C 
ENDBRANCH  27  31
ENDBRANCH   8  27
ENDBRANCH  15   6
BRANCH  16  11
ATOM     11  C   UNL     1     -10.706  -7.134  15.653  0.00  0.00    +0.075 C 
ATOM     12  C   UNL     1     -12.195  -6.962  15.721  0.00  0.00    +0.013 C 
ATOM     13  C   UNL     1     -11.303  -6.112  16.575  0.00  0.00    +0.013 C 
ENDBRANCH  16  11
ENDBRANCH  19  14
BRANCH   7  20
ATOM     20  C   UNL     1      -6.240 -11.505  18.027  0.00  0.00    +0.163 C 
BRANCH  20  24
ATOM      4  O   UNL     1      -6.215 -11.010  20.406  0.00  0.00    -0.274 OA
ATOM     10  N   UNL     1      -7.428 -12.818  19.673  0.00  0.00    -0.328 N 
ATOM     24  C   UNL     1      -6.593 -11.736  19.490  0.00  0.00    +0.231 C 
ATOM     39  H   UNL     1      -7.750 -13.074  20.600  0.00  0.00    +0.145 HD
ATOM     40  H   UNL     1      -7.751 -13.394  18.903  0.00  0.00    +0.145 HD
ENDBRANCH  20  24
BRANCH  20  22
ATOM     22  C   UNL     1      -5.338 -12.631  17.508  0.00  0.00    +0.069 C 
BRANCH  22  23
ATOM      9  N   UNL     1      -4.603 -12.405  13.914  0.00  0.00    -0.360 N 
ATOM     23  C   UNL     1      -4.817 -12.377  16.123  0.00  0.00    -0.020 A 
ATOM     25  C   UNL     1      -3.670 -11.608  15.777  0.00  0.00    +0.003 A 
ATOM     26  C   UNL     1      -5.368 -12.854  14.956  0.00  0.00    +0.087 A 
ATOM     28  C   UNL     1      -3.559 -11.641  14.385  0.00  0.00    +0.047 A 
ATOM     29  C   UNL     1      -2.713 -10.885  16.516  0.00  0.00    +0.010 A 
ATOM     30  C   UNL     1      -2.536 -10.985  13.693  0.00  0.00    +0.026 A 
ATOM     32  C   UNL     1      -1.684 -10.223  15.838  0.00  0.00    +0.001 A 
ATOM     33  C   UNL     1      -1.599 -10.273  14.448  0.00  0.00    +0.002 A 
ATOM     38  H   UNL     1      -4.779 -12.603  12.939  0.00  0.00    +0.165 HD
ENDBRANCH  22  23
ENDBRANCH  20  22
ENDBRANCH   7  20
TORSDOF 9
ENDMDL
MODEL 5
REMARK VINA RESULT:      -6.1     27.415     29.960
REMARK  Name = 7049398
REMARK  9 active torsions:
REMARK  status: ('A' for Active; 'I' for Inactive)
REMARK    1  A    between atoms: N_6  and  C_15
REMARK    2  A    between atoms: N_7  and  C_20
REMARK    3  A    between atoms: N_8  and  C_27
REMARK    4  A    between atoms: C_11  and  C_16
REMARK    5  A    between atoms: C_14  and  C_19
REMARK    6  A    between atoms: C_20  and  C_22
REMARK    7  A    between atoms: C_20  and  C_24
REMARK    8  A    between atoms: C_22  and  C_23
REMARK    9  A    between atoms: C_27  and  C_31
REMARK                            x       y       z     vdW  Elec       q    Type
REMARK                         _______ _______ _______ _____ _____    ______ ____
ROOT
ATOM      2  O   UNL     1      13.803  10.313  22.481  0.00  0.00    -0.274 OA
ATOM      7  N   UNL     1      12.964   9.296  20.562  0.00  0.00    -0.302 N 
ATOM     19  C   UNL     1      13.097  10.327  21.475  0.00  0.00    +0.234 C 
ATOM     36  H   UNL     1      12.284   9.389  19.812  0.00  0.00    +0.150 HD
ENDROOT
BRANCH  19  14
ATOM      1  O   UNL     1      10.838  11.220  23.571  0.00  0.00    -0.275 OA
ATOM      5  N   UNL     1      12.267  12.453  22.222  0.00  0.00    -0.288 N 
ATOM     14  C   UNL     1      12.283  11.528  21.099  0.00  0.00    +0.164 C 
ATOM     15  C   UNL     1      13.789  13.366  20.641  0.00  0.00    +0.094 C 
ATOM     16  C   UNL     1      11.475  12.245  23.343  0.00  0.00    +0.219 C 
ATOM     17  C   UNL     1      13.032  13.664  21.931  0.00  0.00    +0.131 C 
ATOM     18  C   UNL     1      12.924  12.306  19.952  0.00  0.00    +0.055 C 
BRANCH  15   6
ATOM      3  O   UNL     1      15.972  13.192  18.762  0.00  0.00    -0.253 OA
ATOM      6  N   UNL     1      15.126  12.896  20.903  0.00  0.00    -0.295 N 
ATOM      8  N   UNL     1      17.317  12.353  20.454  0.00  0.00    -0.296 N 
ATOM     21  C   UNL     1      16.124  12.845  19.932  0.00  0.00    +0.300 C 
ATOM     35  H   UNL     1      15.335  12.522  21.824  0.00  0.00    +0.151 HD
ATOM     37  H   UNL     1      17.354  12.108  21.440  0.00  0.00    +0.151 HD
BRANCH   8  27
ATOM     27  C   UNL     1      18.513  12.196  19.662  0.00  0.00    +0.132 C 
BRANCH  27  31
ATOM     31  C   UNL     1      19.671  11.945  20.570  0.00  0.00    -0.016 C 
ATOM     34  C   UNL     1      20.208  10.737  20.777  0.00  0.00    +0.005 C 
ENDBRANCH  27  31
ENDBRANCH   8  27
ENDBRANCH  15   6
BRANCH  16  11
ATOM     11  C   UNL     1      11.428  13.359  24.338  0.00  0.00    +0.075 C 
ATOM     12  C   UNL     1      10.181  14.187  24.449  0.00  0.00    +0.013 C 
ATOM     13  C   UNL     1      10.543  13.227  25.542  0.00  0.00    +0.013 C 
ENDBRANCH  16  11
ENDBRANCH  19  14
BRANCH   7  20
ATOM     20  C   UNL     1      13.662   8.037  20.683  0.00  0.00    +0.163 C 
BRANCH  20  24
ATOM      4  O   UNL     1      12.204   6.810  19.176  0.00  0.00    -0.274 OA
ATOM     10  N   UNL     1      12.409   6.077  21.343  0.00  0.00    -0.328 N 
ATOM     24  C   UNL     1      12.677   6.941  20.302  0.00  0.00    +0.231 C 
ATOM     39  H   UNL     1      11.778   5.293  21.219  0.00  0.00    +0.145 HD
ATOM     40  H   UNL     1      12.827   6.185  22.262  0.00  0.00    +0.145 HD
ENDBRANCH  20  24
BRANCH  20  22
ATOM     22  C   UNL     1      14.907   7.973  19.790  0.00  0.00    +0.069 C 
BRANCH  22  23
ATOM      9  N   UNL     1      17.765   8.537  22.032  0.00  0.00    -0.360 N 
ATOM     23  C   UNL     1      16.191   7.981  20.568  0.00  0.00    -0.020 A 
ATOM     25  C   UNL     1      17.293   7.097  20.394  0.00  0.00    +0.003 A 
ATOM     26  C   UNL     1      16.512   8.855  21.582  0.00  0.00    +0.087 A 
ATOM     28  C   UNL     1      18.266   7.467  21.326  0.00  0.00    +0.047 A 
ATOM     29  C   UNL     1      17.557   6.015  19.532  0.00  0.00    +0.010 A 
ATOM     30  C   UNL     1      19.494   6.805  21.438  0.00  0.00    +0.026 A 
ATOM     32  C   UNL     1      18.780   5.343  19.634  0.00  0.00    +0.001 A 
ATOM     33  C   UNL     1      19.732   5.734  20.573  0.00  0.00    +0.002 A 
ATOM     38  H   UNL     1      18.251   9.016  22.777  0.00  0.00    +0.165 HD
ENDBRANCH  22  23
ENDBRANCH  20  22
ENDBRANCH   7  20
TORSDOF 9
ENDMDL
MODEL 6
REMARK VINA RESULT:      -5.9      2.657      6.700
REMARK  Name = 7049398
REMARK  9 active torsions:
REMARK  status: ('A' for Active; 'I' for Inactive)
REMARK    1  A    between atoms: N_6  and  C_15
REMARK    2  A    between atoms: N_7  and  C_20
REMARK    3  A    between atoms: N_8  and  C_27
REMARK    4  A    between atoms: C_11  and  C_16
REMARK    5  A    between atoms: C_14  and  C_19
REMARK    6  A    between atoms: C_20  and  C_22
REMARK    7  A    between atoms: C_20  and  C_24
REMARK    8  A    between atoms: C_22  and  C_23
REMARK    9  A    between atoms: C_27  and  C_31
REMARK                            x       y       z     vdW  Elec       q    Type
REMARK                         _______ _______ _______ _____ _____    ______ ____
ROOT
ATOM      2  O   UNL     1      -4.748 -10.578  14.467  0.00  0.00    -0.274 OA
ATOM      7  N   UNL     1      -4.400 -12.225  16.074  0.00  0.00    -0.302 N 
ATOM     19  C   UNL     1      -4.033 -11.413  15.016  0.00  0.00    +0.234 C 
ATOM     36  H   UNL     1      -3.751 -12.940  16.393  0.00  0.00    +0.150 HD
ENDROOT
BRANCH  19  14
ATOM      1  O   UNL     1      -3.037 -14.462  14.956  0.00  0.00    -0.275 OA
ATOM      5  N   UNL     1      -2.586 -12.662  13.564  0.00  0.00    -0.288 N 
ATOM     14  C   UNL     1      -2.612 -11.636  14.594  0.00  0.00    +0.164 C 
ATOM     15  C   UNL     1      -2.275 -10.592  12.438  0.00  0.00    +0.094 C 
ATOM     16  C   UNL     1      -2.730 -14.012  13.855  0.00  0.00    +0.219 C 
ATOM     17  C   UNL     1      -2.222 -12.106  12.262  0.00  0.00    +0.131 C 
ATOM     18  C   UNL     1      -2.018 -10.394  13.935  0.00  0.00    +0.055 C 
BRANCH  15   6
ATOM      3  O   UNL     1      -2.853  -9.199   9.978  0.00  0.00    -0.253 OA
ATOM      6  N   UNL     1      -3.545 -10.050  12.024  0.00  0.00    -0.295 N 
ATOM      8  N   UNL     1      -5.057  -8.970  10.666  0.00  0.00    -0.296 N 
ATOM     21  C   UNL     1      -3.737  -9.388  10.813  0.00  0.00    +0.300 C 
ATOM     35  H   UNL     1      -4.324 -10.095  12.674  0.00  0.00    +0.151 HD
ATOM     37  H   UNL     1      -5.723  -9.189  11.402  0.00  0.00    +0.151 HD
BRANCH   8  27
ATOM     27  C   UNL     1      -5.528  -8.259   9.502  0.00  0.00    +0.132 C 
BRANCH  27  31
ATOM     31  C   UNL     1      -6.115  -9.235   8.537  0.00  0.00    -0.016 C 
ATOM     34  C   UNL     1      -5.416  -9.842   7.572  0.00  0.00    +0.005 C 
ENDBRANCH  27  31
ENDBRANCH   8  27
ENDBRANCH  15   6
BRANCH  16  11
ATOM     11  C   UNL     1      -2.511 -14.962  12.724  0.00  0.00    +0.075 C 
ATOM     12  C   UNL     1      -1.231 -15.744  12.665  0.00  0.00    +0.013 C 
ATOM     13  C   UNL     1      -2.519 -16.438  12.996  0.00  0.00    +0.013 C 
ENDBRANCH  16  11
ENDBRANCH  19  14
BRANCH   7  20
ATOM     20  C   UNL     1      -5.710 -12.188  16.684  0.00  0.00    +0.163 C 
BRANCH  20  24
ATOM      4  O   UNL     1      -7.017 -14.010  17.620  0.00  0.00    -0.274 OA
ATOM     10  N   UNL     1      -4.726 -14.157  17.685  0.00  0.00    -0.328 N 
ATOM     24  C   UNL     1      -5.914 -13.523  17.385  0.00  0.00    +0.231 C 
ATOM     39  H   UNL     1      -4.720 -15.062  18.141  0.00  0.00    +0.145 HD
ATOM     40  H   UNL     1      -3.822 -13.753  17.463  0.00  0.00    +0.145 HD
ENDBRANCH  20  24
BRANCH  20  22
ATOM     22  C   UNL     1      -5.857 -11.031  17.679  0.00  0.00    +0.069 C 
BRANCH  22  23
ATOM      9  N   UNL     1      -8.553  -8.760  16.637  0.00  0.00    -0.360 N 
ATOM     23  C   UNL     1      -7.107 -10.226  17.465  0.00  0.00    -0.020 A 
ATOM     25  C   UNL     1      -8.313 -10.320  18.213  0.00  0.00    +0.003 A 
ATOM     26  C   UNL     1      -7.286  -9.258  16.503  0.00  0.00    +0.087 A 
ATOM     28  C   UNL     1      -9.205  -9.390  17.673  0.00  0.00    +0.047 A 
ATOM     29  C   UNL     1      -8.735 -11.108  19.302  0.00  0.00    +0.010 A 
ATOM     30  C   UNL     1     -10.501  -9.209  18.168  0.00  0.00    +0.026 A 
ATOM     32  C   UNL     1     -10.028 -10.939  19.808  0.00  0.00    +0.001 A 
ATOM     33  C   UNL     1     -10.896 -10.004  19.248  0.00  0.00    +0.002 A 
ATOM     38  H   UNL     1      -8.955  -8.036  16.057  0.00  0.00    +0.165 HD
ENDBRANCH  22  23
ENDBRANCH  20  22
ENDBRANCH   7  20
TORSDOF 9
ENDMDL
MODEL 7
REMARK VINA RESULT:      -5.8     24.192     27.783
REMARK  Name = 7049398
REMARK  9 active torsions:
REMARK  status: ('A' for Active; 'I' for Inactive)
REMARK    1  A    between atoms: N_6  and  C_15
REMARK    2  A    between atoms: N_7  and  C_20
REMARK    3  A    between atoms: N_8  and  C_27
REMARK    4  A    between atoms: C_11  and  C_16
REMARK    5  A    between atoms: C_14  and  C_19
REMARK    6  A    between atoms: C_20  and  C_22
REMARK    7  A    between atoms: C_20  and  C_24
REMARK    8  A    between atoms: C_22  and  C_23
REMARK    9  A    between atoms: C_27  and  C_31
REMARK                            x       y       z     vdW  Elec       q    Type
REMARK                         _______ _______ _______ _____ _____    ______ ____
ROOT
ATOM      2  O   UNL     1      13.622   5.874   2.361  0.00  0.00    -0.274 OA
ATOM      7  N   UNL     1      11.546   4.851   2.614  0.00  0.00    -0.302 N 
ATOM     19  C   UNL     1      12.860   4.925   2.187  0.00  0.00    +0.234 C 
ATOM     36  H   UNL     1      10.985   4.049   2.340  0.00  0.00    +0.150 HD
ENDROOT
BRANCH  19  14
ATOM      1  O   UNL     1      10.812   3.718   0.033  0.00  0.00    -0.275 OA
ATOM      5  N   UNL     1      13.128   3.862   0.051  0.00  0.00    -0.288 N 
ATOM     14  C   UNL     1      13.301   3.677   1.483  0.00  0.00    +0.164 C 
ATOM     15  C   UNL     1      15.458   4.086   0.467  0.00  0.00    +0.094 C 
ATOM     16  C   UNL     1      11.884   3.791  -0.562  0.00  0.00    +0.219 C 
ATOM     17  C   UNL     1      14.414   3.950  -0.638  0.00  0.00    +0.131 C 
ATOM     18  C   UNL     1      14.793   3.419   1.674  0.00  0.00    +0.055 C 
BRANCH  15   6
ATOM      3  O   UNL     1      17.222   5.759  -1.087  0.00  0.00    -0.253 OA
ATOM      6  N   UNL     1      15.792   5.465   0.718  0.00  0.00    -0.295 N 
ATOM      8  N   UNL     1      16.803   7.505   0.381  0.00  0.00    -0.296 N 
ATOM     21  C   UNL     1      16.658   6.203  -0.087  0.00  0.00    +0.300 C 
ATOM     35  H   UNL     1      15.431   5.905   1.559  0.00  0.00    +0.151 HD
ATOM     37  H   UNL     1      16.282   7.788   1.206  0.00  0.00    +0.151 HD
BRANCH   8  27
ATOM     27  C   UNL     1      17.645   8.482  -0.268  0.00  0.00    +0.132 C 
BRANCH  27  31
ATOM     31  C   UNL     1      18.994   8.465   0.371  0.00  0.00    -0.016 C 
ATOM     34  C   UNL     1      19.217   8.082   1.633  0.00  0.00    +0.005 C 
ENDBRANCH  27  31
ENDBRANCH   8  27
ENDBRANCH  15   6
BRANCH  16  11
ATOM     11  C   UNL     1      11.878   3.829  -2.056  0.00  0.00    +0.075 C 
ATOM     12  C   UNL     1      11.825   2.538  -2.819  0.00  0.00    +0.013 C 
ATOM     13  C   UNL     1      10.629   3.443  -2.792  0.00  0.00    +0.013 C 
ENDBRANCH  16  11
ENDBRANCH  19  14
BRANCH   7  20
ATOM     20  C   UNL     1      10.888   5.914   3.339  0.00  0.00    +0.163 C 
BRANCH  20  24
ATOM      4  O   UNL     1       9.782   6.975   1.454  0.00  0.00    -0.274 OA
ATOM     10  N   UNL     1      11.398   8.153   2.584  0.00  0.00    -0.328 N 
ATOM     24  C   UNL     1      10.624   7.036   2.345  0.00  0.00    +0.231 C 
ATOM     39  H   UNL     1      11.311   8.979   2.002  0.00  0.00    +0.145 HD
ATOM     40  H   UNL     1      12.073   8.198   3.340  0.00  0.00    +0.145 HD
ENDBRANCH  20  24
BRANCH  20  22
ATOM     22  C   UNL     1       9.577   5.452   3.987  0.00  0.00    +0.069 C 
BRANCH  22  23
ATOM      9  N   UNL     1       8.724   7.686   6.778  0.00  0.00    -0.360 N 
ATOM     23  C   UNL     1       9.291   6.139   5.292  0.00  0.00    -0.020 A 
ATOM     25  C   UNL     1       9.409   5.571   6.591  0.00  0.00    +0.003 A 
ATOM     26  C   UNL     1       8.869   7.440   5.440  0.00  0.00    +0.087 A 
ATOM     28  C   UNL     1       9.046   6.563   7.506  0.00  0.00    +0.047 A 
ATOM     29  C   UNL     1       9.789   4.306   7.080  0.00  0.00    +0.010 A 
ATOM     30  C   UNL     1       9.045   6.351   8.889  0.00  0.00    +0.026 A 
ATOM     32  C   UNL     1       9.793   4.079   8.460  0.00  0.00    +0.001 A 
ATOM     33  C   UNL     1       9.426   5.087   9.349  0.00  0.00    +0.002 A 
ATOM     38  H   UNL     1       8.422   8.565   7.176  0.00  0.00    +0.165 HD
ENDBRANCH  22  23
ENDBRANCH  20  22
ENDBRANCH   7  20
TORSDOF 9
ENDMDL
MODEL 8
REMARK VINA RESULT:      -5.8     24.221     27.552
REMARK  Name = 7049398
REMARK  9 active torsions:
REMARK  status: ('A' for Active; 'I' for Inactive)
REMARK    1  A    between atoms: N_6  and  C_15
REMARK    2  A    between atoms: N_7  and  C_20
REMARK    3  A    between atoms: N_8  and  C_27
REMARK    4  A    between atoms: C_11  and  C_16
REMARK    5  A    between atoms: C_14  and  C_19
REMARK    6  A    between atoms: C_20  and  C_22
REMARK    7  A    between atoms: C_20  and  C_24
REMARK    8  A    between atoms: C_22  and  C_23
REMARK    9  A    between atoms: C_27  and  C_31
REMARK                            x       y       z     vdW  Elec       q    Type
REMARK                         _______ _______ _______ _____ _____    ______ ____
ROOT
ATOM      2  O   UNL     1      12.692   8.486   3.817  0.00  0.00    -0.274 OA
ATOM      7  N   UNL     1      12.116   6.282   4.295  0.00  0.00    -0.302 N 
ATOM     19  C   UNL     1      12.757   7.486   4.528  0.00  0.00    +0.234 C 
ATOM     36  H   UNL     1      12.311   5.495   4.909  0.00  0.00    +0.150 HD
ENDROOT
BRANCH  19  14
ATOM      1  O   UNL     1      15.919   7.059   4.205  0.00  0.00    -0.275 OA
ATOM      5  N   UNL     1      14.680   8.380   5.654  0.00  0.00    -0.288 N 
ATOM     14  C   UNL     1      13.555   7.469   5.797  0.00  0.00    +0.164 C 
ATOM     15  C   UNL     1      13.095   9.503   7.024  0.00  0.00    +0.094 C 
ATOM     16  C   UNL     1      15.811   8.053   4.917  0.00  0.00    +0.219 C 
ATOM     17  C   UNL     1      14.529   9.557   6.507  0.00  0.00    +0.131 C 
ATOM     18  C   UNL     1      12.751   8.011   6.976  0.00  0.00    +0.055 C 
BRANCH  15   6
ATOM      3  O   UNL     1      10.390  10.279   7.660  0.00  0.00    -0.253 OA
ATOM      6  N   UNL     1      12.206  10.297   6.214  0.00  0.00    -0.295 N 
ATOM      8  N   UNL     1      10.271  11.400   5.633  0.00  0.00    -0.296 N 
ATOM     21  C   UNL     1      10.908  10.626   6.599  0.00  0.00    +0.300 C 
ATOM     35  H   UNL     1      12.515  10.576   5.288  0.00  0.00    +0.151 HD
ATOM     37  H   UNL     1      10.786  11.654   4.794  0.00  0.00    +0.151 HD
BRANCH   8  27
ATOM     27  C   UNL     1       8.917  11.879   5.779  0.00  0.00    +0.132 C 
BRANCH  27  31
ATOM     31  C   UNL     1       8.044  11.185   4.787  0.00  0.00    -0.016 C 
ATOM     34  C   UNL     1       7.428  11.805   3.774  0.00  0.00    +0.005 C 
ENDBRANCH  27  31
ENDBRANCH   8  27
ENDBRANCH  15   6
BRANCH  16  11
ATOM     11  C   UNL     1      16.955   9.010   4.999  0.00  0.00    +0.075 C 
ATOM     12  C   UNL     1      18.027   8.780   6.024  0.00  0.00    +0.013 C 
ATOM     13  C   UNL     1      18.319   8.557   4.570  0.00  0.00    +0.013 C 
ENDBRANCH  16  11
ENDBRANCH  19  14
BRANCH   7  20
ATOM     20  C   UNL     1      11.265   6.046   3.152  0.00  0.00    +0.163 C 
BRANCH  20  24
ATOM      4  O   UNL     1      12.673   5.014   1.462  0.00  0.00    -0.274 OA
ATOM     10  N   UNL     1      11.450   3.654   2.853  0.00  0.00    -0.328 N 
ATOM     24  C   UNL     1      11.866   4.881   2.379  0.00  0.00    +0.231 C 
ATOM     39  H   UNL     1      11.788   2.794   2.435  0.00  0.00    +0.145 HD
ATOM     40  H   UNL     1      10.802   3.560   3.628  0.00  0.00    +0.145 HD
ENDBRANCH  20  24
BRANCH  20  22
ATOM     22  C   UNL     1       9.819   5.733   3.556  0.00  0.00    +0.069 C 
BRANCH  22  23
ATOM      9  N   UNL     1       8.603   7.972   6.206  0.00  0.00    -0.360 N 
ATOM     23  C   UNL     1       9.394   6.434   4.815  0.00  0.00    -0.020 A 
ATOM     25  C   UNL     1       9.481   5.922   6.140  0.00  0.00    +0.003 A 
ATOM     26  C   UNL     1       8.851   7.695   4.889  0.00  0.00    +0.087 A 
ATOM     28  C   UNL     1       8.977   6.906   6.994  0.00  0.00    +0.047 A 
ATOM     29  C   UNL     1       9.940   4.712   6.698  0.00  0.00    +0.010 A 
ATOM     30  C   UNL     1       8.910   6.741   8.381  0.00  0.00    +0.026 A 
ATOM     32  C   UNL     1       9.879   4.532   8.083  0.00  0.00    +0.001 A 
ATOM     33  C   UNL     1       9.371   5.532   8.911  0.00  0.00    +0.002 A 
ATOM     38  H   UNL     1       8.201   8.832   6.551  0.00  0.00    +0.165 HD
ENDBRANCH  22  23
ENDBRANCH  20  22
ENDBRANCH   7  20
TORSDOF 9
ENDMDL
MODEL 9
REMARK VINA RESULT:      -5.8      3.129      6.844
REMARK  Name = 7049398
REMARK  9 active torsions:
REMARK  status: ('A' for Active; 'I' for Inactive)
REMARK    1  A    between atoms: N_6  and  C_15
REMARK    2  A    between atoms: N_7  and  C_20
REMARK    3  A    between atoms: N_8  and  C_27
REMARK    4  A    between atoms: C_11  and  C_16
REMARK    5  A    between atoms: C_14  and  C_19
REMARK    6  A    between atoms: C_20  and  C_22
REMARK    7  A    between atoms: C_20  and  C_24
REMARK    8  A    between atoms: C_22  and  C_23
REMARK    9  A    between atoms: C_27  and  C_31
REMARK                            x       y       z     vdW  Elec       q    Type
REMARK                         _______ _______ _______ _____ _____    ______ ____
ROOT
ATOM      2  O   UNL     1      -5.799 -10.810  11.440  0.00  0.00    -0.274 OA
ATOM      7  N   UNL     1      -3.884 -11.374  12.637  0.00  0.00    -0.302 N 
ATOM     19  C   UNL     1      -4.585 -10.984  11.510  0.00  0.00    +0.234 C 
ATOM     36  H   UNL     1      -2.890 -11.569  12.554  0.00  0.00    +0.150 HD
ENDROOT
BRANCH  19  14
ATOM      1  O   UNL     1      -3.752 -13.599   9.849  0.00  0.00    -0.275 OA
ATOM      5  N   UNL     1      -4.254 -11.437   9.175  0.00  0.00    -0.288 N 
ATOM     14  C   UNL     1      -3.686 -10.761  10.331  0.00  0.00    +0.164 C 
ATOM     15  C   UNL     1      -4.716  -9.125   8.876  0.00  0.00    +0.094 C 
ATOM     16  C   UNL     1      -4.167 -12.812   9.003  0.00  0.00    +0.219 C 
ATOM     17  C   UNL     1      -4.745 -10.482   8.182  0.00  0.00    +0.131 C 
ATOM     18  C   UNL     1      -3.626  -9.286   9.940  0.00  0.00    +0.055 C 
BRANCH  15   6
ATOM      3  O   UNL     1      -7.115  -8.374   7.459  0.00  0.00    -0.253 OA
ATOM      6  N   UNL     1      -5.996  -8.791   9.449  0.00  0.00    -0.295 N 
ATOM      8  N   UNL     1      -8.211  -8.167   9.492  0.00  0.00    -0.296 N 
ATOM     21  C   UNL     1      -7.108  -8.438   8.688  0.00  0.00    +0.300 C 
ATOM     35  H   UNL     1      -6.076  -8.747  10.461  0.00  0.00    +0.151 HD
ATOM     37  H   UNL     1      -8.115  -8.264  10.500  0.00  0.00    +0.151 HD
BRANCH   8  27
ATOM     27  C   UNL     1      -9.494  -7.776   8.958  0.00  0.00    +0.132 C 
BRANCH  27  31
ATOM     31  C   UNL     1      -9.471  -6.315   8.653  0.00  0.00    -0.016 C 
ATOM     34  C   UNL     1     -10.468  -5.475   8.953  0.00  0.00    +0.005 C 
ENDBRANCH  27  31
ENDBRANCH   8  27
ENDBRANCH  15   6
BRANCH  16  11
ATOM     11  C   UNL     1      -4.641 -13.347   7.691  0.00  0.00    +0.075 C 
ATOM     12  C   UNL     1      -3.633 -13.662   6.624  0.00  0.00    +0.013 C 
ATOM     13  C   UNL     1      -4.346 -14.774   7.334  0.00  0.00    +0.013 C 
ENDBRANCH  16  11
ENDBRANCH  19  14
BRANCH   7  20
ATOM     20  C   UNL     1      -4.514 -11.630  13.912  0.00  0.00    +0.163 C 
BRANCH  20  24
ATOM      4  O   UNL     1      -4.862 -14.034  13.976  0.00  0.00    -0.274 OA
ATOM     10  N   UNL     1      -2.997 -13.167  14.999  0.00  0.00    -0.328 N 
ATOM     24  C   UNL     1      -4.179 -13.064  14.296  0.00  0.00    +0.231 C 
ATOM     39  H   UNL     1      -2.650 -14.069  15.304  0.00  0.00    +0.145 HD
ATOM     40  H   UNL     1      -2.431 -12.358  15.235  0.00  0.00    +0.145 HD
ENDBRANCH  20  24
BRANCH  20  22
ATOM     22  C   UNL     1      -4.043 -10.659  15.001  0.00  0.00    +0.069 C 
BRANCH  22  23
ATOM      9  N   UNL     1      -6.933  -9.573  16.995  0.00  0.00    -0.360 N 
ATOM     23  C   UNL     1      -5.100 -10.365  16.026  0.00  0.00    -0.020 A 
ATOM     25  C   UNL     1      -5.120 -10.817  17.375  0.00  0.00    +0.003 A 
ATOM     26  C   UNL     1      -6.228  -9.603  15.823  0.00  0.00    +0.087 A 
ATOM     28  C   UNL     1      -6.282 -10.307  17.961  0.00  0.00    +0.047 A 
ATOM     29  C   UNL     1      -4.261 -11.613  18.158  0.00  0.00    +0.010 A 
ATOM     30  C   UNL     1      -6.626 -10.554  19.294  0.00  0.00    +0.026 A 
ATOM     32  C   UNL     1      -4.593 -11.869  19.492  0.00  0.00    +0.001 A 
ATOM     33  C   UNL     1      -5.759 -11.347  20.050  0.00  0.00    +0.002 A 
ATOM     38  H   UNL     1      -7.808  -9.086  17.132  0.00  0.00    +0.165 HD
ENDBRANCH  22  23
ENDBRANCH  20  22
ENDBRANCH   7  20
TORSDOF 9
ENDMDL
MODEL 10
REMARK VINA RESULT:      -5.8     27.085     30.066
REMARK  Name = 7049398
REMARK  9 active torsions:
REMARK  status: ('A' for Active; 'I' for Inactive)
REMARK    1  A    between atoms: N_6  and  C_15
REMARK    2  A    between atoms: N_7  and  C_20
REMARK    3  A    between atoms: N_8  and  C_27
REMARK    4  A    between atoms: C_11  and  C_16
REMARK    5  A    between atoms: C_14  and  C_19
REMARK    6  A    between atoms: C_20  and  C_22
REMARK    7  A    between atoms: C_20  and  C_24
REMARK    8  A    between atoms: C_22  and  C_23
REMARK    9  A    between atoms: C_27  and  C_31
REMARK                            x       y       z     vdW  Elec       q    Type
REMARK                         _______ _______ _______ _____ _____    ______ ____
ROOT
ATOM      2  O   UNL     1      12.615   8.725  22.249  0.00  0.00    -0.274 OA
ATOM      7  N   UNL     1      14.296   9.837  21.084  0.00  0.00    -0.302 N 
ATOM     19  C   UNL     1      13.305   8.884  21.245  0.00  0.00    +0.234 C 
ATOM     36  H   UNL     1      14.860   9.820  20.239  0.00  0.00    +0.150 HD
ENDROOT
BRANCH  19  14
ATOM      1  O   UNL     1      12.714  10.459  18.514  0.00  0.00    -0.275 OA
ATOM      5  N   UNL     1      13.973   8.563  18.962  0.00  0.00    -0.288 N 
ATOM     14  C   UNL     1      13.125   8.039  20.021  0.00  0.00    +0.164 C 
ATOM     15  C   UNL     1      15.065   6.614  19.775  0.00  0.00    +0.094 C 
ATOM     16  C   UNL     1      13.645   9.705  18.244  0.00  0.00    +0.219 C 
ATOM     17  C   UNL     1      15.077   7.653  18.658  0.00  0.00    +0.131 C 
ATOM     18  C   UNL     1      13.607   6.609  20.247  0.00  0.00    +0.055 C 
BRANCH  15   6
ATOM      3  O   UNL     1      17.916   6.176  19.815  0.00  0.00    -0.253 OA
ATOM      6  N   UNL     1      15.982   6.957  20.833  0.00  0.00    -0.295 N 
ATOM      8  N   UNL     1      18.000   7.140  21.923  0.00  0.00    -0.296 N 
ATOM     21  C   UNL     1      17.352   6.709  20.770  0.00  0.00    +0.300 C 
ATOM     35  H   UNL     1      15.604   7.340  21.694  0.00  0.00    +0.151 HD
ATOM     37  H   UNL     1      17.452   7.587  22.653  0.00  0.00    +0.151 HD
BRANCH   8  27
ATOM     27  C   UNL     1      19.424   7.003  22.119  0.00  0.00    +0.132 C 
BRANCH  27  31
ATOM     31  C   UNL     1      20.096   8.278  21.732  0.00  0.00    -0.016 C 
ATOM     34  C   UNL     1      21.145   8.795  22.381  0.00  0.00    +0.005 C 
ENDBRANCH  27  31
ENDBRANCH   8  27
ENDBRANCH  15   6
BRANCH  16  11
ATOM     11  C   UNL     1      14.518  10.028  17.075  0.00  0.00    +0.075 C 
ATOM     12  C   UNL     1      14.113   9.557  15.709  0.00  0.00    +0.013 C 
ATOM     13  C   UNL     1      14.037  11.015  16.054  0.00  0.00    +0.013 C 
ENDBRANCH  16  11
ENDBRANCH  19  14
BRANCH   7  20
ATOM     20  C   UNL     1      14.649  10.792  22.109  0.00  0.00    +0.163 C 
BRANCH  20  24
ATOM      4  O   UNL     1      16.896  10.026  21.589  0.00  0.00    -0.274 OA
ATOM     10  N   UNL     1      16.622  11.559  23.278  0.00  0.00    -0.328 N 
ATOM     24  C   UNL     1      16.160  10.720  22.285  0.00  0.00    +0.231 C 
ATOM     39  H   UNL     1      17.612  11.618  23.489  0.00  0.00    +0.145 HD
ATOM     40  H   UNL     1      16.004  12.145  23.828  0.00  0.00    +0.145 HD
ENDBRANCH  20  24
BRANCH  20  22
ATOM     22  C   UNL     1      14.218  12.220  21.749  0.00  0.00    +0.069 C 
BRANCH  22  23
ATOM      9  N   UNL     1      10.607  12.834  22.056  0.00  0.00    -0.360 N 
ATOM     23  C   UNL     1      12.803  12.526  22.148  0.00  0.00    -0.020 A 
ATOM     25  C   UNL     1      12.353  12.903  23.444  0.00  0.00    +0.003 A 
ATOM     26  C   UNL     1      11.708  12.493  21.317  0.00  0.00    +0.087 A 
ATOM     28  C   UNL     1      10.971  13.090  23.359  0.00  0.00    +0.047 A 
ATOM     29  C   UNL     1      12.988  13.105  24.685  0.00  0.00    +0.010 A 
ATOM     30  C   UNL     1      10.191  13.470  24.457  0.00  0.00    +0.026 A 
ATOM     32  C   UNL     1      12.221  13.484  25.792  0.00  0.00    +0.001 A 
ATOM     33  C   UNL     1      10.844  13.663  25.678  0.00  0.00    +0.002 A 
ATOM     38  H   UNL     1       9.664  12.889  21.699  0.00  0.00    +0.165 HD
ENDBRANCH  22  23
ENDBRANCH  20  22
ENDBRANCH   7  20
TORSDOF 9
ENDMDL
