MODEL 1
REMARK VINA RESULT:      -6.2      0.000      0.000
REMARK  Name = 38027224
REMARK  15 active torsions:
REMARK  status: ('A' for Active; 'I' for Inactive)
REMARK    1  A    between atoms: N_3  and  C_12
REMARK    2  A    between atoms: N_4  and  C_20
REMARK    3  A    between atoms: N_4  and  C_24
REMARK    4  A    between atoms: C_5  and  C_9
REMARK    5  A    between atoms: C_6  and  C_12
REMARK    6  A    between atoms: C_8  and  C_13
REMARK    7  A    between atoms: C_9  and  C_14
REMARK    8  A    between atoms: C_9  and  C_15
REMARK    9  A    between atoms: C_10  and  C_16
REMARK   10  A    between atoms: C_13  and  C_17
REMARK   11  A    between atoms: C_18  and  C_19
REMARK   12  A    between atoms: C_19  and  C_21
REMARK   13  A    between atoms: C_19  and  C_22
REMARK   14  A    between atoms: C_19  and  C_23
REMARK   15  A    between atoms: C_20  and  C_25
REMARK                            x       y       z     vdW  Elec       q    Type
REMARK                         _______ _______ _______ _____ _____    ______ ____
ROOT
ATOM      5  C   UNL     1      -7.033 -10.330  16.087  0.00  0.00    +0.000 C 
ATOM      6  C   UNL     1      -6.009 -10.031  14.963  0.00  0.00    +0.032 C 
ATOM      7  C   UNL     1      -6.468  -9.911  17.452  0.00  0.00    +0.012 C 
ATOM      8  C   UNL     1      -5.151 -10.637  17.785  0.00  0.00    +0.023 C 
ATOM     10  C   UNL     1      -4.185 -10.616  16.618  0.00  0.00    -0.073 C 
ATOM     11  C   UNL     1      -4.584 -10.330  15.366  0.00  0.00    -0.022 C 
ATOM     16  C   UNL     1      -2.739 -10.885  16.932  0.00  0.00    +0.039 C 
ENDROOT
BRANCH   5   9
ATOM      9  C   UNL     1      -8.370  -9.626  15.840  0.00  0.00    -0.013 C 
ATOM     14  C   UNL     1      -9.468 -10.649  15.567  0.00  0.00    +0.007 C 
ATOM     15  C   UNL     1      -8.735  -8.744  17.029  0.00  0.00    +0.007 C 
ENDBRANCH   5   9
BRANCH   6  12
ATOM     12  C   UNL     1      -6.350 -10.804  13.683  0.00  0.00    +0.112 C 
BRANCH  12   3
ATOM      2  O   UNL     1      -5.491  -8.996  11.654  0.00  0.00    -0.275 OA
ATOM      3  N   UNL     1      -5.194 -10.949  12.855  0.00  0.00    -0.314 N 
ATOM     18  C   UNL     1      -4.838 -10.016  11.880  0.00  0.00    +0.218 C 
ATOM     31  H   UNL     1      -4.580 -11.739  13.028  0.00  0.00    +0.149 HD
BRANCH  18  19
ATOM     19  C   UNL     1      -3.551 -10.358  11.099  0.00  0.00    +0.039 C 
ATOM     21  C   UNL     1      -3.205  -9.217  10.129  0.00  0.00    +0.020 C 
ATOM     22  C   UNL     1      -2.385 -10.532  12.087  0.00  0.00    +0.020 C 
ATOM     23  C   UNL     1      -3.738 -11.671  10.325  0.00  0.00    +0.020 C 
ENDBRANCH  18  19
ENDBRANCH  12   3
ENDBRANCH   6  12
BRANCH   8  13
ATOM     13  C   UNL     1      -5.414 -12.072  18.254  0.00  0.00    +0.103 C 
BRANCH  13  17
ATOM      1  O   UNL     1      -6.495 -11.546  20.328  0.00  0.00    -0.276 OA
ATOM      4  N   UNL     1      -7.643 -12.940  18.874  0.00  0.00    -0.300 N 
ATOM     17  C   UNL     1      -6.552 -12.150  19.255  0.00  0.00    +0.216 C 
ATOM     24  C   UNL     1      -7.690 -13.646  17.600  0.00  0.00    +0.132 C 
BRANCH   4  20
ATOM     20  C   UNL     1      -8.816 -13.117  19.726  0.00  0.00    +0.142 C 
BRANCH  20  25
ATOM     25  C   UNL     1      -9.906 -12.140  19.391  0.00  0.00    -0.030 A 
ATOM     26  C   UNL     1     -10.892 -12.484  18.467  0.00  0.00    +0.005 A 
ATOM     27  C   UNL     1      -9.934 -10.889  20.006  0.00  0.00    +0.005 A 
ATOM     28  C   UNL     1     -11.906 -11.577  18.157  0.00  0.00    +0.000 A 
ATOM     29  C   UNL     1     -10.947  -9.981  19.696  0.00  0.00    +0.000 A 
ATOM     30  C   UNL     1     -11.933 -10.326  18.772  0.00  0.00    +0.000 A 
ENDBRANCH  20  25
ENDBRANCH   4  20
ENDBRANCH  13  17
ENDBRANCH   8  13
TORSDOF 8
ENDMDL
MODEL 2
REMARK VINA RESULT:      -5.8      1.628      2.247
REMARK  Name = 38027224
REMARK  15 active torsions:
REMARK  status: ('A' for Active; 'I' for Inactive)
REMARK    1  A    between atoms: N_3  and  C_12
REMARK    2  A    between atoms: N_4  and  C_20
REMARK    3  A    between atoms: N_4  and  C_24
REMARK    4  A    between atoms: C_5  and  C_9
REMARK    5  A    between atoms: C_6  and  C_12
REMARK    6  A    between atoms: C_8  and  C_13
REMARK    7  A    between atoms: C_9  and  C_14
REMARK    8  A    between atoms: C_9  and  C_15
REMARK    9  A    between atoms: C_10  and  C_16
REMARK   10  A    between atoms: C_13  and  C_17
REMARK   11  A    between atoms: C_18  and  C_19
REMARK   12  A    between atoms: C_19  and  C_21
REMARK   13  A    between atoms: C_19  and  C_22
REMARK   14  A    between atoms: C_19  and  C_23
REMARK   15  A    between atoms: C_20  and  C_25
REMARK                            x       y       z     vdW  Elec       q    Type
REMARK                         _______ _______ _______ _____ _____    ______ ____
ROOT
ATOM      5  C   UNL     1      -7.389 -10.137  16.723  0.00  0.00    +0.000 C 
ATOM      6  C   UNL     1      -5.946  -9.766  16.298  0.00  0.00    +0.032 C 
ATOM      7  C   UNL     1      -7.488 -10.245  18.251  0.00  0.00    +0.012 C 
ATOM      8  C   UNL     1      -6.524 -11.302  18.824  0.00  0.00    +0.023 C 
ATOM     10  C   UNL     1      -5.130 -11.166  18.243  0.00  0.00    -0.073 C 
ATOM     11  C   UNL     1      -4.889 -10.465  17.122  0.00  0.00    -0.022 C 
ATOM     16  C   UNL     1      -4.012 -11.818  19.009  0.00  0.00    +0.039 C 
ENDROOT
BRANCH   5   9
ATOM      9  C   UNL     1      -8.412  -9.120  16.207  0.00  0.00    -0.013 C 
ATOM     14  C   UNL     1      -9.433  -9.804  15.303  0.00  0.00    +0.007 C 
ATOM     15  C   UNL     1      -9.104  -8.423  17.374  0.00  0.00    +0.007 C 
ENDBRANCH   5   9
BRANCH   6  12
ATOM     12  C   UNL     1      -5.713 -10.061  14.811  0.00  0.00    +0.112 C 
BRANCH  12   3
ATOM      2  O   UNL     1      -4.558 -11.718  12.801  0.00  0.00    -0.275 OA
ATOM      3  N   UNL     1      -4.318 -10.212  14.537  0.00  0.00    -0.314 N 
ATOM     18  C   UNL     1      -3.829 -11.046  13.532  0.00  0.00    +0.218 C 
ATOM     31  H   UNL     1      -3.665  -9.642  15.066  0.00  0.00    +0.149 HD
BRANCH  18  19
ATOM     19  C   UNL     1      -2.291 -11.062  13.397  0.00  0.00    +0.039 C 
ATOM     21  C   UNL     1      -1.781 -12.510  13.356  0.00  0.00    +0.020 C 
ATOM     22  C   UNL     1      -1.886 -10.362  12.087  0.00  0.00    +0.020 C 
ATOM     23  C   UNL     1      -1.652 -10.309  14.573  0.00  0.00    +0.020 C 
ENDBRANCH  18  19
ENDBRANCH  12   3
ENDBRANCH   6  12
BRANCH   8  13
ATOM     13  C   UNL     1      -7.070 -12.718  18.616  0.00  0.00    +0.103 C 
BRANCH  13  17
ATOM      1  O   UNL     1      -8.319 -12.944  20.649  0.00  0.00    -0.276 OA
ATOM      4  N   UNL     1      -9.487 -13.226  18.666  0.00  0.00    -0.300 N 
ATOM     17  C   UNL     1      -8.334 -12.970  19.416  0.00  0.00    +0.216 C 
ATOM     24  C   UNL     1      -9.481 -13.252  17.208  0.00  0.00    +0.132 C 
BRANCH   4  20
ATOM     20  C   UNL     1     -10.783 -13.488  19.286  0.00  0.00    +0.142 C 
BRANCH  20  25
ATOM     25  C   UNL     1     -11.499 -12.220  19.650  0.00  0.00    -0.030 A 
ATOM     26  C   UNL     1     -11.228 -11.042  18.954  0.00  0.00    +0.005 A 
ATOM     27  C   UNL     1     -12.437 -12.219  20.682  0.00  0.00    +0.005 A 
ATOM     28  C   UNL     1     -11.893  -9.863  19.291  0.00  0.00    +0.000 A 
ATOM     29  C   UNL     1     -13.103 -11.040  21.020  0.00  0.00    +0.000 A 
ATOM     30  C   UNL     1     -12.831  -9.863  20.324  0.00  0.00    +0.000 A 
ENDBRANCH  20  25
ENDBRANCH   4  20
ENDBRANCH  13  17
ENDBRANCH   8  13
TORSDOF 8
ENDMDL
MODEL 3
REMARK VINA RESULT:      -5.6     25.811     30.511
REMARK  Name = 38027224
REMARK  15 active torsions:
REMARK  status: ('A' for Active; 'I' for Inactive)
REMARK    1  A    between atoms: N_3  and  C_12
REMARK    2  A    between atoms: N_4  and  C_20
REMARK    3  A    between atoms: N_4  and  C_24
REMARK    4  A    between atoms: C_5  and  C_9
REMARK    5  A    between atoms: C_6  and  C_12
REMARK    6  A    between atoms: C_8  and  C_13
REMARK    7  A    between atoms: C_9  and  C_14
REMARK    8  A    between atoms: C_9  and  C_15
REMARK    9  A    between atoms: C_10  and  C_16
REMARK   10  A    between atoms: C_13  and  C_17
REMARK   11  A    between atoms: C_18  and  C_19
REMARK   12  A    between atoms: C_19  and  C_21
REMARK   13  A    between atoms: C_19  and  C_22
REMARK   14  A    between atoms: C_19  and  C_23
REMARK   15  A    between atoms: C_20  and  C_25
REMARK                            x       y       z     vdW  Elec       q    Type
REMARK                         _______ _______ _______ _____ _____    ______ ____
ROOT
ATOM      5  C   UNL     1      11.178   6.176   5.906  0.00  0.00    +0.000 C 
ATOM      6  C   UNL     1      10.668   6.216   4.444  0.00  0.00    +0.032 C 
ATOM      7  C   UNL     1      11.606   7.579   6.363  0.00  0.00    +0.012 C 
ATOM      8  C   UNL     1      12.719   8.167   5.474  0.00  0.00    +0.023 C 
ATOM     10  C   UNL     1      12.409   8.000   4.000  0.00  0.00    -0.073 C 
ATOM     11  C   UNL     1      11.480   7.133   3.559  0.00  0.00    -0.022 C 
ATOM     16  C   UNL     1      13.159   8.888   3.046  0.00  0.00    +0.039 C 
ENDROOT
BRANCH   5   9
ATOM      9  C   UNL     1      10.120   5.620   6.863  0.00  0.00    -0.013 C 
ATOM     14  C   UNL     1      10.584   5.759   8.309  0.00  0.00    +0.007 C 
ATOM     15  C   UNL     1       8.786   6.328   6.651  0.00  0.00    +0.007 C 
ENDBRANCH   5   9
BRANCH   6  12
ATOM     12  C   UNL     1      10.638   4.810   3.830  0.00  0.00    +0.112 C 
BRANCH  12   3
ATOM      2  O   UNL     1      10.407   3.986   1.112  0.00  0.00    -0.275 OA
ATOM      3  N   UNL     1      11.713   4.639   2.904  0.00  0.00    -0.314 N 
ATOM     18  C   UNL     1      11.518   4.231   1.583  0.00  0.00    +0.218 C 
ATOM     31  H   UNL     1      12.650   4.880   3.212  0.00  0.00    +0.149 HD
BRANCH  18  19
ATOM     19  C   UNL     1      12.810   4.112   0.747  0.00  0.00    +0.039 C 
ATOM     21  C   UNL     1      13.333   5.510   0.383  0.00  0.00    +0.020 C 
ATOM     22  C   UNL     1      13.888   3.386   1.573  0.00  0.00    +0.020 C 
ATOM     23  C   UNL     1      12.539   3.299  -0.527  0.00  0.00    +0.020 C 
ENDBRANCH  18  19
ENDBRANCH  12   3
ENDBRANCH   6  12
BRANCH   8  13
ATOM     13  C   UNL     1      14.082   7.559   5.820  0.00  0.00    +0.103 C 
BRANCH  13  17
ATOM      1  O   UNL     1      15.239   9.551   6.484  0.00  0.00    -0.276 OA
ATOM      4  N   UNL     1      16.172   8.327   4.750  0.00  0.00    -0.300 N 
ATOM     17  C   UNL     1      15.205   8.576   5.729  0.00  0.00    +0.216 C 
ATOM     24  C   UNL     1      16.112   7.167   3.868  0.00  0.00    +0.132 C 
BRANCH   4  20
ATOM     20  C   UNL     1      17.316   9.210   4.536  0.00  0.00    +0.142 C 
BRANCH  20  25
ATOM     25  C   UNL     1      18.580   8.645   5.116  0.00  0.00    -0.030 A 
ATOM     26  C   UNL     1      19.429   7.875   4.321  0.00  0.00    +0.005 A 
ATOM     27  C   UNL     1      18.906   8.890   6.450  0.00  0.00    +0.005 A 
ATOM     28  C   UNL     1      20.604   7.350   4.859  0.00  0.00    +0.000 A 
ATOM     29  C   UNL     1      20.080   8.365   6.989  0.00  0.00    +0.000 A 
ATOM     30  C   UNL     1      20.929   7.595   6.193  0.00  0.00    +0.000 A 
ENDBRANCH  20  25
ENDBRANCH   4  20
ENDBRANCH  13  17
ENDBRANCH   8  13
TORSDOF 8
ENDMDL
MODEL 4
REMARK VINA RESULT:      -5.6     19.964     22.183
REMARK  Name = 38027224
REMARK  15 active torsions:
REMARK  status: ('A' for Active; 'I' for Inactive)
REMARK    1  A    between atoms: N_3  and  C_12
REMARK    2  A    between atoms: N_4  and  C_20
REMARK    3  A    between atoms: N_4  and  C_24
REMARK    4  A    between atoms: C_5  and  C_9
REMARK    5  A    between atoms: C_6  and  C_12
REMARK    6  A    between atoms: C_8  and  C_13
REMARK    7  A    between atoms: C_9  and  C_14
REMARK    8  A    between atoms: C_9  and  C_15
REMARK    9  A    between atoms: C_10  and  C_16
REMARK   10  A    between atoms: C_13  and  C_17
REMARK   11  A    between atoms: C_18  and  C_19
REMARK   12  A    between atoms: C_19  and  C_21
REMARK   13  A    between atoms: C_19  and  C_22
REMARK   14  A    between atoms: C_19  and  C_23
REMARK   15  A    between atoms: C_20  and  C_25
REMARK                            x       y       z     vdW  Elec       q    Type
REMARK                         _______ _______ _______ _____ _____    ______ ____
ROOT
ATOM      5  C   UNL     1     -10.835  10.268  17.301  0.00  0.00    +0.000 C 
ATOM      6  C   UNL     1     -10.391   8.813  17.006  0.00  0.00    +0.032 C 
ATOM      7  C   UNL     1     -10.604  10.610  18.780  0.00  0.00    +0.012 C 
ATOM      8  C   UNL     1     -11.372   9.664  19.723  0.00  0.00    +0.023 C 
ATOM     10  C   UNL     1     -11.198   8.212  19.329  0.00  0.00    -0.073 C 
ATOM     11  C   UNL     1     -10.745   7.851  18.116  0.00  0.00    -0.022 C 
ATOM     16  C   UNL     1     -11.512   7.183  20.380  0.00  0.00    +0.039 C 
ENDROOT
BRANCH   5   9
ATOM      9  C   UNL     1     -10.100  11.278  16.414  0.00  0.00    -0.013 C 
ATOM     14  C   UNL     1     -11.063  11.906  15.412  0.00  0.00    +0.007 C 
ATOM     15  C   UNL     1      -9.433  12.350  17.269  0.00  0.00    +0.007 C 
ENDBRANCH   5   9
BRANCH   6  12
ATOM     12  C   UNL     1     -10.985   8.310  15.685  0.00  0.00    +0.112 C 
BRANCH  12   3
ATOM      2  O   UNL     1     -12.985   9.447  14.003  0.00  0.00    -0.275 OA
ATOM      3  N   UNL     1     -12.397   8.122  15.803  0.00  0.00    -0.314 N 
ATOM     18  C   UNL     1     -13.316   8.715  14.937  0.00  0.00    +0.218 C 
ATOM     31  H   UNL     1     -12.734   7.484  16.517  0.00  0.00    +0.149 HD
BRANCH  18  19
ATOM     19  C   UNL     1     -14.793   8.380  15.235  0.00  0.00    +0.039 C 
ATOM     21  C   UNL     1     -15.201   7.095  14.499  0.00  0.00    +0.020 C 
ATOM     22  C   UNL     1     -14.971   8.157  16.748  0.00  0.00    +0.020 C 
ATOM     23  C   UNL     1     -15.695   9.546  14.803  0.00  0.00    +0.020 C 
ENDBRANCH  18  19
ENDBRANCH  12   3
ENDBRANCH   6  12
BRANCH   8  13
ATOM     13  C   UNL     1     -12.856  10.040  19.793  0.00  0.00    +0.103 C 
BRANCH  13  17
ATOM      1  O   UNL     1     -12.842  12.229  20.770  0.00  0.00    -0.276 OA
ATOM      4  N   UNL     1     -13.766  10.522  22.039  0.00  0.00    -0.300 N 
ATOM     17  C   UNL     1     -13.145  11.040  20.897  0.00  0.00    +0.216 C 
ATOM     24  C   UNL     1     -14.116   9.112  22.167  0.00  0.00    +0.132 C 
BRANCH   4  20
ATOM     20  C   UNL     1     -14.110  11.354  23.189  0.00  0.00    +0.142 C 
BRANCH  20  25
ATOM     25  C   UNL     1     -13.279  11.019  24.394  0.00  0.00    -0.030 A 
ATOM     26  C   UNL     1     -13.889  10.523  25.546  0.00  0.00    +0.005 A 
ATOM     27  C   UNL     1     -11.897  11.203  24.362  0.00  0.00    +0.005 A 
ATOM     28  C   UNL     1     -13.118  10.211  26.666  0.00  0.00    +0.000 A 
ATOM     29  C   UNL     1     -11.125  10.891  25.480  0.00  0.00    +0.000 A 
ATOM     30  C   UNL     1     -11.736  10.395  26.632  0.00  0.00    +0.000 A 
ENDBRANCH  20  25
ENDBRANCH   4  20
ENDBRANCH  13  17
ENDBRANCH   8  13
TORSDOF 8
ENDMDL
MODEL 5
REMARK VINA RESULT:      -5.6     24.852     28.656
REMARK  Name = 38027224
REMARK  15 active torsions:
REMARK  status: ('A' for Active; 'I' for Inactive)
REMARK    1  A    between atoms: N_3  and  C_12
REMARK    2  A    between atoms: N_4  and  C_20
REMARK    3  A    between atoms: N_4  and  C_24
REMARK    4  A    between atoms: C_5  and  C_9
REMARK    5  A    between atoms: C_6  and  C_12
REMARK    6  A    between atoms: C_8  and  C_13
REMARK    7  A    between atoms: C_9  and  C_14
REMARK    8  A    between atoms: C_9  and  C_15
REMARK    9  A    between atoms: C_10  and  C_16
REMARK   10  A    between atoms: C_13  and  C_17
REMARK   11  A    between atoms: C_18  and  C_19
REMARK   12  A    between atoms: C_19  and  C_21
REMARK   13  A    between atoms: C_19  and  C_22
REMARK   14  A    between atoms: C_19  and  C_23
REMARK   15  A    between atoms: C_20  and  C_25
REMARK                            x       y       z     vdW  Elec       q    Type
REMARK                         _______ _______ _______ _____ _____    ______ ____
ROOT
ATOM      5  C   UNL     1       9.018   8.517   5.915  0.00  0.00    +0.000 C 
ATOM      6  C   UNL     1       8.937   8.492   7.462  0.00  0.00    +0.032 C 
ATOM      7  C   UNL     1       8.456   7.215   5.327  0.00  0.00    +0.012 C 
ATOM      8  C   UNL     1       9.212   5.972   5.835  0.00  0.00    +0.023 C 
ATOM     10  C   UNL     1       9.409   6.008   7.337  0.00  0.00    -0.073 C 
ATOM     11  C   UNL     1       9.269   7.140   8.049  0.00  0.00    -0.022 C 
ATOM     16  C   UNL     1       9.725   4.700   8.009  0.00  0.00    +0.039 C 
ENDROOT
BRANCH   5   9
ATOM      9  C   UNL     1       8.270   9.718   5.327  0.00  0.00    -0.013 C 
ATOM     14  C   UNL     1       9.244  10.663   4.631  0.00  0.00    +0.007 C 
ATOM     15  C   UNL     1       7.187   9.248   4.361  0.00  0.00    +0.007 C 
ENDBRANCH   5   9
BRANCH   6  12
ATOM     12  C   UNL     1       9.853   9.555   8.082  0.00  0.00    +0.112 C 
BRANCH  12   3
ATOM      2  O   UNL     1      11.393  11.792   7.219  0.00  0.00    -0.275 OA
ATOM      3  N   UNL     1      11.154   9.510   7.491  0.00  0.00    -0.314 N 
ATOM     18  C   UNL     1      11.847  10.654   7.094  0.00  0.00    +0.218 C 
ATOM     31  H   UNL     1      11.609   8.606   7.413  0.00  0.00    +0.149 HD
BRANCH  18  19
ATOM     19  C   UNL     1      13.239  10.386   6.483  0.00  0.00    +0.039 C 
ATOM     21  C   UNL     1      13.221  10.689   4.977  0.00  0.00    +0.020 C 
ATOM     22  C   UNL     1      14.276  11.303   7.156  0.00  0.00    +0.020 C 
ATOM     23  C   UNL     1      13.647   8.925   6.724  0.00  0.00    +0.020 C 
ENDBRANCH  18  19
ENDBRANCH  12   3
ENDBRANCH   6  12
BRANCH   8  13
ATOM     13  C   UNL     1      10.552   5.807   5.109  0.00  0.00    +0.103 C 
BRANCH  13  17
ATOM      1  O   UNL     1      10.454   3.509   4.433  0.00  0.00    -0.276 OA
ATOM      4  N   UNL     1      10.554   5.094   2.744  0.00  0.00    -0.300 N 
ATOM     17  C   UNL     1      10.515   4.690   4.083  0.00  0.00    +0.216 C 
ATOM     24  C   UNL     1      10.626   6.497   2.352  0.00  0.00    +0.132 C 
BRANCH   4  20
ATOM     20  C   UNL     1      10.527   4.142   1.637  0.00  0.00    +0.142 C 
BRANCH  20  25
ATOM     25  C   UNL     1      11.867   4.014   0.971  0.00  0.00    -0.030 A 
ATOM     26  C   UNL     1      11.994   4.266  -0.394  0.00  0.00    +0.005 A 
ATOM     27  C   UNL     1      12.985   3.645   1.719  0.00  0.00    +0.005 A 
ATOM     28  C   UNL     1      13.239   4.149  -1.013  0.00  0.00    +0.000 A 
ATOM     29  C   UNL     1      14.230   3.528   1.102  0.00  0.00    +0.000 A 
ATOM     30  C   UNL     1      14.357   3.780  -0.265  0.00  0.00    +0.000 A 
ENDBRANCH  20  25
ENDBRANCH   4  20
ENDBRANCH  13  17
ENDBRANCH   8  13
TORSDOF 8
ENDMDL
MODEL 6
REMARK VINA RESULT:      -5.6      2.524      7.176
REMARK  Name = 38027224
REMARK  15 active torsions:
REMARK  status: ('A' for Active; 'I' for Inactive)
REMARK    1  A    between atoms: N_3  and  C_12
REMARK    2  A    between atoms: N_4  and  C_20
REMARK    3  A    between atoms: N_4  and  C_24
REMARK    4  A    between atoms: C_5  and  C_9
REMARK    5  A    between atoms: C_6  and  C_12
REMARK    6  A    between atoms: C_8  and  C_13
REMARK    7  A    between atoms: C_9  and  C_14
REMARK    8  A    between atoms: C_9  and  C_15
REMARK    9  A    between atoms: C_10  and  C_16
REMARK   10  A    between atoms: C_13  and  C_17
REMARK   11  A    between atoms: C_18  and  C_19
REMARK   12  A    between atoms: C_19  and  C_21
REMARK   13  A    between atoms: C_19  and  C_22
REMARK   14  A    between atoms: C_19  and  C_23
REMARK   15  A    between atoms: C_20  and  C_25
REMARK                            x       y       z     vdW  Elec       q    Type
REMARK                         _______ _______ _______ _____ _____    ______ ____
ROOT
ATOM      5  C   UNL     1      -6.009 -13.331  16.477  0.00  0.00    +0.000 C 
ATOM      6  C   UNL     1      -7.183 -13.446  17.481  0.00  0.00    +0.032 C 
ATOM      7  C   UNL     1      -4.692 -13.060  17.220  0.00  0.00    +0.012 C 
ATOM      8  C   UNL     1      -4.750 -11.765  18.054  0.00  0.00    +0.023 C 
ATOM     10  C   UNL     1      -6.021 -11.681  18.875  0.00  0.00    -0.073 C 
ATOM     11  C   UNL     1      -7.093 -12.449  18.613  0.00  0.00    -0.022 C 
ATOM     16  C   UNL     1      -6.013 -10.724  20.035  0.00  0.00    +0.039 C 
ENDROOT
BRANCH   5   9
ATOM      9  C   UNL     1      -5.870 -14.592  15.618  0.00  0.00    -0.013 C 
ATOM     14  C   UNL     1      -5.809 -14.224  14.139  0.00  0.00    +0.007 C 
ATOM     15  C   UNL     1      -4.633 -15.383  16.031  0.00  0.00    +0.007 C 
ENDBRANCH   5   9
BRANCH   6  12
ATOM     12  C   UNL     1      -8.535 -13.293  16.772  0.00  0.00    +0.112 C 
BRANCH  12   3
ATOM      2  O   UNL     1      -8.522 -11.347  14.690  0.00  0.00    -0.275 OA
ATOM      3  N   UNL     1      -9.007 -11.947  16.869  0.00  0.00    -0.314 N 
ATOM     18  C   UNL     1      -8.967 -11.051  15.800  0.00  0.00    +0.218 C 
ATOM     31  H   UNL     1      -9.440 -11.657  17.740  0.00  0.00    +0.149 HD
BRANCH  18  19
ATOM     19  C   UNL     1      -9.532  -9.649  16.112  0.00  0.00    +0.039 C 
ATOM     21  C   UNL     1      -9.752  -8.867  14.807  0.00  0.00    +0.020 C 
ATOM     22  C   UNL     1     -10.884  -9.791  16.833  0.00  0.00    +0.020 C 
ATOM     23  C   UNL     1      -8.566  -8.884  17.029  0.00  0.00    +0.020 C 
ENDBRANCH  18  19
ENDBRANCH  12   3
ENDBRANCH   6  12
BRANCH   8  13
ATOM     13  C   UNL     1      -4.588 -10.528  17.164  0.00  0.00    +0.103 C 
BRANCH  13  17
ATOM      1  O   UNL     1      -2.276 -10.801  16.593  0.00  0.00    -0.276 OA
ATOM      4  N   UNL     1      -3.777 -10.637  14.833  0.00  0.00    -0.300 N 
ATOM     17  C   UNL     1      -3.434 -10.668  16.189  0.00  0.00    +0.216 C 
ATOM     24  C   UNL     1      -5.153 -10.479  14.378  0.00  0.00    +0.132 C 
BRANCH   4  20
ATOM     20  C   UNL     1      -2.782 -10.759  13.770  0.00  0.00    +0.142 C 
BRANCH  20  25
ATOM     25  C   UNL     1      -2.676 -12.167  13.259  0.00  0.00    -0.030 A 
ATOM     26  C   UNL     1      -2.062 -13.147  14.038  0.00  0.00    +0.005 A 
ATOM     27  C   UNL     1      -3.191 -12.495  12.006  0.00  0.00    +0.005 A 
ATOM     28  C   UNL     1      -1.963 -14.456  13.564  0.00  0.00    +0.000 A 
ATOM     29  C   UNL     1      -3.093 -13.803  11.531  0.00  0.00    +0.000 A 
ATOM     30  C   UNL     1      -2.479 -14.783  12.311  0.00  0.00    +0.000 A 
ENDBRANCH  20  25
ENDBRANCH   4  20
ENDBRANCH  13  17
ENDBRANCH   8  13
TORSDOF 8
ENDMDL
MODEL 7
REMARK VINA RESULT:      -5.5     22.530     25.870
REMARK  Name = 38027224
REMARK  15 active torsions:
REMARK  status: ('A' for Active; 'I' for Inactive)
REMARK    1  A    between atoms: N_3  and  C_12
REMARK    2  A    between atoms: N_4  and  C_20
REMARK    3  A    between atoms: N_4  and  C_24
REMARK    4  A    between atoms: C_5  and  C_9
REMARK    5  A    between atoms: C_6  and  C_12
REMARK    6  A    between atoms: C_8  and  C_13
REMARK    7  A    between atoms: C_9  and  C_14
REMARK    8  A    between atoms: C_9  and  C_15
REMARK    9  A    between atoms: C_10  and  C_16
REMARK   10  A    between atoms: C_13  and  C_17
REMARK   11  A    between atoms: C_18  and  C_19
REMARK   12  A    between atoms: C_19  and  C_21
REMARK   13  A    between atoms: C_19  and  C_22
REMARK   14  A    between atoms: C_19  and  C_23
REMARK   15  A    between atoms: C_20  and  C_25
REMARK                            x       y       z     vdW  Elec       q    Type
REMARK                         _______ _______ _______ _____ _____    ______ ____
ROOT
ATOM      5  C   UNL     1     -12.265   9.409  31.941  0.00  0.00    +0.000 C 
ATOM      6  C   UNL     1     -11.499   9.887  33.200  0.00  0.00    +0.032 C 
ATOM      7  C   UNL     1     -13.685   8.962  32.315  0.00  0.00    +0.012 C 
ATOM      8  C   UNL     1     -13.684   7.819  33.349  0.00  0.00    +0.023 C 
ATOM     10  C   UNL     1     -12.738   8.102  34.499  0.00  0.00    -0.073 C 
ATOM     11  C   UNL     1     -11.777   9.039  34.419  0.00  0.00    -0.022 C 
ATOM     16  C   UNL     1     -12.954   7.314  35.761  0.00  0.00    +0.039 C 
ENDROOT
BRANCH   5   9
ATOM      9  C   UNL     1     -12.329  10.498  30.866  0.00  0.00    -0.013 C 
ATOM     14  C   UNL     1     -11.663  10.018  29.581  0.00  0.00    +0.007 C 
ATOM     15  C   UNL     1     -13.776  10.904  30.607  0.00  0.00    +0.007 C 
ENDBRANCH   5   9
BRANCH   6  12
ATOM     12  C   UNL     1      -9.987   9.933  32.944  0.00  0.00    +0.112 C 
BRANCH  12   3
ATOM      2  O   UNL     1      -8.274  11.766  34.295  0.00  0.00    -0.275 OA
ATOM      3  N   UNL     1      -9.261   9.681  34.150  0.00  0.00    -0.314 N 
ATOM     18  C   UNL     1      -8.439  10.635  34.753  0.00  0.00    +0.218 C 
ATOM     31  H   UNL     1      -9.399   8.787  34.610  0.00  0.00    +0.149 HD
BRANCH  18  19
ATOM     19  C   UNL     1      -7.749  10.163  36.050  0.00  0.00    +0.039 C 
ATOM     21  C   UNL     1      -7.969  11.194  37.168  0.00  0.00    +0.020 C 
ATOM     22  C   UNL     1      -8.358   8.821  36.494  0.00  0.00    +0.020 C 
ATOM     23  C   UNL     1      -6.247   9.962  35.805  0.00  0.00    +0.020 C 
ENDBRANCH  18  19
ENDBRANCH  12   3
ENDBRANCH   6  12
BRANCH   8  13
ATOM     13  C   UNL     1     -13.357   6.476  32.687  0.00  0.00    +0.103 C 
BRANCH  13  17
ATOM      1  O   UNL     1     -15.379   5.656  33.682  0.00  0.00    -0.276 OA
ATOM      4  N   UNL     1     -13.952   4.079  32.757  0.00  0.00    -0.300 N 
ATOM     17  C   UNL     1     -14.329   5.384  33.094  0.00  0.00    +0.216 C 
ATOM     24  C   UNL     1     -12.706   3.780  32.061  0.00  0.00    +0.132 C 
BRANCH   4  20
ATOM     20  C   UNL     1     -14.778   2.918  33.078  0.00  0.00    +0.142 C 
BRANCH  20  25
ATOM     25  C   UNL     1     -15.175   2.153  31.848  0.00  0.00    -0.030 A 
ATOM     26  C   UNL     1     -15.844   2.800  30.810  0.00  0.00    +0.005 A 
ATOM     27  C   UNL     1     -14.872   0.795  31.743  0.00  0.00    +0.005 A 
ATOM     28  C   UNL     1     -16.212   2.090  29.667  0.00  0.00    +0.000 A 
ATOM     29  C   UNL     1     -15.240   0.084  30.601  0.00  0.00    +0.000 A 
ATOM     30  C   UNL     1     -15.910   0.732  29.563  0.00  0.00    +0.000 A 
ENDBRANCH  20  25
ENDBRANCH   4  20
ENDBRANCH  13  17
ENDBRANCH   8  13
TORSDOF 8
ENDMDL
MODEL 8
REMARK VINA RESULT:      -5.5     25.607     28.673
REMARK  Name = 38027224
REMARK  15 active torsions:
REMARK  status: ('A' for Active; 'I' for Inactive)
REMARK    1  A    between atoms: N_3  and  C_12
REMARK    2  A    between atoms: N_4  and  C_20
REMARK    3  A    between atoms: N_4  and  C_24
REMARK    4  A    between atoms: C_5  and  C_9
REMARK    5  A    between atoms: C_6  and  C_12
REMARK    6  A    between atoms: C_8  and  C_13
REMARK    7  A    between atoms: C_9  and  C_14
REMARK    8  A    between atoms: C_9  and  C_15
REMARK    9  A    between atoms: C_10  and  C_16
REMARK   10  A    between atoms: C_13  and  C_17
REMARK   11  A    between atoms: C_18  and  C_19
REMARK   12  A    between atoms: C_19  and  C_21
REMARK   13  A    between atoms: C_19  and  C_22
REMARK   14  A    between atoms: C_19  and  C_23
REMARK   15  A    between atoms: C_20  and  C_25
REMARK                            x       y       z     vdW  Elec       q    Type
REMARK                         _______ _______ _______ _____ _____    ______ ____
ROOT
ATOM      5  C   UNL     1       9.943   6.635   5.110  0.00  0.00    +0.000 C 
ATOM      6  C   UNL     1      10.337   6.354   3.638  0.00  0.00    +0.032 C 
ATOM      7  C   UNL     1       8.439   6.926   5.217  0.00  0.00    +0.012 C 
ATOM      8  C   UNL     1       8.017   8.135   4.359  0.00  0.00    +0.023 C 
ATOM     10  C   UNL     1       8.594   8.062   2.960  0.00  0.00    -0.073 C 
ATOM     11  C   UNL     1       9.622   7.251   2.654  0.00  0.00    -0.022 C 
ATOM     16  C   UNL     1       7.932   8.909   1.910  0.00  0.00    +0.039 C 
ENDROOT
BRANCH   5   9
ATOM      9  C   UNL     1      10.313   5.468   6.031  0.00  0.00    -0.013 C 
ATOM     14  C   UNL     1       9.727   5.682   7.423  0.00  0.00    +0.007 C 
ATOM     15  C   UNL     1       9.830   4.149   5.437  0.00  0.00    +0.007 C 
ENDBRANCH   5   9
BRANCH   6  12
ATOM     12  C   UNL     1      11.852   6.481   3.437  0.00  0.00    +0.112 C 
BRANCH  12   3
ATOM      2  O   UNL     1      13.364   6.363   1.024  0.00  0.00    -0.275 OA
ATOM      3  N   UNL     1      12.382   5.301   2.827  0.00  0.00    -0.314 N 
ATOM     18  C   UNL     1      13.115   5.326   1.640  0.00  0.00    +0.218 C 
ATOM     31  H   UNL     1      12.262   4.419   3.314  0.00  0.00    +0.149 HD
BRANCH  18  19
ATOM     19  C   UNL     1      13.601   3.944   1.153  0.00  0.00    +0.039 C 
ATOM     21  C   UNL     1      12.633   2.849   1.625  0.00  0.00    +0.020 C 
ATOM     22  C   UNL     1      13.642   3.931  -0.386  0.00  0.00    +0.020 C 
ATOM     23  C   UNL     1      15.015   3.666   1.683  0.00  0.00    +0.020 C 
ENDBRANCH  18  19
ENDBRANCH  12   3
ENDBRANCH   6  12
BRANCH   8  13
ATOM     13  C   UNL     1       8.394   9.454   5.041  0.00  0.00    +0.103 C 
BRANCH  13  17
ATOM      1  O   UNL     1       8.651   8.788   7.329  0.00  0.00    -0.276 OA
ATOM      4  N   UNL     1      10.546   9.575   6.249  0.00  0.00    -0.300 N 
ATOM     17  C   UNL     1       9.190   9.237   6.315  0.00  0.00    +0.216 C 
ATOM     24  C   UNL     1      11.162  10.104   5.038  0.00  0.00    +0.132 C 
BRANCH   4  20
ATOM     20  C   UNL     1      11.447   9.424   7.389  0.00  0.00    +0.142 C 
BRANCH  20  25
ATOM     25  C   UNL     1      12.803   8.932   6.973  0.00  0.00    -0.030 A 
ATOM     26  C   UNL     1      13.054   7.562   6.893  0.00  0.00    +0.005 A 
ATOM     27  C   UNL     1      13.812   9.844   6.663  0.00  0.00    +0.005 A 
ATOM     28  C   UNL     1      14.313   7.104   6.506  0.00  0.00    +0.000 A 
ATOM     29  C   UNL     1      15.071   9.387   6.276  0.00  0.00    +0.000 A 
ATOM     30  C   UNL     1      15.322   8.017   6.197  0.00  0.00    +0.000 A 
ENDBRANCH  20  25
ENDBRANCH   4  20
ENDBRANCH  13  17
ENDBRANCH   8  13
TORSDOF 8
ENDMDL
MODEL 9
REMARK VINA RESULT:      -5.5      2.227      7.982
REMARK  Name = 38027224
REMARK  15 active torsions:
REMARK  status: ('A' for Active; 'I' for Inactive)
REMARK    1  A    between atoms: N_3  and  C_12
REMARK    2  A    between atoms: N_4  and  C_20
REMARK    3  A    between atoms: N_4  and  C_24
REMARK    4  A    between atoms: C_5  and  C_9
REMARK    5  A    between atoms: C_6  and  C_12
REMARK    6  A    between atoms: C_8  and  C_13
REMARK    7  A    between atoms: C_9  and  C_14
REMARK    8  A    between atoms: C_9  and  C_15
REMARK    9  A    between atoms: C_10  and  C_16
REMARK   10  A    between atoms: C_13  and  C_17
REMARK   11  A    between atoms: C_18  and  C_19
REMARK   12  A    between atoms: C_19  and  C_21
REMARK   13  A    between atoms: C_19  and  C_22
REMARK   14  A    between atoms: C_19  and  C_23
REMARK   15  A    between atoms: C_20  and  C_25
REMARK                            x       y       z     vdW  Elec       q    Type
REMARK                         _______ _______ _______ _____ _____    ______ ____
ROOT
ATOM      5  C   UNL     1      -5.639 -11.547  17.637  0.00  0.00    +0.000 C 
ATOM      6  C   UNL     1      -6.807 -10.604  17.252  0.00  0.00    +0.032 C 
ATOM      7  C   UNL     1      -4.321 -11.042  17.032  0.00  0.00    +0.012 C 
ATOM      8  C   UNL     1      -4.384 -10.946  15.496  0.00  0.00    +0.023 C 
ATOM     10  C   UNL     1      -5.650 -10.259  15.026  0.00  0.00    -0.073 C 
ATOM     11  C   UNL     1      -6.718 -10.104  15.829  0.00  0.00    -0.022 C 
ATOM     16  C   UNL     1      -5.644  -9.713  13.625  0.00  0.00    +0.039 C 
ENDROOT
BRANCH   5   9
ATOM      9  C   UNL     1      -5.495 -11.682  19.156  0.00  0.00    -0.013 C 
ATOM     14  C   UNL     1      -4.057 -12.029  19.525  0.00  0.00    +0.007 C 
ATOM     15  C   UNL     1      -5.938 -10.398  19.849  0.00  0.00    +0.007 C 
ENDBRANCH   5   9
BRANCH   6  12
ATOM     12  C   UNL     1      -8.164 -11.286  17.469  0.00  0.00    +0.112 C 
BRANCH  12   3
ATOM      2  O   UNL     1     -10.456 -10.977  15.805  0.00  0.00    -0.275 OA
ATOM      3  N   UNL     1      -9.200 -10.314  17.628  0.00  0.00    -0.314 N 
ATOM     18  C   UNL     1     -10.295 -10.226  16.767  0.00  0.00    +0.218 C 
ATOM     31  H   UNL     1      -9.157  -9.701  18.436  0.00  0.00    +0.149 HD
BRANCH  18  19
ATOM     19  C   UNL     1     -11.302  -9.110  17.117  0.00  0.00    +0.039 C 
ATOM     21  C   UNL     1     -10.571  -7.767  17.261  0.00  0.00    +0.020 C 
ATOM     22  C   UNL     1     -12.339  -8.985  15.986  0.00  0.00    +0.020 C 
ATOM     23  C   UNL     1     -12.039  -9.454  18.420  0.00  0.00    +0.020 C 
ENDBRANCH  18  19
ENDBRANCH  12   3
ENDBRANCH   6  12
BRANCH   8  13
ATOM     13  C   UNL     1      -4.236 -12.327  14.849  0.00  0.00    +0.103 C 
BRANCH  13  17
ATOM      1  O   UNL     1      -2.225 -11.904  13.615  0.00  0.00    -0.276 OA
ATOM      4  N   UNL     1      -4.043 -12.698  12.414  0.00  0.00    -0.300 N 
ATOM     17  C   UNL     1      -3.398 -12.284  13.585  0.00  0.00    +0.216 C 
ATOM     24  C   UNL     1      -5.431 -13.144  12.403  0.00  0.00    +0.132 C 
BRANCH   4  20
ATOM     20  C   UNL     1      -3.375 -12.714  11.116  0.00  0.00    +0.142 C 
BRANCH  20  25
ATOM     25  C   UNL     1      -3.688 -11.489  10.307  0.00  0.00    -0.030 A 
ATOM     26  C   UNL     1      -4.483 -11.590   9.166  0.00  0.00    +0.005 A 
ATOM     27  C   UNL     1      -3.185 -10.248  10.697  0.00  0.00    +0.005 A 
ATOM     28  C   UNL     1      -4.775 -10.452   8.414  0.00  0.00    +0.000 A 
ATOM     29  C   UNL     1      -3.476  -9.109   9.946  0.00  0.00    +0.000 A 
ATOM     30  C   UNL     1      -4.271  -9.211   8.805  0.00  0.00    +0.000 A 
ENDBRANCH  20  25
ENDBRANCH   4  20
ENDBRANCH  13  17
ENDBRANCH   8  13
TORSDOF 8
ENDMDL
MODEL 10
REMARK VINA RESULT:      -5.4     24.934     30.152
REMARK  Name = 38027224
REMARK  15 active torsions:
REMARK  status: ('A' for Active; 'I' for Inactive)
REMARK    1  A    between atoms: N_3  and  C_12
REMARK    2  A    between atoms: N_4  and  C_20
REMARK    3  A    between atoms: N_4  and  C_24
REMARK    4  A    between atoms: C_5  and  C_9
REMARK    5  A    between atoms: C_6  and  C_12
REMARK    6  A    between atoms: C_8  and  C_13
REMARK    7  A    between atoms: C_9  and  C_14
REMARK    8  A    between atoms: C_9  and  C_15
REMARK    9  A    between atoms: C_10  and  C_16
REMARK   10  A    between atoms: C_13  and  C_17
REMARK   11  A    between atoms: C_18  and  C_19
REMARK   12  A    between atoms: C_19  and  C_21
REMARK   13  A    between atoms: C_19  and  C_22
REMARK   14  A    between atoms: C_19  and  C_23
REMARK   15  A    between atoms: C_20  and  C_25
REMARK                            x       y       z     vdW  Elec       q    Type
REMARK                         _______ _______ _______ _____ _____    ______ ____
ROOT
ATOM      5  C   UNL     1      15.106   7.642   5.095  0.00  0.00    +0.000 C 
ATOM      6  C   UNL     1      13.634   7.694   5.576  0.00  0.00    +0.032 C 
ATOM      7  C   UNL     1      15.211   8.113   3.637  0.00  0.00    +0.012 C 
ATOM      8  C   UNL     1      14.355   7.255   2.685  0.00  0.00    +0.023 C 
ATOM     10  C   UNL     1      12.957   7.037   3.227  0.00  0.00    -0.073 C 
ATOM     11  C   UNL     1      12.650   7.251   4.518  0.00  0.00    -0.022 C 
ATOM     16  C   UNL     1      11.907   6.611   2.238  0.00  0.00    +0.039 C 
ENDROOT
BRANCH   5   9
ATOM      9  C   UNL     1      16.024   8.489   5.982  0.00  0.00    -0.013 C 
ATOM     14  C   UNL     1      17.412   8.597   5.359  0.00  0.00    +0.007 C 
ATOM     15  C   UNL     1      15.421   9.871   6.205  0.00  0.00    +0.007 C 
ENDBRANCH   5   9
BRANCH   6  12
ATOM     12  C   UNL     1      13.435   6.853   6.843  0.00  0.00    +0.112 C 
BRANCH  12   3
ATOM      2  O   UNL     1      10.898   7.841   7.685  0.00  0.00    -0.275 OA
ATOM      3  N   UNL     1      12.193   6.147   6.793  0.00  0.00    -0.314 N 
ATOM     18  C   UNL     1      10.988   6.702   7.225  0.00  0.00    +0.218 C 
ATOM     31  H   UNL     1      12.187   5.224   6.371  0.00  0.00    +0.149 HD
BRANCH  18  19
ATOM     19  C   UNL     1       9.762   5.775   7.081  0.00  0.00    +0.039 C 
ATOM     21  C   UNL     1       9.644   4.862   8.311  0.00  0.00    +0.020 C 
ATOM     22  C   UNL     1       8.485   6.629   6.980  0.00  0.00    +0.020 C 
ATOM     23  C   UNL     1       9.888   4.930   5.805  0.00  0.00    +0.020 C 
ENDBRANCH  18  19
ENDBRANCH  12   3
ENDBRANCH   6  12
BRANCH   8  13
ATOM     13  C   UNL     1      15.040   5.919   2.379  0.00  0.00    +0.103 C 
BRANCH  13  17
ATOM      1  O   UNL     1      15.555   6.398   0.087  0.00  0.00    -0.276 OA
ATOM      4  N   UNL     1      14.482   4.389   0.522  0.00  0.00    -0.300 N 
ATOM     17  C   UNL     1      15.057   5.608   0.894  0.00  0.00    +0.216 C 
ATOM     24  C   UNL     1      13.900   3.470   1.493  0.00  0.00    +0.132 C 
BRANCH   4  20
ATOM     20  C   UNL     1      14.419   3.944  -0.868  0.00  0.00    +0.142 C 
BRANCH  20  25
ATOM     25  C   UNL     1      13.024   4.012  -1.418  0.00  0.00    -0.030 A 
ATOM     26  C   UNL     1      12.335   5.225  -1.425  0.00  0.00    +0.005 A 
ATOM     27  C   UNL     1      12.416   2.863  -1.923  0.00  0.00    +0.005 A 
ATOM     28  C   UNL     1      11.038   5.289  -1.936  0.00  0.00    +0.000 A 
ATOM     29  C   UNL     1      11.120   2.926  -2.435  0.00  0.00    +0.000 A 
ATOM     30  C   UNL     1      10.431   4.139  -2.441  0.00  0.00    +0.000 A 
ENDBRANCH  20  25
ENDBRANCH   4  20
ENDBRANCH  13  17
ENDBRANCH   8  13
TORSDOF 8
ENDMDL
