REMARK  Name = 11885876
REMARK  4 active torsions:
REMARK  status: ('A' for Active; 'I' for Inactive)
REMARK    1  A    between atoms: N_7  and  C_19
REMARK    2  A    between atoms: C_18  and  C_21
REMARK    3  A    between atoms: C_24  and  C_28
REMARK    4  A    between atoms: C_33  and  C_34
REMARK                            x       y       z     vdW  Elec       q    Type
REMARK                         _______ _______ _______ _____ _____    ______ ____
ROOT
ATOM      2  O   UNL     1       0.413   2.550   1.181  0.00  0.00    -0.266 OA
ATOM      3  O   UNL     1      -3.645  -0.277   2.700  0.00  0.00    -0.270 OA
ATOM      5  N   UNL     1      -4.163   0.645   0.613  0.00  0.00    -0.297 N 
ATOM      6  N   UNL     1      -1.474   2.151  -0.137  0.00  0.00    -0.310 N 
ATOM      9  C   UNL     1      -3.785   3.098   0.430  0.00  0.00    +0.027 C 
ATOM     10  C   UNL     1      -3.502   1.666  -1.552  0.00  0.00    +0.054 C 
ATOM     11  C   UNL     1      -4.031   3.017  -1.072  0.00  0.00    +0.018 C 
ATOM     12  C   UNL     1      -4.518   1.955   1.157  0.00  0.00    +0.113 C 
ATOM     13  C   UNL     1      -2.273   3.069   0.686  0.00  0.00    +0.130 C 
ATOM     14  C   UNL     1      -4.272   0.530  -0.850  0.00  0.00    +0.117 C 
ATOM     15  C   UNL     1      -2.018   1.529  -1.266  0.00  0.00    +0.027 A 
ATOM     16  C   UNL     1      -1.240   0.786  -2.070  0.00  0.00    +0.024 A 
ATOM     17  C   UNL     1      -0.115   2.010   0.208  0.00  0.00    +0.273 A 
ATOM     18  C   UNL     1      -3.739  -0.367   1.477  0.00  0.00    +0.247 C 
ATOM     19  C   UNL     1       0.712   1.151  -0.698  0.00  0.00    +0.099 A 
ATOM     20  C   UNL     1       0.153   0.594  -1.777  0.00  0.00    +0.030 A 
ENDROOT
BRANCH  18  21
ATOM      1  F   UNL     1      -2.250  -5.270  -0.760  0.00  0.00    -0.205 F 
ATOM     21  C   UNL     1      -3.348  -1.653   0.890  0.00  0.00    +0.037 A 
ATOM     22  C   UNL     1      -2.025  -1.869   0.513  0.00  0.00    +0.016 A 
ATOM     23  C   UNL     1      -4.302  -2.652   0.714  0.00  0.00    +0.016 A 
ATOM     25  C   UNL     1      -1.654  -3.092  -0.045  0.00  0.00    +0.039 A 
ATOM     26  C   UNL     1      -3.931  -3.875   0.156  0.00  0.00    +0.039 A 
ATOM     27  C   UNL     1      -2.607  -4.096  -0.224  0.00  0.00    +0.123 A 
ENDBRANCH  18  21
BRANCH  19   7
ATOM      4  O   UNL     1       2.308  -1.122  -1.354  0.00  0.00    -0.270 OA
ATOM      7  N   UNL     1       2.029   0.975  -0.387  0.00  0.00    -0.277 N 
ATOM     24  C   UNL     1       2.752  -0.158  -0.736  0.00  0.00    +0.248 C 
ATOM     35  H   UNL     1       2.417   1.662   0.250  0.00  0.00    +0.155 HD
BRANCH  24  28
ATOM     28  C   UNL     1       4.181  -0.159  -0.330  0.00  0.00    +0.037 A 
ATOM     29  C   UNL     1       5.082  -0.900  -1.067  0.00  0.00    +0.014 A 
ATOM     30  C   UNL     1       4.562   0.580   0.770  0.00  0.00    +0.014 A 
ATOM     31  C   UNL     1       6.423  -0.902  -0.686  0.00  0.00    +0.019 A 
ATOM     32  C   UNL     1       5.904   0.578   1.151  0.00  0.00    +0.019 A 
ATOM     33  C   UNL     1       6.835  -0.163   0.422  0.00  0.00    +0.052 A 
BRANCH  33  34
ATOM      8  N   UNL     1       9.327  -0.164   1.130  0.00  0.00    -0.191 NA
ATOM     34  C   UNL     1       8.209  -0.164   0.813  0.00  0.00    +0.099 C 
ENDBRANCH  33  34
ENDBRANCH  24  28
ENDBRANCH  19   7
TORSDOF 4
