MODEL 1
REMARK VINA RESULT:      -6.3      0.000      0.000
REMARK  Name = 11912763
REMARK  12 active torsions:
REMARK  status: ('A' for Active; 'I' for Inactive)
REMARK    1  A    between atoms: S_1  and  N_7
REMARK    2  A    between atoms: S_1  and  C_18
REMARK    3  A    between atoms: O_5  and  C_24
REMARK    4  A    between atoms: O_5  and  C_26
REMARK    5  A    between atoms: O_6  and  C_25
REMARK    6  A    between atoms: O_6  and  C_27
REMARK    7  A    between atoms: N_8  and  C_21
REMARK    8  A    between atoms: C_9  and  C_14
REMARK    9  A    between atoms: C_10  and  C_15
REMARK   10  A    between atoms: C_14  and  C_16
REMARK   11  A    between atoms: C_15  and  C_17
REMARK   12  A    between atoms: C_21  and  C_25
REMARK                            x       y       z     vdW  Elec       q    Type
REMARK                         _______ _______ _______ _____ _____    ______ ____
ROOT
ATOM      7  N   UNL     1      13.360   7.799  20.463  0.00  0.00    -0.176 NA
ATOM      9  C   UNL     1      15.498   7.814  21.732  0.00  0.00    +0.008 C 
ATOM     10  C   UNL     1      16.154   6.996  20.593  0.00  0.00    +0.003 C 
ATOM     11  C   UNL     1      15.432   7.217  19.255  0.00  0.00    +0.021 C 
ATOM     12  C   UNL     1      13.991   7.516  21.787  0.00  0.00    +0.113 C 
ATOM     13  C   UNL     1      13.934   6.951  19.379  0.00  0.00    +0.110 C 
ENDROOT
BRANCH   7   1
ATOM      1  S   UNL     1      11.651   7.913  20.475  0.00  0.00    +0.061 S 
ATOM      2  O   UNL     1      11.110   6.824  21.259  0.00  0.00    -0.153 OA
ATOM      3  O   UNL     1      11.188   8.165  19.128  0.00  0.00    -0.153 OA
BRANCH   1  18
ATOM     18  C   UNL     1      11.449   9.400  21.406  0.00  0.00    +0.106 A 
ATOM     19  C   UNL     1      10.915   9.350  22.693  0.00  0.00    +0.032 A 
ATOM     20  C   UNL     1      11.826  10.624  20.854  0.00  0.00    +0.032 A 
ATOM     22  C   UNL     1      10.758  10.525  23.429  0.00  0.00    +0.047 A 
ATOM     23  C   UNL     1      11.668  11.799  21.589  0.00  0.00    +0.047 A 
ATOM     24  C   UNL     1      11.135  11.749  22.877  0.00  0.00    +0.120 A 
BRANCH  24   5
ATOM      5  O   UNL     1      10.979  12.896  23.595  0.00  0.00    -0.495 OA
ATOM     26  C   UNL     1      11.963  13.178  24.588  0.00  0.00    +0.277 C 
ENDBRANCH  24   5
ENDBRANCH   1  18
ENDBRANCH   7   1
BRANCH   9  14
ATOM     14  C   UNL     1      15.745   9.325  21.640  0.00  0.00    +0.002 C 
ATOM     16  C   UNL     1      14.965  10.072  22.702  0.00  0.00    +0.004 C 
ENDBRANCH   9  14
BRANCH  10  15
ATOM     15  C   UNL     1      17.652   7.264  20.447  0.00  0.00    +0.099 C 
BRANCH  15  17
ATOM      4  O   UNL     1      17.988   5.203  19.225  0.00  0.00    -0.276 OA
ATOM      8  N   UNL     1      19.645   5.956  20.672  0.00  0.00    -0.313 N 
ATOM     17  C   UNL     1      18.417   6.027  20.030  0.00  0.00    +0.213 C 
ATOM     28  H   UNL     1      19.903   6.685  21.331  0.00  0.00    +0.149 HD
BRANCH   8  21
ATOM     21  C   UNL     1      20.584   4.878  20.464  0.00  0.00    +0.132 C 
BRANCH  21  25
ATOM     25  C   UNL     1      21.801   5.018  21.360  0.00  0.00    +0.178 C 
BRANCH  25   6
ATOM      6  O   UNL     1      21.418   4.808  22.712  0.00  0.00    -0.381 OA
ATOM     27  C   UNL     1      22.057   5.730  23.585  0.00  0.00    +0.194 C 
ENDBRANCH  25   6
ENDBRANCH  21  25
ENDBRANCH   8  21
ENDBRANCH  15  17
ENDBRANCH  10  15
TORSDOF 9
ENDMDL
MODEL 2
REMARK VINA RESULT:      -5.8      4.255      8.848
REMARK  Name = 11912763
REMARK  12 active torsions:
REMARK  status: ('A' for Active; 'I' for Inactive)
REMARK    1  A    between atoms: S_1  and  N_7
REMARK    2  A    between atoms: S_1  and  C_18
REMARK    3  A    between atoms: O_5  and  C_24
REMARK    4  A    between atoms: O_5  and  C_26
REMARK    5  A    between atoms: O_6  and  C_25
REMARK    6  A    between atoms: O_6  and  C_27
REMARK    7  A    between atoms: N_8  and  C_21
REMARK    8  A    between atoms: C_9  and  C_14
REMARK    9  A    between atoms: C_10  and  C_15
REMARK   10  A    between atoms: C_14  and  C_16
REMARK   11  A    between atoms: C_15  and  C_17
REMARK   12  A    between atoms: C_21  and  C_25
REMARK                            x       y       z     vdW  Elec       q    Type
REMARK                         _______ _______ _______ _____ _____    ______ ____
ROOT
ATOM      7  N   UNL     1      12.465   8.392  20.753  0.00  0.00    -0.176 NA
ATOM      9  C   UNL     1      12.703  10.688  21.676  0.00  0.00    +0.008 C 
ATOM     10  C   UNL     1      11.250  10.603  22.203  0.00  0.00    +0.003 C 
ATOM     11  C   UNL     1      10.820   9.146  22.431  0.00  0.00    +0.021 C 
ATOM     12  C   UNL     1      12.861   9.797  20.434  0.00  0.00    +0.113 C 
ATOM     13  C   UNL     1      11.040   8.298  21.182  0.00  0.00    +0.110 C 
ENDROOT
BRANCH   7   1
ATOM      1  S   UNL     1      12.968   7.213  19.616  0.00  0.00    +0.061 S 
ATOM      2  O   UNL     1      11.935   6.208  19.491  0.00  0.00    -0.153 OA
ATOM      3  O   UNL     1      14.338   6.844  19.898  0.00  0.00    -0.153 OA
BRANCH   1  18
ATOM     18  C   UNL     1      12.959   8.185  18.142  0.00  0.00    +0.106 A 
ATOM     19  C   UNL     1      14.153   8.703  17.641  0.00  0.00    +0.032 A 
ATOM     20  C   UNL     1      11.758   8.433  17.478  0.00  0.00    +0.032 A 
ATOM     22  C   UNL     1      14.146   9.469  16.475  0.00  0.00    +0.047 A 
ATOM     23  C   UNL     1      11.750   9.200  16.313  0.00  0.00    +0.047 A 
ATOM     24  C   UNL     1      12.945   9.718  15.811  0.00  0.00    +0.120 A 
BRANCH  24   5
ATOM      5  O   UNL     1      12.938  10.467  14.674  0.00  0.00    -0.495 OA
ATOM     26  C   UNL     1      13.838  11.572  14.621  0.00  0.00    +0.277 C 
ENDBRANCH  24   5
ENDBRANCH   1  18
ENDBRANCH   7   1
BRANCH   9  14
ATOM     14  C   UNL     1      13.770  10.346  22.723  0.00  0.00    +0.002 C 
ATOM     16  C   UNL     1      15.067  11.073  22.439  0.00  0.00    +0.004 C 
ENDBRANCH   9  14
BRANCH  10  15
ATOM     15  C   UNL     1      11.018  11.436  23.464  0.00  0.00    +0.099 C 
BRANCH  15  17
ATOM      4  O   UNL     1      11.810  13.707  23.724  0.00  0.00    -0.276 OA
ATOM      8  N   UNL     1      10.077  13.265  22.240  0.00  0.00    -0.313 N 
ATOM     17  C   UNL     1      11.037  12.922  23.180  0.00  0.00    +0.213 C 
ATOM     28  H   UNL     1       9.477  12.541  21.856  0.00  0.00    +0.149 HD
BRANCH   8  21
ATOM     21  C   UNL     1       9.870  14.620  21.780  0.00  0.00    +0.132 C 
BRANCH  21  25
ATOM     25  C   UNL     1       8.831  15.340  22.622  0.00  0.00    +0.178 C 
BRANCH  25   6
ATOM      6  O   UNL     1       7.532  14.930  22.221  0.00  0.00    -0.381 OA
ATOM     27  C   UNL     1       7.304  15.192  20.842  0.00  0.00    +0.194 C 
ENDBRANCH  25   6
ENDBRANCH  21  25
ENDBRANCH   8  21
ENDBRANCH  15  17
ENDBRANCH  10  15
TORSDOF 9
ENDMDL
MODEL 3
REMARK VINA RESULT:      -5.6     27.115     29.973
REMARK  Name = 11912763
REMARK  12 active torsions:
REMARK  status: ('A' for Active; 'I' for Inactive)
REMARK    1  A    between atoms: S_1  and  N_7
REMARK    2  A    between atoms: S_1  and  C_18
REMARK    3  A    between atoms: O_5  and  C_24
REMARK    4  A    between atoms: O_5  and  C_26
REMARK    5  A    between atoms: O_6  and  C_25
REMARK    6  A    between atoms: O_6  and  C_27
REMARK    7  A    between atoms: N_8  and  C_21
REMARK    8  A    between atoms: C_9  and  C_14
REMARK    9  A    between atoms: C_10  and  C_15
REMARK   10  A    between atoms: C_14  and  C_16
REMARK   11  A    between atoms: C_15  and  C_17
REMARK   12  A    between atoms: C_21  and  C_25
REMARK                            x       y       z     vdW  Elec       q    Type
REMARK                         _______ _______ _______ _____ _____    ______ ____
ROOT
ATOM      7  N   UNL     1      -4.325 -10.849  15.264  0.00  0.00    -0.176 NA
ATOM      9  C   UNL     1      -4.918 -10.530  17.657  0.00  0.00    +0.008 C 
ATOM     10  C   UNL     1      -6.334 -10.079  17.223  0.00  0.00    +0.003 C 
ATOM     11  C   UNL     1      -6.714 -10.664  15.853  0.00  0.00    +0.021 C 
ATOM     12  C   UNL     1      -3.905 -10.209  16.546  0.00  0.00    +0.113 C 
ATOM     13  C   UNL     1      -5.653 -10.354  14.802  0.00  0.00    +0.110 C 
ENDROOT
BRANCH   7   1
ATOM      1  S   UNL     1      -3.113 -10.934  14.056  0.00  0.00    +0.061 S 
ATOM      2  O   UNL     1      -1.941 -10.220  14.513  0.00  0.00    -0.153 OA
ATOM      3  O   UNL     1      -3.711 -10.642  12.771  0.00  0.00    -0.153 OA
BRANCH   1  18
ATOM     18  C   UNL     1      -2.749 -12.661  14.106  0.00  0.00    +0.106 A 
ATOM     19  C   UNL     1      -3.638 -13.543  14.719  0.00  0.00    +0.032 A 
ATOM     20  C   UNL     1      -1.573 -13.142  13.531  0.00  0.00    +0.032 A 
ATOM     22  C   UNL     1      -3.351 -14.907  14.758  0.00  0.00    +0.047 A 
ATOM     23  C   UNL     1      -1.286 -14.506  13.570  0.00  0.00    +0.047 A 
ATOM     24  C   UNL     1      -2.175 -15.389  14.183  0.00  0.00    +0.120 A 
BRANCH  24   5
ATOM      5  O   UNL     1      -1.894 -16.721  14.223  0.00  0.00    -0.495 OA
ATOM     26  C   UNL     1      -1.071 -17.179  15.293  0.00  0.00    +0.277 C 
ENDBRANCH  24   5
ENDBRANCH   1  18
ENDBRANCH   7   1
BRANCH   9  14
ATOM     14  C   UNL     1      -4.827 -12.008  18.058  0.00  0.00    +0.002 C 
ATOM     16  C   UNL     1      -3.865 -12.202  19.211  0.00  0.00    +0.004 C 
ENDBRANCH   9  14
BRANCH  10  15
ATOM     15  C   UNL     1      -7.411 -10.397  18.260  0.00  0.00    +0.099 C 
BRANCH  15  17
ATOM      4  O   UNL     1      -9.700 -10.748  17.562  0.00  0.00    -0.276 OA
ATOM      8  N   UNL     1      -8.872  -8.582  17.712  0.00  0.00    -0.313 N 
ATOM     17  C   UNL     1      -8.788  -9.963  17.808  0.00  0.00    +0.213 C 
ATOM     28  H   UNL     1      -8.055  -8.018  17.928  0.00  0.00    +0.149 HD
BRANCH   8  21
ATOM     21  C   UNL     1     -10.073  -7.891  17.301  0.00  0.00    +0.132 C 
BRANCH  21  25
ATOM     25  C   UNL     1     -10.091  -7.650  15.802  0.00  0.00    +0.178 C 
BRANCH  25   6
ATOM      6  O   UNL     1     -10.202  -6.257  15.548  0.00  0.00    -0.381 OA
ATOM     27  C   UNL     1     -11.555  -5.868  15.355  0.00  0.00    +0.194 C 
ENDBRANCH  25   6
ENDBRANCH  21  25
ENDBRANCH   8  21
ENDBRANCH  15  17
ENDBRANCH  10  15
TORSDOF 9
ENDMDL
MODEL 4
REMARK VINA RESULT:      -5.5     26.830     28.986
REMARK  Name = 11912763
REMARK  12 active torsions:
REMARK  status: ('A' for Active; 'I' for Inactive)
REMARK    1  A    between atoms: S_1  and  N_7
REMARK    2  A    between atoms: S_1  and  C_18
REMARK    3  A    between atoms: O_5  and  C_24
REMARK    4  A    between atoms: O_5  and  C_26
REMARK    5  A    between atoms: O_6  and  C_25
REMARK    6  A    between atoms: O_6  and  C_27
REMARK    7  A    between atoms: N_8  and  C_21
REMARK    8  A    between atoms: C_9  and  C_14
REMARK    9  A    between atoms: C_10  and  C_15
REMARK   10  A    between atoms: C_14  and  C_16
REMARK   11  A    between atoms: C_15  and  C_17
REMARK   12  A    between atoms: C_21  and  C_25
REMARK                            x       y       z     vdW  Elec       q    Type
REMARK                         _______ _______ _______ _____ _____    ______ ____
ROOT
ATOM      7  N   UNL     1      -7.343 -11.211  16.713  0.00  0.00    -0.176 NA
ATOM      9  C   UNL     1      -5.067 -12.030  17.287  0.00  0.00    +0.008 C 
ATOM     10  C   UNL     1      -4.475 -11.044  16.250  0.00  0.00    +0.003 C 
ATOM     11  C   UNL     1      -5.408  -9.846  16.019  0.00  0.00    +0.021 C 
ATOM     12  C   UNL     1      -6.492 -12.429  16.873  0.00  0.00    +0.113 C 
ATOM     13  C   UNL     1      -6.819 -10.300  15.656  0.00  0.00    +0.110 C 
ENDROOT
BRANCH   7   1
ATOM      1  S   UNL     1      -9.031 -11.499  16.661  0.00  0.00    +0.061 S 
ATOM      2  O   UNL     1      -9.473 -11.947  17.964  0.00  0.00    -0.153 OA
ATOM      3  O   UNL     1      -9.342 -12.254  15.467  0.00  0.00    -0.153 OA
BRANCH   1  18
ATOM     18  C   UNL     1      -9.616  -9.849  16.429  0.00  0.00    +0.106 A 
ATOM     19  C   UNL     1     -10.144  -9.463  15.197  0.00  0.00    +0.032 A 
ATOM     20  C   UNL     1      -9.552  -8.933  17.479  0.00  0.00    +0.032 A 
ATOM     22  C   UNL     1     -10.607  -8.160  15.015  0.00  0.00    +0.047 A 
ATOM     23  C   UNL     1     -10.015  -7.630  17.296  0.00  0.00    +0.047 A 
ATOM     24  C   UNL     1     -10.543  -7.243  16.064  0.00  0.00    +0.120 A 
BRANCH  24   5
ATOM      5  O   UNL     1     -10.994  -5.971  15.885  0.00  0.00    -0.495 OA
ATOM     26  C   UNL     1     -11.894  -5.749  14.801  0.00  0.00    +0.277 C 
ENDBRANCH  24   5
ENDBRANCH   1  18
ENDBRANCH   7   1
BRANCH   9  14
ATOM     14  C   UNL     1      -5.051 -11.506  18.729  0.00  0.00    +0.002 C 
ATOM     16  C   UNL     1      -3.962 -12.175  19.541  0.00  0.00    +0.004 C 
ENDBRANCH   9  14
BRANCH  10  15
ATOM     15  C   UNL     1      -3.067 -10.568  16.609  0.00  0.00    +0.099 C 
BRANCH  15  17
ATOM      4  O   UNL     1      -1.107 -10.198  15.241  0.00  0.00    -0.276 OA
ATOM      8  N   UNL     1      -2.342 -12.147  14.961  0.00  0.00    -0.313 N 
ATOM     17  C   UNL     1      -2.054 -10.920  15.541  0.00  0.00    +0.213 C 
ATOM     28  H   UNL     1      -3.158 -12.664  15.274  0.00  0.00    +0.149 HD
BRANCH   8  21
ATOM     21  C   UNL     1      -1.541 -12.731  13.910  0.00  0.00    +0.132 C 
BRANCH  21  25
ATOM     25  C   UNL     1      -2.148 -12.478  12.542  0.00  0.00    +0.178 C 
BRANCH  25   6
ATOM      6  O   UNL     1      -1.737 -11.203  12.071  0.00  0.00    -0.381 OA
ATOM     27  C   UNL     1      -2.851 -10.369  11.783  0.00  0.00    +0.194 C 
ENDBRANCH  25   6
ENDBRANCH  21  25
ENDBRANCH   8  21
ENDBRANCH  15  17
ENDBRANCH  10  15
TORSDOF 9
ENDMDL
MODEL 5
REMARK VINA RESULT:      -5.5      2.406      8.541
REMARK  Name = 11912763
REMARK  12 active torsions:
REMARK  status: ('A' for Active; 'I' for Inactive)
REMARK    1  A    between atoms: S_1  and  N_7
REMARK    2  A    between atoms: S_1  and  C_18
REMARK    3  A    between atoms: O_5  and  C_24
REMARK    4  A    between atoms: O_5  and  C_26
REMARK    5  A    between atoms: O_6  and  C_25
REMARK    6  A    between atoms: O_6  and  C_27
REMARK    7  A    between atoms: N_8  and  C_21
REMARK    8  A    between atoms: C_9  and  C_14
REMARK    9  A    between atoms: C_10  and  C_15
REMARK   10  A    between atoms: C_14  and  C_16
REMARK   11  A    between atoms: C_15  and  C_17
REMARK   12  A    between atoms: C_21  and  C_25
REMARK                            x       y       z     vdW  Elec       q    Type
REMARK                         _______ _______ _______ _____ _____    ______ ____
ROOT
ATOM      7  N   UNL     1      12.832   8.987  19.915  0.00  0.00    -0.176 NA
ATOM      9  C   UNL     1      13.456  11.390  19.789  0.00  0.00    +0.008 C 
ATOM     10  C   UNL     1      12.229  11.732  20.670  0.00  0.00    +0.003 C 
ATOM     11  C   UNL     1      11.815  10.538  21.543  0.00  0.00    +0.021 C 
ATOM     12  C   UNL     1      13.184  10.106  18.990  0.00  0.00    +0.113 C 
ATOM     13  C   UNL     1      11.602   9.281  20.704  0.00  0.00    +0.110 C 
ENDROOT
BRANCH   7   1
ATOM      1  S   UNL     1      12.905   7.419  19.229  0.00  0.00    +0.061 S 
ATOM      2  O   UNL     1      12.836   7.531  17.788  0.00  0.00    -0.153 OA
ATOM      3  O   UNL     1      12.006   6.548  19.954  0.00  0.00    -0.153 OA
BRANCH   1  18
ATOM     18  C   UNL     1      14.559   6.973  19.659  0.00  0.00    +0.106 A 
ATOM     19  C   UNL     1      14.967   7.011  20.992  0.00  0.00    +0.032 A 
ATOM     20  C   UNL     1      15.455   6.581  18.665  0.00  0.00    +0.032 A 
ATOM     22  C   UNL     1      16.272   6.657  21.331  0.00  0.00    +0.047 A 
ATOM     23  C   UNL     1      16.761   6.228  19.004  0.00  0.00    +0.047 A 
ATOM     24  C   UNL     1      17.170   6.265  20.338  0.00  0.00    +0.120 A 
BRANCH  24   5
ATOM      5  O   UNL     1      18.445   5.921  20.669  0.00  0.00    -0.495 OA
ATOM     26  C   UNL     1      19.175   6.840  21.479  0.00  0.00    +0.277 C 
ENDBRANCH  24   5
ENDBRANCH   1  18
ENDBRANCH   7   1
BRANCH   9  14
ATOM     14  C   UNL     1      14.772  11.270  20.569  0.00  0.00    +0.002 C 
ATOM     16  C   UNL     1      15.824  10.545  19.757  0.00  0.00    +0.004 C 
ENDBRANCH   9  14
BRANCH  10  15
ATOM     15  C   UNL     1      12.434  12.981  21.527  0.00  0.00    +0.099 C 
BRANCH  15  17
ATOM      4  O   UNL     1      10.126  13.674  21.746  0.00  0.00    -0.276 OA
ATOM      8  N   UNL     1      11.398  13.318  23.659  0.00  0.00    -0.313 N 
ATOM     17  C   UNL     1      11.184  13.364  22.289  0.00  0.00    +0.213 C 
ATOM     28  H   UNL     1      12.315  13.059  24.010  0.00  0.00    +0.149 HD
BRANCH   8  21
ATOM     21  C   UNL     1      10.375  13.637  24.629  0.00  0.00    +0.132 C 
BRANCH  21  25
ATOM     25  C   UNL     1      10.336  15.126  24.926  0.00  0.00    +0.178 C 
BRANCH  25   6
ATOM      6  O   UNL     1      11.484  15.487  25.681  0.00  0.00    -0.381 OA
ATOM     27  C   UNL     1      11.213  15.487  27.076  0.00  0.00    +0.194 C 
ENDBRANCH  25   6
ENDBRANCH  21  25
ENDBRANCH   8  21
ENDBRANCH  15  17
ENDBRANCH  10  15
TORSDOF 9
ENDMDL
MODEL 6
REMARK VINA RESULT:      -5.4      2.047      2.823
REMARK  Name = 11912763
REMARK  12 active torsions:
REMARK  status: ('A' for Active; 'I' for Inactive)
REMARK    1  A    between atoms: S_1  and  N_7
REMARK    2  A    between atoms: S_1  and  C_18
REMARK    3  A    between atoms: O_5  and  C_24
REMARK    4  A    between atoms: O_5  and  C_26
REMARK    5  A    between atoms: O_6  and  C_25
REMARK    6  A    between atoms: O_6  and  C_27
REMARK    7  A    between atoms: N_8  and  C_21
REMARK    8  A    between atoms: C_9  and  C_14
REMARK    9  A    between atoms: C_10  and  C_15
REMARK   10  A    between atoms: C_14  and  C_16
REMARK   11  A    between atoms: C_15  and  C_17
REMARK   12  A    between atoms: C_21  and  C_25
REMARK                            x       y       z     vdW  Elec       q    Type
REMARK                         _______ _______ _______ _____ _____    ______ ____
ROOT
ATOM      7  N   UNL     1      14.708   9.454  19.571  0.00  0.00    -0.176 NA
ATOM      9  C   UNL     1      15.515   7.103  19.620  0.00  0.00    +0.008 C 
ATOM     10  C   UNL     1      16.852   7.598  20.224  0.00  0.00    +0.003 C 
ATOM     11  C   UNL     1      16.672   8.930  20.969  0.00  0.00    +0.021 C 
ATOM     12  C   UNL     1      14.888   8.212  18.761  0.00  0.00    +0.113 C 
ATOM     13  C   UNL     1      16.006   9.979  20.084  0.00  0.00    +0.110 C 
ENDROOT
BRANCH   7   1
ATOM      1  S   UNL     1      13.661  10.627  18.891  0.00  0.00    +0.061 S 
ATOM      2  O   UNL     1      12.761   9.976  17.965  0.00  0.00    -0.153 OA
ATOM      3  O   UNL     1      14.442  11.777  18.490  0.00  0.00    -0.153 OA
BRANCH   1  18
ATOM     18  C   UNL     1      12.731  11.076  20.324  0.00  0.00    +0.106 A 
ATOM     19  C   UNL     1      12.526  12.421  20.629  0.00  0.00    +0.032 A 
ATOM     20  C   UNL     1      12.199  10.084  21.148  0.00  0.00    +0.032 A 
ATOM     22  C   UNL     1      11.791  12.775  21.760  0.00  0.00    +0.047 A 
ATOM     23  C   UNL     1      11.464  10.438  22.279  0.00  0.00    +0.047 A 
ATOM     24  C   UNL     1      11.259  11.784  22.585  0.00  0.00    +0.120 A 
BRANCH  24   5
ATOM      5  O   UNL     1      10.542  12.130  23.690  0.00  0.00    -0.495 OA
ATOM     26  C   UNL     1      11.050  11.704  24.953  0.00  0.00    +0.277 C 
ENDBRANCH  24   5
ENDBRANCH   1  18
ENDBRANCH   7   1
BRANCH   9  14
ATOM     14  C   UNL     1      14.509   6.595  20.661  0.00  0.00    +0.002 C 
ATOM     16  C   UNL     1      13.101   6.593  20.104  0.00  0.00    +0.004 C 
ENDBRANCH   9  14
BRANCH  10  15
ATOM     15  C   UNL     1      17.524   6.563  21.125  0.00  0.00    +0.099 C 
BRANCH  15  17
ATOM      4  O   UNL     1      19.299   7.448  22.511  0.00  0.00    -0.276 OA
ATOM      8  N   UNL     1      19.807   6.609  20.404  0.00  0.00    -0.313 N 
ATOM     17  C   UNL     1      18.956   6.931  21.452  0.00  0.00    +0.213 C 
ATOM     28  H   UNL     1      19.422   6.192  19.562  0.00  0.00    +0.149 HD
BRANCH   8  21
ATOM     21  C   UNL     1      21.231   6.851  20.442  0.00  0.00    +0.132 C 
BRANCH  21  25
ATOM     25  C   UNL     1      22.018   5.553  20.425  0.00  0.00    +0.178 C 
BRANCH  25   6
ATOM      6  O   UNL     1      21.643   4.759  21.542  0.00  0.00    -0.381 OA
ATOM     27  C   UNL     1      21.556   3.383  21.199  0.00  0.00    +0.194 C 
ENDBRANCH  25   6
ENDBRANCH  21  25
ENDBRANCH   8  21
ENDBRANCH  15  17
ENDBRANCH  10  15
TORSDOF 9
ENDMDL
MODEL 7
REMARK VINA RESULT:      -5.4     27.161     29.882
REMARK  Name = 11912763
REMARK  12 active torsions:
REMARK  status: ('A' for Active; 'I' for Inactive)
REMARK    1  A    between atoms: S_1  and  N_7
REMARK    2  A    between atoms: S_1  and  C_18
REMARK    3  A    between atoms: O_5  and  C_24
REMARK    4  A    between atoms: O_5  and  C_26
REMARK    5  A    between atoms: O_6  and  C_25
REMARK    6  A    between atoms: O_6  and  C_27
REMARK    7  A    between atoms: N_8  and  C_21
REMARK    8  A    between atoms: C_9  and  C_14
REMARK    9  A    between atoms: C_10  and  C_15
REMARK   10  A    between atoms: C_14  and  C_16
REMARK   11  A    between atoms: C_15  and  C_17
REMARK   12  A    between atoms: C_21  and  C_25
REMARK                            x       y       z     vdW  Elec       q    Type
REMARK                         _______ _______ _______ _____ _____    ______ ____
ROOT
ATOM      7  N   UNL     1      -3.847 -11.583  15.388  0.00  0.00    -0.176 NA
ATOM      9  C   UNL     1      -6.071 -11.853  16.466  0.00  0.00    +0.008 C 
ATOM     10  C   UNL     1      -5.625 -10.873  17.579  0.00  0.00    +0.003 C 
ATOM     11  C   UNL     1      -4.525  -9.922  17.082  0.00  0.00    +0.021 C 
ATOM     12  C   UNL     1      -4.845 -12.576  15.886  0.00  0.00    +0.113 C 
ATOM     13  C   UNL     1      -3.355 -10.692  16.477  0.00  0.00    +0.110 C 
ENDROOT
BRANCH   7   1
ATOM      1  S   UNL     1      -2.635 -12.217  14.356  0.00  0.00    +0.061 S 
ATOM      2  O   UNL     1      -2.958 -13.591  14.038  0.00  0.00    -0.153 OA
ATOM      3  O   UNL     1      -1.337 -11.857  14.882  0.00  0.00    -0.153 OA
BRANCH   1  18
ATOM     18  C   UNL     1      -2.925 -11.245  12.910  0.00  0.00    +0.106 A 
ATOM     19  C   UNL     1      -4.219 -11.112  12.407  0.00  0.00    +0.032 A 
ATOM     20  C   UNL     1      -1.860 -10.611  12.272  0.00  0.00    +0.032 A 
ATOM     22  C   UNL     1      -4.448 -10.343  11.266  0.00  0.00    +0.047 A 
ATOM     23  C   UNL     1      -2.088  -9.843  11.131  0.00  0.00    +0.047 A 
ATOM     24  C   UNL     1      -3.382  -9.708  10.628  0.00  0.00    +0.120 A 
BRANCH  24   5
ATOM      5  O   UNL     1      -3.606  -8.960   9.513  0.00  0.00    -0.495 OA
ATOM     26  C   UNL     1      -4.837  -9.172   8.825  0.00  0.00    +0.277 C 
ENDBRANCH  24   5
ENDBRANCH   1  18
ENDBRANCH   7   1
BRANCH   9  14
ATOM     14  C   UNL     1      -6.889 -11.197  15.346  0.00  0.00    +0.002 C 
ATOM     16  C   UNL     1      -7.313 -12.218  14.311  0.00  0.00    +0.004 C 
ENDBRANCH   9  14
BRANCH  10  15
ATOM     15  C   UNL     1      -6.786 -10.083  18.184  0.00  0.00    +0.099 C 
BRANCH  15  17
ATOM      4  O   UNL     1      -7.007 -11.654  20.011  0.00  0.00    -0.276 OA
ATOM      8  N   UNL     1      -8.908 -10.631  19.149  0.00  0.00    -0.313 N 
ATOM     17  C   UNL     1      -7.545 -10.884  19.220  0.00  0.00    +0.213 C 
ATOM     28  H   UNL     1      -9.256  -9.982  18.449  0.00  0.00    +0.149 HD
BRANCH   8  21
ATOM     21  C   UNL     1      -9.874 -11.261  20.019  0.00  0.00    +0.132 C 
BRANCH  21  25
ATOM     25  C   UNL     1     -11.279 -11.168  19.451  0.00  0.00    +0.178 C 
BRANCH  25   6
ATOM      6  O   UNL     1     -11.783  -9.855  19.650  0.00  0.00    -0.381 OA
ATOM     27  C   UNL     1     -12.750  -9.820  20.690  0.00  0.00    +0.194 C 
ENDBRANCH  25   6
ENDBRANCH  21  25
ENDBRANCH   8  21
ENDBRANCH  15  17
ENDBRANCH  10  15
TORSDOF 9
ENDMDL
MODEL 8
REMARK VINA RESULT:      -5.4      4.518      7.507
REMARK  Name = 11912763
REMARK  12 active torsions:
REMARK  status: ('A' for Active; 'I' for Inactive)
REMARK    1  A    between atoms: S_1  and  N_7
REMARK    2  A    between atoms: S_1  and  C_18
REMARK    3  A    between atoms: O_5  and  C_24
REMARK    4  A    between atoms: O_5  and  C_26
REMARK    5  A    between atoms: O_6  and  C_25
REMARK    6  A    between atoms: O_6  and  C_27
REMARK    7  A    between atoms: N_8  and  C_21
REMARK    8  A    between atoms: C_9  and  C_14
REMARK    9  A    between atoms: C_10  and  C_15
REMARK   10  A    between atoms: C_14  and  C_16
REMARK   11  A    between atoms: C_15  and  C_17
REMARK   12  A    between atoms: C_21  and  C_25
REMARK                            x       y       z     vdW  Elec       q    Type
REMARK                         _______ _______ _______ _____ _____    ______ ____
ROOT
ATOM      7  N   UNL     1      12.479   9.471  20.749  0.00  0.00    -0.176 NA
ATOM      9  C   UNL     1      11.940  11.482  22.108  0.00  0.00    +0.008 C 
ATOM     10  C   UNL     1      13.063  11.087  23.097  0.00  0.00    +0.003 C 
ATOM     11  C   UNL     1      14.137  10.226  22.413  0.00  0.00    +0.021 C 
ATOM     12  C   UNL     1      11.380  10.224  21.425  0.00  0.00    +0.113 C 
ATOM     13  C   UNL     1      13.520   9.018  21.714  0.00  0.00    +0.110 C 
ENDROOT
BRANCH   7   1
ATOM      1  S   UNL     1      11.969   8.293  19.615  0.00  0.00    +0.061 S 
ATOM      2  O   UNL     1      10.561   8.480  19.340  0.00  0.00    -0.153 OA
ATOM      3  O   UNL     1      12.487   7.002  20.015  0.00  0.00    -0.153 OA
BRANCH   1  18
ATOM     18  C   UNL     1      12.873   8.824  18.193  0.00  0.00    +0.106 A 
ATOM     19  C   UNL     1      13.053  10.186  17.951  0.00  0.00    +0.032 A 
ATOM     20  C   UNL     1      13.408   7.882  17.315  0.00  0.00    +0.032 A 
ATOM     22  C   UNL     1      13.768  10.605  16.830  0.00  0.00    +0.047 A 
ATOM     23  C   UNL     1      14.122   8.302  16.193  0.00  0.00    +0.047 A 
ATOM     24  C   UNL     1      14.303   9.663  15.950  0.00  0.00    +0.120 A 
BRANCH  24   5
ATOM      5  O   UNL     1      14.999  10.074  14.855  0.00  0.00    -0.495 OA
ATOM     26  C   UNL     1      15.794  11.249  14.994  0.00  0.00    +0.277 C 
ENDBRANCH  24   5
ENDBRANCH   1  18
ENDBRANCH   7   1
BRANCH   9  14
ATOM     14  C   UNL     1      12.364  12.519  21.061  0.00  0.00    +0.002 C 
ATOM     16  C   UNL     1      11.388  13.676  21.011  0.00  0.00    +0.004 C 
ENDBRANCH   9  14
BRANCH  10  15
ATOM     15  C   UNL     1      13.700  12.289  23.794  0.00  0.00    +0.099 C 
BRANCH  15  17
ATOM      4  O   UNL     1      12.239  11.859  25.673  0.00  0.00    -0.276 OA
ATOM      8  N   UNL     1      14.013  13.340  25.922  0.00  0.00    -0.313 N 
ATOM     17  C   UNL     1      13.216  12.449  25.218  0.00  0.00    +0.213 C 
ATOM     28  H   UNL     1      14.794  13.787  25.450  0.00  0.00    +0.149 HD
BRANCH   8  21
ATOM     21  C   UNL     1      13.780  13.685  27.306  0.00  0.00    +0.132 C 
BRANCH  21  25
ATOM     25  C   UNL     1      14.850  13.102  28.212  0.00  0.00    +0.178 C 
BRANCH  25   6
ATOM      6  O   UNL     1      14.799  11.684  28.152  0.00  0.00    -0.381 OA
ATOM     27  C   UNL     1      16.093  11.122  27.986  0.00  0.00    +0.194 C 
ENDBRANCH  25   6
ENDBRANCH  21  25
ENDBRANCH   8  21
ENDBRANCH  15  17
ENDBRANCH  10  15
TORSDOF 9
ENDMDL
MODEL 9
REMARK VINA RESULT:      -5.3      2.717      9.073
REMARK  Name = 11912763
REMARK  12 active torsions:
REMARK  status: ('A' for Active; 'I' for Inactive)
REMARK    1  A    between atoms: S_1  and  N_7
REMARK    2  A    between atoms: S_1  and  C_18
REMARK    3  A    between atoms: O_5  and  C_24
REMARK    4  A    between atoms: O_5  and  C_26
REMARK    5  A    between atoms: O_6  and  C_25
REMARK    6  A    between atoms: O_6  and  C_27
REMARK    7  A    between atoms: N_8  and  C_21
REMARK    8  A    between atoms: C_9  and  C_14
REMARK    9  A    between atoms: C_10  and  C_15
REMARK   10  A    between atoms: C_14  and  C_16
REMARK   11  A    between atoms: C_15  and  C_17
REMARK   12  A    between atoms: C_21  and  C_25
REMARK                            x       y       z     vdW  Elec       q    Type
REMARK                         _______ _______ _______ _____ _____    ______ ____
ROOT
ATOM      7  N   UNL     1      13.569   9.036  20.231  0.00  0.00    -0.176 NA
ATOM      9  C   UNL     1      13.493  11.451  20.816  0.00  0.00    +0.008 C 
ATOM     10  C   UNL     1      12.412  11.137  21.878  0.00  0.00    +0.003 C 
ATOM     11  C   UNL     1      12.507   9.681  22.362  0.00  0.00    +0.021 C 
ATOM     12  C   UNL     1      13.425  10.417  19.681  0.00  0.00    +0.113 C 
ATOM     13  C   UNL     1      12.480   8.702  21.193  0.00  0.00    +0.110 C 
ENDROOT
BRANCH   7   1
ATOM      1  S   UNL     1      13.925   7.820  19.077  0.00  0.00    +0.061 S 
ATOM      2  O   UNL     1      14.037   8.430  17.770  0.00  0.00    -0.153 OA
ATOM      3  O   UNL     1      13.050   6.690  19.302  0.00  0.00    -0.153 OA
BRANCH   1  18
ATOM     18  C   UNL     1      15.548   7.365  19.602  0.00  0.00    +0.106 A 
ATOM     19  C   UNL     1      16.149   8.033  20.668  0.00  0.00    +0.032 A 
ATOM     20  C   UNL     1      16.228   6.335  18.951  0.00  0.00    +0.032 A 
ATOM     22  C   UNL     1      17.431   7.672  21.084  0.00  0.00    +0.047 A 
ATOM     23  C   UNL     1      17.510   5.975  19.366  0.00  0.00    +0.047 A 
ATOM     24  C   UNL     1      18.111   6.642  20.433  0.00  0.00    +0.120 A 
BRANCH  24   5
ATOM      5  O   UNL     1      19.363   6.292  20.838  0.00  0.00    -0.495 OA
ATOM     26  C   UNL     1      19.702   6.554  22.198  0.00  0.00    +0.277 C 
ENDBRANCH  24   5
ENDBRANCH   1  18
ENDBRANCH   7   1
BRANCH   9  14
ATOM     14  C   UNL     1      14.917  11.539  21.379  0.00  0.00    +0.002 C 
ATOM     16  C   UNL     1      15.620  12.789  20.893  0.00  0.00    +0.004 C 
ENDBRANCH   9  14
BRANCH  10  15
ATOM     15  C   UNL     1      12.437  12.101  23.064  0.00  0.00    +0.099 C 
BRANCH  15  17
ATOM      4  O   UNL     1      10.328  11.797  24.210  0.00  0.00    -0.276 OA
ATOM      8  N   UNL     1      10.703  13.752  23.011  0.00  0.00    -0.313 N 
ATOM     17  C   UNL     1      11.046  12.502  23.506  0.00  0.00    +0.213 C 
ATOM     28  H   UNL     1      11.366  14.252  22.425  0.00  0.00    +0.149 HD
BRANCH   8  21
ATOM     21  C   UNL     1       9.431  14.384  23.274  0.00  0.00    +0.132 C 
BRANCH  21  25
ATOM     25  C   UNL     1       9.109  15.442  22.234  0.00  0.00    +0.178 C 
BRANCH  25   6
ATOM      6  O   UNL     1       8.344  14.860  21.188  0.00  0.00    -0.381 OA
ATOM     27  C   UNL     1       6.974  15.229  21.276  0.00  0.00    +0.194 C 
ENDBRANCH  25   6
ENDBRANCH  21  25
ENDBRANCH   8  21
ENDBRANCH  15  17
ENDBRANCH  10  15
TORSDOF 9
ENDMDL
MODEL 10
REMARK VINA RESULT:      -5.3      3.985      8.040
REMARK  Name = 11912763
REMARK  12 active torsions:
REMARK  status: ('A' for Active; 'I' for Inactive)
REMARK    1  A    between atoms: S_1  and  N_7
REMARK    2  A    between atoms: S_1  and  C_18
REMARK    3  A    between atoms: O_5  and  C_24
REMARK    4  A    between atoms: O_5  and  C_26
REMARK    5  A    between atoms: O_6  and  C_25
REMARK    6  A    between atoms: O_6  and  C_27
REMARK    7  A    between atoms: N_8  and  C_21
REMARK    8  A    between atoms: C_9  and  C_14
REMARK    9  A    between atoms: C_10  and  C_15
REMARK   10  A    between atoms: C_14  and  C_16
REMARK   11  A    between atoms: C_15  and  C_17
REMARK   12  A    between atoms: C_21  and  C_25
REMARK                            x       y       z     vdW  Elec       q    Type
REMARK                         _______ _______ _______ _____ _____    ______ ____
ROOT
ATOM      7  N   UNL     1      14.756   9.344  20.279  0.00  0.00    -0.176 NA
ATOM      9  C   UNL     1      12.514   8.847  19.327  0.00  0.00    +0.008 C 
ATOM     10  C   UNL     1      12.842   9.772  18.130  0.00  0.00    +0.003 C 
ATOM     11  C   UNL     1      14.358   9.883  17.905  0.00  0.00    +0.021 C 
ATOM     12  C   UNL     1      13.291   9.307  20.570  0.00  0.00    +0.113 C 
ATOM     13  C   UNL     1      15.082  10.298  19.181  0.00  0.00    +0.110 C 
ENDROOT
BRANCH   7   1
ATOM      1  S   UNL     1      15.774   9.433  21.655  0.00  0.00    +0.061 S 
ATOM      2  O   UNL     1      15.045   8.961  22.812  0.00  0.00    -0.153 OA
ATOM      3  O   UNL     1      16.438  10.718  21.664  0.00  0.00    -0.153 OA
BRANCH   1  18
ATOM     18  C   UNL     1      16.970   8.205  21.230  0.00  0.00    +0.106 A 
ATOM     19  C   UNL     1      18.266   8.291  21.738  0.00  0.00    +0.032 A 
ATOM     20  C   UNL     1      16.618   7.150  20.389  0.00  0.00    +0.032 A 
ATOM     22  C   UNL     1      19.211   7.320  21.404  0.00  0.00    +0.047 A 
ATOM     23  C   UNL     1      17.563   6.180  20.055  0.00  0.00    +0.047 A 
ATOM     24  C   UNL     1      18.859   6.264  20.563  0.00  0.00    +0.120 A 
BRANCH  24   5
ATOM      5  O   UNL     1      19.782   5.319  20.236  0.00  0.00    -0.495 OA
ATOM     26  C   UNL     1      20.954   5.248  21.045  0.00  0.00    +0.277 C 
ENDBRANCH  24   5
ENDBRANCH   1  18
ENDBRANCH   7   1
BRANCH   9  14
ATOM     14  C   UNL     1      12.766   7.359  19.054  0.00  0.00    +0.002 C 
ATOM     16  C   UNL     1      12.470   6.521  20.281  0.00  0.00    +0.004 C 
ENDBRANCH   9  14
BRANCH  10  15
ATOM     15  C   UNL     1      12.135   9.360  16.839  0.00  0.00    +0.099 C 
BRANCH  15  17
ATOM      4  O   UNL     1      13.571   8.741  14.993  0.00  0.00    -0.276 OA
ATOM      8  N   UNL     1      12.996  10.973  15.294  0.00  0.00    -0.313 N 
ATOM     17  C   UNL     1      12.981   9.623  15.612  0.00  0.00    +0.213 C 
ATOM     28  H   UNL     1      12.482  11.626  15.878  0.00  0.00    +0.149 HD
BRANCH   8  21
ATOM     21  C   UNL     1      13.727  11.511  14.170  0.00  0.00    +0.132 C 
BRANCH  21  25
ATOM     25  C   UNL     1      15.101  12.007  14.584  0.00  0.00    +0.178 C 
BRANCH  25   6
ATOM      6  O   UNL     1      14.987  12.771  15.776  0.00  0.00    -0.381 OA
ATOM     27  C   UNL     1      14.858  14.158  15.497  0.00  0.00    +0.194 C 
ENDBRANCH  25   6
ENDBRANCH  21  25
ENDBRANCH   8  21
ENDBRANCH  15  17
ENDBRANCH  10  15
TORSDOF 9
ENDMDL
