REMARK  Name = 40533382
REMARK  5 active torsions:
REMARK  status: ('A' for Active; 'I' for Inactive)
REMARK    1  A    between atoms: N_3  and  C_10
REMARK    2  A    between atoms: N_4  and  C_11
REMARK    3  A    between atoms: N_4  and  C_14
REMARK    4  A    between atoms: C_14  and  C_17
REMARK    5  A    between atoms: C_16  and  C_18
REMARK                            x       y       z     vdW  Elec       q    Type
REMARK                         _______ _______ _______ _____ _____    ______ ____
ROOT
ATOM      1  O   UNL     1       0.715  -2.594  -1.465  0.00  0.00    -0.370 OA
ATOM      2  O   UNL     1       1.143  -2.479   1.604  0.00  0.00    -0.370 OA
ATOM      8  C   UNL     1       0.472  -1.599   0.681  0.00  0.00    +0.175 C 
ATOM      9  C   UNL     1       1.286  -1.600  -0.598  0.00  0.00    +0.168 C 
ATOM     10  C   UNL     1      -0.867  -2.192   0.280  0.00  0.00    +0.166 C 
ATOM     11  C   UNL     1       2.671  -2.020  -0.158  0.00  0.00    +0.111 C 
ATOM     12  C   UNL     1      -0.468  -3.131  -0.856  0.00  0.00    +0.189 C 
ATOM     13  C   UNL     1       2.362  -2.946   1.008  0.00  0.00    +0.181 C 
ENDROOT
BRANCH  10   3
ATOM      3  N   UNL     1      -1.865  -1.109  -0.083  0.00  0.00    -0.243 N 
ATOM      5  N   UNL     1      -1.601  -0.236  -1.069  0.00  0.00    -0.065 NA
ATOM      6  N   UNL     1      -2.642   0.584  -1.159  0.00  0.00    -0.128 NA
ATOM     15  C   UNL     1      -3.080  -0.873   0.483  0.00  0.00    +0.140 A 
ATOM     16  C   UNL     1      -3.557   0.207  -0.215  0.00  0.00    +0.131 A 
BRANCH  16  18
ATOM      7  N   UNL     1      -5.578   0.323   0.985  0.00  0.00    -0.253 NA
ATOM     18  C   UNL     1      -4.814   0.848   0.001  0.00  0.00    +0.092 A 
ATOM     23  C   UNL     1      -5.186   1.936  -0.773  0.00  0.00    +0.030 A 
ATOM     25  C   UNL     1      -6.421   2.522  -0.521  0.00  0.00    +0.004 A 
ATOM     26  C   UNL     1      -6.772   0.919   1.201  0.00  0.00    +0.111 A 
ATOM     27  C   UNL     1      -7.236   2.010   0.483  0.00  0.00    +0.020 A 
ENDBRANCH  16  18
ENDBRANCH  10   3
BRANCH  11   4
ATOM      4  N   UNL     1       3.431  -0.866   0.317  0.00  0.00    -0.305 NA
ATOM     28  H   UNL     1       4.125  -1.175   0.999  0.00  0.00    +0.123 HD
BRANCH   4  14
ATOM     14  C   UNL     1       4.126  -0.218  -0.784  0.00  0.00    +0.116 C 
BRANCH  14  17
ATOM     17  C   UNL     1       4.916   0.978  -0.322  0.00  0.00    -0.034 A 
ATOM     19  C   UNL     1       4.321   2.239  -0.298  0.00  0.00    +0.005 A 
ATOM     20  C   UNL     1       6.242   0.825   0.082  0.00  0.00    +0.005 A 
ATOM     21  C   UNL     1       5.052   3.347   0.130  0.00  0.00    +0.000 A 
ATOM     22  C   UNL     1       6.973   1.933   0.510  0.00  0.00    +0.000 A 
ATOM     24  C   UNL     1       6.378   3.194   0.534  0.00  0.00    +0.000 A 
ENDBRANCH  14  17
ENDBRANCH   4  14
ENDBRANCH  11   4
TORSDOF 5
