REMARK  Name = 75536748
REMARK  5 active torsions:
REMARK  status: ('A' for Active; 'I' for Inactive)
REMARK    1  A    between atoms: O_2  and  C_10
REMARK    2  A    between atoms: N_5  and  C_9
REMARK    3  A    between atoms: N_5  and  C_11
REMARK    4  A    between atoms: N_7  and  C_16
REMARK    5  A    between atoms: C_12  and  C_16
REMARK                            x       y       z     vdW  Elec       q    Type
REMARK                         _______ _______ _______ _____ _____    ______ ____
ROOT
ATOM      1  O   UNL     1      -0.138  -0.943   0.501  0.00  0.00    -0.371 OA
ATOM      9  C   UNL     1      -2.211   0.195   0.275  0.00  0.00    +0.111 C 
ATOM     10  C   UNL     1      -1.183   1.149   0.853  0.00  0.00    +0.164 C 
ATOM     12  C   UNL     1       0.115   0.470   0.437  0.00  0.00    +0.165 C 
ATOM     13  C   UNL     1      -1.560  -1.151   0.551  0.00  0.00    +0.181 C 
ENDROOT
BRANCH  10   2
ATOM      2  O   UNL     1      -1.289   2.455   0.320  0.00  0.00    -0.388 OA
ATOM     26  H   UNL     1      -1.216   2.397  -0.647  0.00  0.00    +0.210 HD
ENDBRANCH  10   2
BRANCH   9   5
ATOM      5  N   UNL     1      -3.528   0.321   0.877  0.00  0.00    -0.306 NA
ATOM     24  H   UNL     1      -3.773   1.305   0.980  0.00  0.00    +0.123 HD
BRANCH   5  11
ATOM      6  N   UNL     1      -7.243  -0.420  -1.060  0.00  0.00    -0.316 NA
ATOM     11  C   UNL     1      -4.541  -0.359   0.073  0.00  0.00    +0.056 C 
ATOM     14  C   UNL     1      -5.776  -0.666   0.926  0.00  0.00    +0.034 C 
ATOM     15  C   UNL     1      -4.936   0.487  -1.143  0.00  0.00    +0.034 C 
ATOM     17  C   UNL     1      -6.888  -1.280   0.073  0.00  0.00    +0.082 C 
ATOM     18  C   UNL     1      -6.080  -0.172  -1.915  0.00  0.00    +0.082 C 
ATOM     25  H   UNL     1      -7.974  -0.873  -1.609  0.00  0.00    +0.122 HD
ENDBRANCH   5  11
ENDBRANCH   9   5
BRANCH  12  16
ATOM     16  C   UNL     1       1.291   0.822   1.331  0.00  0.00    +0.140 C 
BRANCH  16   7
ATOM      3  O   UNL     1       7.078  -1.189  -0.581  0.00  0.00    -0.377 OA
ATOM      4  O   UNL     1       3.163   1.836  -0.509  0.00  0.00    -0.253 OA
ATOM      7  N   UNL     1       2.500   0.154   0.904  0.00  0.00    -0.297 N 
ATOM      8  N   UNL     1       4.503  -0.049  -0.334  0.00  0.00    -0.281 N 
ATOM     19  C   UNL     1       3.375   0.725  -0.012  0.00  0.00    +0.302 C 
ATOM     20  C   UNL     1       4.754  -1.434   0.091  0.00  0.00    +0.137 C 
ATOM     21  C   UNL     1       5.476   0.472  -1.297  0.00  0.00    +0.137 C 
ATOM     22  C   UNL     1       6.218  -1.628   0.471  0.00  0.00    +0.179 C 
ATOM     23  C   UNL     1       6.899   0.206  -0.833  0.00  0.00    +0.179 C 
ATOM     27  H   UNL     1       2.662  -0.761   1.297  0.00  0.00    +0.150 HD
ENDBRANCH  16   7
ENDBRANCH  12  16
TORSDOF 5
