MODEL 1
REMARK VINA RESULT:      -7.8      0.000      0.000
REMARK  Name = 38026473
REMARK  6 active torsions:
REMARK  status: ('A' for Active; 'I' for Inactive)
REMARK    1  A    between atoms: N_3  and  C_14
REMARK    2  A    between atoms: N_4  and  C_9
REMARK    3  A    between atoms: N_6  and  C_18
REMARK    4  A    between atoms: C_10  and  C_13
REMARK    5  A    between atoms: C_16  and  C_17
REMARK    6  A    between atoms: C_24  and  C_28
REMARK                            x       y       z     vdW  Elec       q    Type
REMARK                         _______ _______ _______ _____ _____    ______ ____
ROOT
ATOM      3  N   UNL     1     -18.182   2.404  27.302  0.00  0.00    -0.293 NA
ATOM      9  C   UNL     1     -16.984   1.934  25.358  0.00  0.00    +0.090 C 
ATOM     10  C   UNL     1     -17.405   1.199  27.649  0.00  0.00    +0.147 C 
ATOM     11  C   UNL     1     -16.493   0.962  26.431  0.00  0.00    +0.052 C 
ATOM     12  C   UNL     1     -18.360   2.362  25.846  0.00  0.00    +0.107 C 
ATOM     14  C   UNL     1     -19.457   2.488  28.003  0.00  0.00    +0.105 C 
ENDROOT
BRANCH   9   4
ATOM      2  O   UNL     1     -16.071   3.108  22.911  0.00  0.00    -0.253 OA
ATOM      4  N   UNL     1     -16.099   3.066  25.222  0.00  0.00    -0.295 N 
ATOM      6  N   UNL     1     -14.847   4.672  24.162  0.00  0.00    -0.269 N 
ATOM     15  C   UNL     1     -15.701   3.580  23.983  0.00  0.00    +0.304 C 
ATOM     29  H   UNL     1     -15.691   3.464  26.063  0.00  0.00    +0.151 HD
ATOM     30  H   UNL     1     -14.639   4.936  25.122  0.00  0.00    +0.156 HD
BRANCH   6  18
ATOM     18  C   UNL     1     -14.229   5.464  23.166  0.00  0.00    +0.035 A 
ATOM     19  C   UNL     1     -14.799   6.680  22.789  0.00  0.00    +0.023 A 
ATOM     20  C   UNL     1     -13.050   5.028  22.561  0.00  0.00    +0.023 A 
ATOM     22  C   UNL     1     -14.190   7.459  21.806  0.00  0.00    +0.005 A 
ATOM     23  C   UNL     1     -12.441   5.809  21.578  0.00  0.00    +0.005 A 
ATOM     24  C   UNL     1     -13.011   7.025  21.201  0.00  0.00    -0.050 A 
ATOM     28  C   UNL     1     -12.359   7.860  20.151  0.00  0.00    +0.044 C 
ENDBRANCH   6  18
ENDBRANCH   9   4
BRANCH  10  13
ATOM      1  O   UNL     1     -16.169   0.182  29.496  0.00  0.00    -0.336 OA
ATOM      5  N   UNL     1     -16.324   2.414  29.618  0.00  0.00    -0.189 NA
ATOM      7  N   UNL     1     -15.492   0.556  30.663  0.00  0.00    -0.054 NA
ATOM     13  C   UNL     1     -16.628   1.334  28.941  0.00  0.00    +0.245 A 
ATOM     16  C   UNL     1     -15.628   1.886  30.666  0.00  0.00    +0.220 A 
BRANCH  16  17
ATOM      8  N   UNL     1     -15.138   2.207  32.951  0.00  0.00    -0.252 NA
ATOM     17  C   UNL     1     -15.079   2.715  31.699  0.00  0.00    +0.111 A 
ATOM     21  C   UNL     1     -14.536   3.951  31.390  0.00  0.00    +0.031 A 
ATOM     25  C   UNL     1     -14.017   4.714  32.430  0.00  0.00    +0.004 A 
ATOM     26  C   UNL     1     -14.625   2.978  33.937  0.00  0.00    +0.111 A 
ATOM     27  C   UNL     1     -14.059   4.225  33.731  0.00  0.00    +0.020 A 
ENDBRANCH  16  17
ENDBRANCH  10  13
TORSDOF 4
ENDMDL
MODEL 2
REMARK VINA RESULT:      -7.5     28.432     31.711
REMARK  Name = 38026473
REMARK  6 active torsions:
REMARK  status: ('A' for Active; 'I' for Inactive)
REMARK    1  A    between atoms: N_3  and  C_14
REMARK    2  A    between atoms: N_4  and  C_9
REMARK    3  A    between atoms: N_6  and  C_18
REMARK    4  A    between atoms: C_10  and  C_13
REMARK    5  A    between atoms: C_16  and  C_17
REMARK    6  A    between atoms: C_24  and  C_28
REMARK                            x       y       z     vdW  Elec       q    Type
REMARK                         _______ _______ _______ _____ _____    ______ ____
ROOT
ATOM      3  N   UNL     1      13.394   9.090  18.353  0.00  0.00    -0.293 NA
ATOM      9  C   UNL     1      14.430   7.009  18.531  0.00  0.00    +0.090 C 
ATOM     10  C   UNL     1      12.367   8.238  18.982  0.00  0.00    +0.147 C 
ATOM     11  C   UNL     1      13.084   6.900  19.247  0.00  0.00    +0.052 C 
ATOM     12  C   UNL     1      14.250   8.184  17.581  0.00  0.00    +0.107 C 
ATOM     14  C   UNL     1      12.833  10.149  17.523  0.00  0.00    +0.105 C 
ENDROOT
BRANCH   9   4
ATOM      2  O   UNL     1      16.817   5.452  18.811  0.00  0.00    -0.253 OA
ATOM      4  N   UNL     1      15.509   7.245  19.460  0.00  0.00    -0.295 N 
ATOM      6  N   UNL     1      17.515   6.902  20.520  0.00  0.00    -0.269 N 
ATOM     15  C   UNL     1      16.645   6.432  19.532  0.00  0.00    +0.304 C 
ATOM     29  H   UNL     1      15.406   7.992  20.140  0.00  0.00    +0.151 HD
ATOM     30  H   UNL     1      17.221   7.731  21.031  0.00  0.00    +0.156 HD
BRANCH   6  18
ATOM     18  C   UNL     1      18.766   6.362  20.904  0.00  0.00    +0.035 A 
ATOM     19  C   UNL     1      19.363   6.767  22.098  0.00  0.00    +0.023 A 
ATOM     20  C   UNL     1      19.401   5.426  20.089  0.00  0.00    +0.023 A 
ATOM     22  C   UNL     1      20.596   6.237  22.475  0.00  0.00    +0.005 A 
ATOM     23  C   UNL     1      20.634   4.895  20.467  0.00  0.00    +0.005 A 
ATOM     24  C   UNL     1      21.231   5.300  21.661  0.00  0.00    -0.050 A 
ATOM     28  C   UNL     1      22.549   4.730  22.065  0.00  0.00    +0.044 C 
ENDBRANCH   6  18
ENDBRANCH   9   4
BRANCH  10  13
ATOM      1  O   UNL     1      10.909   8.052  20.934  0.00  0.00    -0.336 OA
ATOM      5  N   UNL     1      11.964  10.021  20.766  0.00  0.00    -0.189 NA
ATOM      7  N   UNL     1      10.497   8.810  22.037  0.00  0.00    -0.054 NA
ATOM     13  C   UNL     1      11.772   8.837  20.238  0.00  0.00    +0.245 A 
ATOM     16  C   UNL     1      11.161   9.957  21.867  0.00  0.00    +0.220 A 
BRANCH  16  17
ATOM      8  N   UNL     1      10.933  12.280  22.211  0.00  0.00    -0.252 NA
ATOM     17  C   UNL     1      11.046  11.058  22.779  0.00  0.00    +0.111 A 
ATOM     21  C   UNL     1      11.056  10.837  24.146  0.00  0.00    +0.031 A 
ATOM     25  C   UNL     1      10.942  11.940  24.985  0.00  0.00    +0.004 A 
ATOM     26  C   UNL     1      10.825  13.328  23.058  0.00  0.00    +0.111 A 
ATOM     27  C   UNL     1      10.824  13.213  24.438  0.00  0.00    +0.020 A 
ENDBRANCH  16  17
ENDBRANCH  10  13
TORSDOF 4
ENDMDL
MODEL 3
REMARK VINA RESULT:      -7.3     29.313     32.485
REMARK  Name = 38026473
REMARK  6 active torsions:
REMARK  status: ('A' for Active; 'I' for Inactive)
REMARK    1  A    between atoms: N_3  and  C_14
REMARK    2  A    between atoms: N_4  and  C_9
REMARK    3  A    between atoms: N_6  and  C_18
REMARK    4  A    between atoms: C_10  and  C_13
REMARK    5  A    between atoms: C_16  and  C_17
REMARK    6  A    between atoms: C_24  and  C_28
REMARK                            x       y       z     vdW  Elec       q    Type
REMARK                         _______ _______ _______ _____ _____    ______ ____
ROOT
ATOM      3  N   UNL     1      12.844   8.447  20.155  0.00  0.00    -0.293 NA
ATOM      9  C   UNL     1      11.945   8.594  18.009  0.00  0.00    +0.090 C 
ATOM     10  C   UNL     1      13.303   7.210  19.495  0.00  0.00    +0.147 C 
ATOM     11  C   UNL     1      12.848   7.360  18.030  0.00  0.00    +0.052 C 
ATOM     12  C   UNL     1      11.603   8.830  19.473  0.00  0.00    +0.107 C 
ATOM     14  C   UNL     1      12.651   8.293  21.592  0.00  0.00    +0.105 C 
ENDROOT
BRANCH   9   4
ATOM      2  O   UNL     1      12.639   8.969  15.256  0.00  0.00    -0.253 OA
ATOM      4  N   UNL     1      12.618   9.736  17.436  0.00  0.00    -0.295 N 
ATOM      6  N   UNL     1      13.571  11.050  15.813  0.00  0.00    -0.269 N 
ATOM     15  C   UNL     1      12.921   9.840  16.075  0.00  0.00    +0.304 C 
ATOM     29  H   UNL     1      12.950  10.464  18.062  0.00  0.00    +0.151 HD
ATOM     30  H   UNL     1      13.730  11.663  16.609  0.00  0.00    +0.156 HD
BRANCH   6  18
ATOM     18  C   UNL     1      14.040  11.532  14.569  0.00  0.00    +0.035 A 
ATOM     19  C   UNL     1      13.191  12.262  13.738  0.00  0.00    +0.023 A 
ATOM     20  C   UNL     1      15.354  11.277  14.174  0.00  0.00    +0.023 A 
ATOM     22  C   UNL     1      13.654  12.737  12.512  0.00  0.00    +0.005 A 
ATOM     23  C   UNL     1      15.817  11.752  12.947  0.00  0.00    +0.005 A 
ATOM     24  C   UNL     1      14.967  12.482  12.116  0.00  0.00    -0.050 A 
ATOM     28  C   UNL     1      15.463  12.991  10.804  0.00  0.00    +0.044 C 
ENDBRANCH   6  18
ENDBRANCH   9   4
BRANCH  10  13
ATOM      1  O   UNL     1      15.369   6.208  18.657  0.00  0.00    -0.336 OA
ATOM      5  N   UNL     1      15.629   7.409  20.530  0.00  0.00    -0.189 NA
ATOM      7  N   UNL     1      16.729   6.136  18.981  0.00  0.00    -0.054 NA
ATOM     13  C   UNL     1      14.793   6.976  19.619  0.00  0.00    +0.245 A 
ATOM     16  C   UNL     1      16.803   6.868  20.097  0.00  0.00    +0.220 A 
BRANCH  16  17
ATOM      8  N   UNL     1      18.068   8.161  21.612  0.00  0.00    -0.252 NA
ATOM     17  C   UNL     1      18.035   7.079  20.801  0.00  0.00    +0.111 A 
ATOM     21  C   UNL     1      19.096   6.206  20.630  0.00  0.00    +0.031 A 
ATOM     25  C   UNL     1      20.267   6.457  21.337  0.00  0.00    +0.004 A 
ATOM     26  C   UNL     1      19.223   8.373  22.281  0.00  0.00    +0.111 A 
ATOM     27  C   UNL     1      20.340   7.560  22.180  0.00  0.00    +0.020 A 
ENDBRANCH  16  17
ENDBRANCH  10  13
TORSDOF 4
ENDMDL
MODEL 4
REMARK VINA RESULT:      -6.9     27.957     31.289
REMARK  Name = 38026473
REMARK  6 active torsions:
REMARK  status: ('A' for Active; 'I' for Inactive)
REMARK    1  A    between atoms: N_3  and  C_14
REMARK    2  A    between atoms: N_4  and  C_9
REMARK    3  A    between atoms: N_6  and  C_18
REMARK    4  A    between atoms: C_10  and  C_13
REMARK    5  A    between atoms: C_16  and  C_17
REMARK    6  A    between atoms: C_24  and  C_28
REMARK                            x       y       z     vdW  Elec       q    Type
REMARK                         _______ _______ _______ _____ _____    ______ ____
ROOT
ATOM      3  N   UNL     1      11.699   6.972  21.301  0.00  0.00    -0.293 NA
ATOM      9  C   UNL     1      11.101   9.197  21.656  0.00  0.00    +0.090 C 
ATOM     10  C   UNL     1      12.218   7.671  20.110  0.00  0.00    +0.147 C 
ATOM     11  C   UNL     1      11.968   9.164  20.397  0.00  0.00    +0.052 C 
ATOM     12  C   UNL     1      10.569   7.777  21.778  0.00  0.00    +0.107 C 
ATOM     14  C   UNL     1      11.309   5.593  21.033  0.00  0.00    +0.105 C 
ENDROOT
BRANCH   9   4
ATOM      2  O   UNL     1      11.516  11.851  22.648  0.00  0.00    -0.253 OA
ATOM      4  N   UNL     1      11.868   9.573  22.820  0.00  0.00    -0.295 N 
ATOM      6  N   UNL     1      12.812  10.957  24.389  0.00  0.00    -0.269 N 
ATOM     15  C   UNL     1      12.021  10.899  23.238  0.00  0.00    +0.304 C 
ATOM     29  H   UNL     1      12.378   8.848  23.317  0.00  0.00    +0.151 HD
ATOM     30  H   UNL     1      13.155  10.070  24.752  0.00  0.00    +0.156 HD
BRANCH   6  18
ATOM     18  C   UNL     1      13.201  12.104  25.119  0.00  0.00    +0.035 A 
ATOM     19  C   UNL     1      12.233  12.915  25.712  0.00  0.00    +0.023 A 
ATOM     20  C   UNL     1      14.553  12.425  25.246  0.00  0.00    +0.023 A 
ATOM     22  C   UNL     1      12.616  14.046  26.430  0.00  0.00    +0.005 A 
ATOM     23  C   UNL     1      14.936  13.557  25.965  0.00  0.00    +0.005 A 
ATOM     24  C   UNL     1      13.968  14.368  26.558  0.00  0.00    -0.050 A 
ATOM     28  C   UNL     1      14.378  15.577  27.329  0.00  0.00    +0.044 C 
ENDBRANCH   6  18
ENDBRANCH   9   4
BRANCH  10  13
ATOM      1  O   UNL     1      13.986   7.074  18.531  0.00  0.00    -0.336 OA
ATOM      5  N   UNL     1      14.696   7.350  20.638  0.00  0.00    -0.189 NA
ATOM      7  N   UNL     1      15.365   6.836  18.512  0.00  0.00    -0.054 NA
ATOM     13  C   UNL     1      13.673   7.370  19.820  0.00  0.00    +0.245 A 
ATOM     16  C   UNL     1      15.711   7.017  19.790  0.00  0.00    +0.220 A 
BRANCH  16  17
ATOM      8  N   UNL     1      17.415   7.677  21.282  0.00  0.00    -0.252 NA
ATOM     17  C   UNL     1      17.062   6.876  20.251  0.00  0.00    +0.111 A 
ATOM     21  C   UNL     1      17.914   5.965  19.650  0.00  0.00    +0.031 A 
ATOM     25  C   UNL     1      19.213   5.869  20.137  0.00  0.00    +0.004 A 
ATOM     26  C   UNL     1      18.686   7.556  21.727  0.00  0.00    +0.111 A 
ATOM     27  C   UNL     1      19.614   6.677  21.195  0.00  0.00    +0.020 A 
ENDBRANCH  16  17
ENDBRANCH  10  13
TORSDOF 4
ENDMDL
MODEL 5
REMARK VINA RESULT:      -6.8     20.586     22.803
REMARK  Name = 38026473
REMARK  6 active torsions:
REMARK  status: ('A' for Active; 'I' for Inactive)
REMARK    1  A    between atoms: N_3  and  C_14
REMARK    2  A    between atoms: N_4  and  C_9
REMARK    3  A    between atoms: N_6  and  C_18
REMARK    4  A    between atoms: C_10  and  C_13
REMARK    5  A    between atoms: C_16  and  C_17
REMARK    6  A    between atoms: C_24  and  C_28
REMARK                            x       y       z     vdW  Elec       q    Type
REMARK                         _______ _______ _______ _____ _____    ______ ____
ROOT
ATOM      3  N   UNL     1      -3.535 -12.202  11.751  0.00  0.00    -0.293 NA
ATOM      9  C   UNL     1      -3.349 -10.364  10.329  0.00  0.00    +0.090 C 
ATOM     10  C   UNL     1      -2.517 -11.354  12.402  0.00  0.00    +0.147 C 
ATOM     11  C   UNL     1      -2.491 -10.065  11.559  0.00  0.00    +0.052 C 
ATOM     12  C   UNL     1      -3.471 -11.881  10.322  0.00  0.00    +0.107 C 
ATOM     14  C   UNL     1      -3.341 -13.625  11.999  0.00  0.00    +0.105 C 
ENDROOT
BRANCH   9   4
ATOM      2  O   UNL     1      -5.051  -9.636   8.145  0.00  0.00    -0.253 OA
ATOM      4  N   UNL     1      -4.644  -9.733  10.418  0.00  0.00    -0.295 N 
ATOM      6  N   UNL     1      -6.615  -8.810   9.689  0.00  0.00    -0.269 N 
ATOM     15  C   UNL     1      -5.414  -9.409   9.297  0.00  0.00    +0.304 C 
ATOM     29  H   UNL     1      -4.979  -9.446  11.334  0.00  0.00    +0.151 HD
ATOM     30  H   UNL     1      -6.762  -8.694  10.689  0.00  0.00    +0.156 HD
BRANCH   6  18
ATOM     18  C   UNL     1      -7.662  -8.339   8.862  0.00  0.00    +0.035 A 
ATOM     19  C   UNL     1      -8.724  -9.181   8.534  0.00  0.00    +0.023 A 
ATOM     20  C   UNL     1      -7.630  -7.032   8.374  0.00  0.00    +0.023 A 
ATOM     22  C   UNL     1      -9.755  -8.717   7.718  0.00  0.00    +0.005 A 
ATOM     23  C   UNL     1      -8.662  -6.568   7.558  0.00  0.00    +0.005 A 
ATOM     24  C   UNL     1      -9.725  -7.410   7.230  0.00  0.00    -0.050 A 
ATOM     28  C   UNL     1     -10.828  -6.913   6.359  0.00  0.00    +0.044 C 
ENDBRANCH   6  18
ENDBRANCH   9   4
BRANCH  10  13
ATOM      1  O   UNL     1      -1.751 -10.668  14.618  0.00  0.00    -0.336 OA
ATOM      5  N   UNL     1      -3.925 -11.201  14.528  0.00  0.00    -0.189 NA
ATOM      7  N   UNL     1      -2.250 -10.490  15.914  0.00  0.00    -0.054 NA
ATOM     13  C   UNL     1      -2.800 -11.087  13.865  0.00  0.00    +0.245 A 
ATOM     16  C   UNL     1      -3.537 -10.825  15.780  0.00  0.00    +0.220 A 
BRANCH  16  17
ATOM      8  N   UNL     1      -5.595 -10.085  16.665  0.00  0.00    -0.252 NA
ATOM     17  C   UNL     1      -4.461 -10.791  16.876  0.00  0.00    +0.111 A 
ATOM     21  C   UNL     1      -4.169 -11.454  18.057  0.00  0.00    +0.031 A 
ATOM     25  C   UNL     1      -5.100 -11.389  19.088  0.00  0.00    +0.004 A 
ATOM     26  C   UNL     1      -6.476 -10.044  17.690  0.00  0.00    +0.111 A 
ATOM     27  C   UNL     1      -6.278 -10.672  18.908  0.00  0.00    +0.020 A 
ENDBRANCH  16  17
ENDBRANCH  10  13
TORSDOF 4
ENDMDL
MODEL 6
REMARK VINA RESULT:      -6.7     36.957     38.349
REMARK  Name = 38026473
REMARK  6 active torsions:
REMARK  status: ('A' for Active; 'I' for Inactive)
REMARK    1  A    between atoms: N_3  and  C_14
REMARK    2  A    between atoms: N_4  and  C_9
REMARK    3  A    between atoms: N_6  and  C_18
REMARK    4  A    between atoms: C_10  and  C_13
REMARK    5  A    between atoms: C_16  and  C_17
REMARK    6  A    between atoms: C_24  and  C_28
REMARK                            x       y       z     vdW  Elec       q    Type
REMARK                         _______ _______ _______ _____ _____    ______ ____
ROOT
ATOM      3  N   UNL     1       7.145   7.059  -5.085  0.00  0.00    -0.293 NA
ATOM      9  C   UNL     1       4.925   6.640  -4.510  0.00  0.00    +0.090 C 
ATOM     10  C   UNL     1       7.193   6.841  -3.627  0.00  0.00    +0.147 C 
ATOM     11  C   UNL     1       5.762   6.412  -3.251  0.00  0.00    +0.052 C 
ATOM     12  C   UNL     1       5.791   7.545  -5.374  0.00  0.00    +0.107 C 
ATOM     14  C   UNL     1       8.167   7.982  -5.563  0.00  0.00    +0.105 C 
ENDROOT
BRANCH   9   4
ATOM      2  O   UNL     1       2.510   5.115  -4.302  0.00  0.00    -0.253 OA
ATOM      4  N   UNL     1       4.628   5.398  -5.183  0.00  0.00    -0.295 N 
ATOM      6  N   UNL     1       3.415   3.549  -5.797  0.00  0.00    -0.269 N 
ATOM     15  C   UNL     1       3.418   4.715  -5.026  0.00  0.00    +0.304 C 
ATOM     29  H   UNL     1       5.358   4.965  -5.741  0.00  0.00    +0.151 HD
ATOM     30  H   UNL     1       4.252   3.361  -6.343  0.00  0.00    +0.156 HD
BRANCH   6  18
ATOM     18  C   UNL     1       2.384   2.587  -5.914  0.00  0.00    +0.035 A 
ATOM     19  C   UNL     1       2.367   1.478  -5.068  0.00  0.00    +0.023 A 
ATOM     20  C   UNL     1       1.386   2.748  -6.875  0.00  0.00    +0.023 A 
ATOM     22  C   UNL     1       1.352   0.529  -5.184  0.00  0.00    +0.005 A 
ATOM     23  C   UNL     1       0.370   1.799  -6.990  0.00  0.00    +0.005 A 
ATOM     24  C   UNL     1       0.352   0.690  -6.145  0.00  0.00    -0.050 A 
ATOM     28  C   UNL     1      -0.735  -0.324  -6.267  0.00  0.00    +0.044 C 
ENDBRANCH   6  18
ENDBRANCH   9   4
BRANCH  10  13
ATOM      1  O   UNL     1       8.270   4.665  -3.907  0.00  0.00    -0.336 OA
ATOM      5  N   UNL     1       9.121   5.898  -2.242  0.00  0.00    -0.189 NA
ATOM      7  N   UNL     1       9.296   3.899  -3.340  0.00  0.00    -0.054 NA
ATOM     13  C   UNL     1       8.234   5.826  -3.203  0.00  0.00    +0.245 A 
ATOM     16  C   UNL     1       9.749   4.693  -2.365  0.00  0.00    +0.220 A 
BRANCH  16  17
ATOM      8  N   UNL     1      10.543   4.316  -0.176  0.00  0.00    -0.252 NA
ATOM     17  C   UNL     1      10.826   4.314  -1.498  0.00  0.00    +0.111 A 
ATOM     21  C   UNL     1      12.061   3.975  -2.026  0.00  0.00    +0.031 A 
ATOM     25  C   UNL     1      13.072   3.615  -1.141  0.00  0.00    +0.004 A 
ATOM     26  C   UNL     1      11.550   3.961   0.654  0.00  0.00    +0.111 A 
ATOM     27  C   UNL     1      12.819   3.605   0.227  0.00  0.00    +0.020 A 
ENDBRANCH  16  17
ENDBRANCH  10  13
TORSDOF 4
ENDMDL
MODEL 7
REMARK VINA RESULT:      -6.6     16.490     19.435
REMARK  Name = 38026473
REMARK  6 active torsions:
REMARK  status: ('A' for Active; 'I' for Inactive)
REMARK    1  A    between atoms: N_3  and  C_14
REMARK    2  A    between atoms: N_4  and  C_9
REMARK    3  A    between atoms: N_6  and  C_18
REMARK    4  A    between atoms: C_10  and  C_13
REMARK    5  A    between atoms: C_16  and  C_17
REMARK    6  A    between atoms: C_24  and  C_28
REMARK                            x       y       z     vdW  Elec       q    Type
REMARK                         _______ _______ _______ _____ _____    ______ ____
ROOT
ATOM      3  N   UNL     1     -11.933  -9.786  15.692  0.00  0.00    -0.293 NA
ATOM      9  C   UNL     1     -10.257  -9.368  17.258  0.00  0.00    +0.090 C 
ATOM     10  C   UNL     1     -12.343  -8.513  16.316  0.00  0.00    +0.147 C 
ATOM     11  C   UNL     1     -11.171  -8.142  17.245  0.00  0.00    +0.052 C 
ATOM     12  C   UNL     1     -11.126 -10.485  16.698  0.00  0.00    +0.107 C 
ATOM     14  C   UNL     1     -13.060 -10.594  15.242  0.00  0.00    +0.105 C 
ENDROOT
BRANCH   9   4
ATOM      2  O   UNL     1      -7.759 -10.749  17.487  0.00  0.00    -0.253 OA
ATOM      4  N   UNL     1      -9.080  -9.161  16.449  0.00  0.00    -0.295 N 
ATOM      6  N   UNL     1      -6.931  -9.468  15.703  0.00  0.00    -0.269 N 
ATOM     15  C   UNL     1      -7.895  -9.882  16.627  0.00  0.00    +0.304 C 
ATOM     29  H   UNL     1      -9.089  -8.409  15.766  0.00  0.00    +0.151 HD
ATOM     30  H   UNL     1      -7.206  -8.734  15.055  0.00  0.00    +0.156 HD
BRANCH   6  18
ATOM     18  C   UNL     1      -5.608  -9.947  15.554  0.00  0.00    +0.035 A 
ATOM     19  C   UNL     1      -4.777 -10.058  16.669  0.00  0.00    +0.023 A 
ATOM     20  C   UNL     1      -5.135 -10.307  14.293  0.00  0.00    +0.023 A 
ATOM     22  C   UNL     1      -3.473 -10.528  16.522  0.00  0.00    +0.005 A 
ATOM     23  C   UNL     1      -3.830 -10.778  14.146  0.00  0.00    +0.005 A 
ATOM     24  C   UNL     1      -2.999 -10.890  15.261  0.00  0.00    -0.050 A 
ATOM     28  C   UNL     1      -1.604 -11.395  15.104  0.00  0.00    +0.044 C 
ENDBRANCH   6  18
ENDBRANCH   9   4
BRANCH  10  13
ATOM      1  O   UNL     1     -13.765  -6.675  15.560  0.00  0.00    -0.336 OA
ATOM      5  N   UNL     1     -12.014  -7.086  14.224  0.00  0.00    -0.189 NA
ATOM      7  N   UNL     1     -13.848  -5.749  14.513  0.00  0.00    -0.054 NA
ATOM     13  C   UNL     1     -12.658  -7.424  15.314  0.00  0.00    +0.245 A 
ATOM     16  C   UNL     1     -12.782  -6.055  13.767  0.00  0.00    +0.220 A 
BRANCH  16  17
ATOM      8  N   UNL     1     -12.244  -6.121  11.471  0.00  0.00    -0.252 NA
ATOM     17  C   UNL     1     -12.455  -5.350  12.562  0.00  0.00    +0.111 A 
ATOM     21  C   UNL     1     -12.370  -3.968  12.562  0.00  0.00    +0.031 A 
ATOM     25  C   UNL     1     -12.050  -3.334  11.367  0.00  0.00    +0.004 A 
ATOM     26  C   UNL     1     -11.934  -5.470  10.327  0.00  0.00    +0.111 A 
ATOM     27  C   UNL     1     -11.826  -4.093  10.223  0.00  0.00    +0.020 A 
ENDBRANCH  16  17
ENDBRANCH  10  13
TORSDOF 4
ENDMDL
MODEL 8
REMARK VINA RESULT:      -6.6     34.595     37.145
REMARK  Name = 38026473
REMARK  6 active torsions:
REMARK  status: ('A' for Active; 'I' for Inactive)
REMARK    1  A    between atoms: N_3  and  C_14
REMARK    2  A    between atoms: N_4  and  C_9
REMARK    3  A    between atoms: N_6  and  C_18
REMARK    4  A    between atoms: C_10  and  C_13
REMARK    5  A    between atoms: C_16  and  C_17
REMARK    6  A    between atoms: C_24  and  C_28
REMARK                            x       y       z     vdW  Elec       q    Type
REMARK                         _______ _______ _______ _____ _____    ______ ____
ROOT
ATOM      3  N   UNL     1      23.001   1.593  27.275  0.00  0.00    -0.293 NA
ATOM      9  C   UNL     1      22.332  -0.583  26.771  0.00  0.00    +0.090 C 
ATOM     10  C   UNL     1      23.688   1.297  26.003  0.00  0.00    +0.147 C 
ATOM     11  C   UNL     1      23.139  -0.078  25.576  0.00  0.00    +0.052 C 
ATOM     12  C   UNL     1      22.787   0.296  27.927  0.00  0.00    +0.107 C 
ATOM     14  C   UNL     1      23.740   2.515  28.127  0.00  0.00    +0.105 C 
ENDROOT
BRANCH   9   4
ATOM      2  O   UNL     1      20.772  -2.021  24.848  0.00  0.00    -0.253 OA
ATOM      4  N   UNL     1      20.911  -0.458  26.545  0.00  0.00    -0.295 N 
ATOM      6  N   UNL     1      18.866  -0.870  25.589  0.00  0.00    -0.269 N 
ATOM     15  C   UNL     1      20.224  -1.201  25.580  0.00  0.00    +0.304 C 
ATOM     29  H   UNL     1      20.401   0.254  27.060  0.00  0.00    +0.151 HD
ATOM     30  H   UNL     1      18.572  -0.166  26.262  0.00  0.00    +0.156 HD
BRANCH   6  18
ATOM     18  C   UNL     1      17.838  -1.394  24.770  0.00  0.00    +0.035 A 
ATOM     19  C   UNL     1      17.063  -2.462  25.222  0.00  0.00    +0.023 A 
ATOM     20  C   UNL     1      17.600  -0.842  23.511  0.00  0.00    +0.023 A 
ATOM     22  C   UNL     1      16.051  -2.980  24.414  0.00  0.00    +0.005 A 
ATOM     23  C   UNL     1      16.587  -1.360  22.704  0.00  0.00    +0.005 A 
ATOM     24  C   UNL     1      15.812  -2.428  23.155  0.00  0.00    -0.050 A 
ATOM     28  C   UNL     1      14.728  -2.981  22.292  0.00  0.00    +0.044 C 
ENDBRANCH   6  18
ENDBRANCH   9   4
BRANCH  10  13
ATOM      1  O   UNL     1      24.577   3.083  24.591  0.00  0.00    -0.336 OA
ATOM      5  N   UNL     1      22.389   2.696  24.307  0.00  0.00    -0.189 NA
ATOM      7  N   UNL     1      24.144   3.988  23.614  0.00  0.00    -0.054 NA
ATOM     13  C   UNL     1      23.482   2.360  24.945  0.00  0.00    +0.245 A 
ATOM     16  C   UNL     1      22.845   3.698  23.502  0.00  0.00    +0.220 A 
BRANCH  16  17
ATOM      8  N   UNL     1      21.400   5.514  23.077  0.00  0.00    -0.252 NA
ATOM     17  C   UNL     1      21.975   4.390  22.595  0.00  0.00    +0.111 A 
ATOM     21  C   UNL     1      21.767   3.900  21.316  0.00  0.00    +0.031 A 
ATOM     25  C   UNL     1      20.914   4.610  20.477  0.00  0.00    +0.004 A 
ATOM     26  C   UNL     1      20.577   6.177  22.233  0.00  0.00    +0.111 A 
ATOM     27  C   UNL     1      20.304   5.771  20.938  0.00  0.00    +0.020 A 
ENDBRANCH  16  17
ENDBRANCH  10  13
TORSDOF 4
ENDMDL
MODEL 9
REMARK VINA RESULT:      -6.6     19.239     21.074
REMARK  Name = 38026473
REMARK  6 active torsions:
REMARK  status: ('A' for Active; 'I' for Inactive)
REMARK    1  A    between atoms: N_3  and  C_14
REMARK    2  A    between atoms: N_4  and  C_9
REMARK    3  A    between atoms: N_6  and  C_18
REMARK    4  A    between atoms: C_10  and  C_13
REMARK    5  A    between atoms: C_16  and  C_17
REMARK    6  A    between atoms: C_24  and  C_28
REMARK                            x       y       z     vdW  Elec       q    Type
REMARK                         _______ _______ _______ _____ _____    ______ ____
ROOT
ATOM      3  N   UNL     1      -4.723 -12.785  16.363  0.00  0.00    -0.293 NA
ATOM      9  C   UNL     1      -3.353 -11.162  15.403  0.00  0.00    +0.090 C 
ATOM     10  C   UNL     1      -4.419 -11.874  17.482  0.00  0.00    +0.147 C 
ATOM     11  C   UNL     1      -3.640 -10.712  16.835  0.00  0.00    +0.052 C 
ATOM     12  C   UNL     1      -3.599 -12.664  15.429  0.00  0.00    +0.107 C 
ATOM     14  C   UNL     1      -4.933 -14.164  16.786  0.00  0.00    +0.105 C 
ENDROOT
BRANCH   9   4
ATOM      2  O   UNL     1      -3.311 -11.458  12.555  0.00  0.00    -0.253 OA
ATOM      4  N   UNL     1      -4.219 -10.504  14.454  0.00  0.00    -0.295 N 
ATOM      6  N   UNL     1      -5.093  -9.938  12.409  0.00  0.00    -0.269 N 
ATOM     15  C   UNL     1      -4.132 -10.705  13.073  0.00  0.00    +0.304 C 
ATOM     29  H   UNL     1      -4.874  -9.808  14.801  0.00  0.00    +0.151 HD
ATOM     30  H   UNL     1      -5.699  -9.363  12.990  0.00  0.00    +0.156 HD
BRANCH   6  18
ATOM     18  C   UNL     1      -5.332  -9.859  11.017  0.00  0.00    +0.035 A 
ATOM     19  C   UNL     1      -6.481 -10.432  10.472  0.00  0.00    +0.023 A 
ATOM     20  C   UNL     1      -4.417  -9.207  10.189  0.00  0.00    +0.023 A 
ATOM     22  C   UNL     1      -6.715 -10.355   9.100  0.00  0.00    +0.005 A 
ATOM     23  C   UNL     1      -4.652  -9.130   8.816  0.00  0.00    +0.005 A 
ATOM     24  C   UNL     1      -5.802  -9.703   8.272  0.00  0.00    -0.050 A 
ATOM     28  C   UNL     1      -6.053  -9.619   6.804  0.00  0.00    +0.044 C 
ENDBRANCH   6  18
ENDBRANCH   9   4
BRANCH  10  13
ATOM      1  O   UNL     1      -5.493 -11.152  19.556  0.00  0.00    -0.336 OA
ATOM      5  N   UNL     1      -6.864 -11.201  17.785  0.00  0.00    -0.189 NA
ATOM      7  N   UNL     1      -6.747 -10.739  20.022  0.00  0.00    -0.054 NA
ATOM     13  C   UNL     1      -5.649 -11.404  18.230  0.00  0.00    +0.245 A 
ATOM     16  C   UNL     1      -7.501 -10.794  18.920  0.00  0.00    +0.220 A 
BRANCH  16  17
ATOM      8  N   UNL     1      -9.579 -10.779  20.037  0.00  0.00    -0.252 NA
ATOM     17  C   UNL     1      -8.893 -10.448  18.920  0.00  0.00    +0.111 A 
ATOM     21  C   UNL     1      -9.456  -9.817  17.823  0.00  0.00    +0.031 A 
ATOM     25  C   UNL     1     -10.810  -9.504  17.876  0.00  0.00    +0.004 A 
ATOM     26  C   UNL     1     -10.893 -10.460  20.052  0.00  0.00    +0.111 A 
ATOM     27  C   UNL     1     -11.549  -9.829  19.008  0.00  0.00    +0.020 A 
ENDBRANCH  16  17
ENDBRANCH  10  13
TORSDOF 4
ENDMDL
MODEL 10
REMARK VINA RESULT:      -6.5     32.164     35.364
REMARK  Name = 38026473
REMARK  6 active torsions:
REMARK  status: ('A' for Active; 'I' for Inactive)
REMARK    1  A    between atoms: N_3  and  C_14
REMARK    2  A    between atoms: N_4  and  C_9
REMARK    3  A    between atoms: N_6  and  C_18
REMARK    4  A    between atoms: C_10  and  C_13
REMARK    5  A    between atoms: C_16  and  C_17
REMARK    6  A    between atoms: C_24  and  C_28
REMARK                            x       y       z     vdW  Elec       q    Type
REMARK                         _______ _______ _______ _____ _____    ______ ____
ROOT
ATOM      3  N   UNL     1       0.499 -16.400   2.492  0.00  0.00    -0.293 NA
ATOM      9  C   UNL     1       2.392 -15.615   1.380  0.00  0.00    +0.090 C 
ATOM     10  C   UNL     1       0.654 -15.020   2.990  0.00  0.00    +0.147 C 
ATOM     11  C   UNL     1       1.807 -14.434   2.154  0.00  0.00    +0.052 C 
ATOM     12  C   UNL     1       1.843 -16.839   2.100  0.00  0.00    +0.107 C 
ATOM     14  C   UNL     1      -0.103 -17.299   3.469  0.00  0.00    +0.105 C 
ENDROOT
BRANCH   9   4
ATOM      2  O   UNL     1       3.165 -13.698  -0.602  0.00  0.00    -0.253 OA
ATOM      4  N   UNL     1       1.988 -15.596  -0.006  0.00  0.00    -0.295 N 
ATOM      6  N   UNL     1       1.863 -14.856  -2.175  0.00  0.00    -0.269 N 
ATOM     15  C   UNL     1       2.413 -14.619  -0.912  0.00  0.00    +0.304 C 
ATOM     29  H   UNL     1       1.307 -16.282  -0.320  0.00  0.00    +0.151 HD
ATOM     30  H   UNL     1       1.256 -15.667  -2.263  0.00  0.00    +0.156 HD
BRANCH   6  18
ATOM     18  C   UNL     1       2.046 -14.101  -3.357  0.00  0.00    +0.035 A 
ATOM     19  C   UNL     1       1.290 -12.948  -3.572  0.00  0.00    +0.023 A 
ATOM     20  C   UNL     1       2.981 -14.509  -4.308  0.00  0.00    +0.023 A 
ATOM     22  C   UNL     1       1.469 -12.205  -4.738  0.00  0.00    +0.005 A 
ATOM     23  C   UNL     1       3.161 -13.765  -5.474  0.00  0.00    +0.005 A 
ATOM     24  C   UNL     1       2.405 -12.612  -5.689  0.00  0.00    -0.050 A 
ATOM     28  C   UNL     1       2.598 -11.816  -6.935  0.00  0.00    +0.044 C 
ENDBRANCH   6  18
ENDBRANCH   9   4
BRANCH  10  13
ATOM      1  O   UNL     1      -0.898 -13.669   1.672  0.00  0.00    -0.336 OA
ATOM      5  N   UNL     1      -1.492 -13.911   3.818  0.00  0.00    -0.189 NA
ATOM      7  N   UNL     1      -2.097 -12.961   1.827  0.00  0.00    -0.054 NA
ATOM     13  C   UNL     1      -0.613 -14.197   2.890  0.00  0.00    +0.245 A 
ATOM     16  C   UNL     1      -2.383 -13.151   3.118  0.00  0.00    +0.220 A 
BRANCH  16  17
ATOM      8  N   UNL     1      -4.650 -12.521   2.955  0.00  0.00    -0.252 NA
ATOM     17  C   UNL     1      -3.551 -12.598   3.739  0.00  0.00    +0.111 A 
ATOM     21  C   UNL     1      -3.510 -12.180   5.059  0.00  0.00    +0.031 A 
ATOM     25  C   UNL     1      -4.672 -11.651   5.611  0.00  0.00    +0.004 A 
ATOM     26  C   UNL     1      -5.760 -12.000   3.526  0.00  0.00    +0.111 A 
ATOM     27  C   UNL     1      -5.822 -11.555   4.836  0.00  0.00    +0.020 A 
ENDBRANCH  16  17
ENDBRANCH  10  13
TORSDOF 4
ENDMDL
