MODEL 1
REMARK VINA RESULT:      -7.1      0.000      0.000
REMARK  Name = 45360649
REMARK  8 active torsions:
REMARK  status: ('A' for Active; 'I' for Inactive)
REMARK    1  A    between atoms: N_6  and  C_10
REMARK    2  A    between atoms: N_6  and  C_18
REMARK    3  A    between atoms: N_7  and  C_22
REMARK    4  A    between atoms: C_11  and  C_16
REMARK    5  A    between atoms: C_16  and  C_17
REMARK    6  A    between atoms: C_17  and  C_19
REMARK    7  A    between atoms: C_18  and  C_20
REMARK    8  A    between atoms: C_22  and  C_25
REMARK                            x       y       z     vdW  Elec       q    Type
REMARK                         _______ _______ _______ _____ _____    ______ ____
ROOT
ATOM      2  O   UNL     1      -7.114 -14.456  17.046  0.00  0.00    -0.274 OA
ATOM      4  N   UNL     1      -4.859 -11.682  17.784  0.00  0.00    -0.286 NA
ATOM      5  N   UNL     1      -5.911 -13.142  15.632  0.00  0.00    -0.313 N 
ATOM      9  C   UNL     1      -5.604 -12.909  18.091  0.00  0.00    +0.145 C 
ATOM     10  C   UNL     1      -6.419 -10.974  19.312  0.00  0.00    +0.070 C 
ATOM     11  C   UNL     1      -4.120 -11.727  16.528  0.00  0.00    +0.075 C 
ATOM     12  C   UNL     1      -6.642 -12.478  19.140  0.00  0.00    +0.048 C 
ATOM     13  C   UNL     1      -5.769 -10.560  17.999  0.00  0.00    +0.104 C 
ATOM     14  C   UNL     1      -5.052 -12.014  15.361  0.00  0.00    +0.123 C 
ATOM     15  C   UNL     1      -6.289 -13.551  16.888  0.00  0.00    +0.230 C 
ATOM     32  H   UNL     1      -6.359 -13.592  14.838  0.00  0.00    +0.149 HD
ENDROOT
BRANCH  10   6
ATOM      6  N   UNL     1      -7.643 -10.247  19.608  0.00  0.00    -0.307 NA
ATOM     33  H   UNL     1      -7.808 -10.274  20.614  0.00  0.00    +0.123 HD
BRANCH   6  18
ATOM     18  C   UNL     1      -8.783 -10.840  18.922  0.00  0.00    +0.136 C 
BRANCH  18  20
ATOM      8  N   UNL     1      -8.909  -8.965  17.381  0.00  0.00    -0.259 NA
ATOM     20  C   UNL     1      -9.592  -9.811  18.185  0.00  0.00    +0.055 A 
ATOM     21  C   UNL     1     -10.966  -9.779  18.358  0.00  0.00    +0.024 A 
ATOM     23  C   UNL     1     -11.687  -8.816  17.660  0.00  0.00    +0.003 A 
ATOM     24  C   UNL     1      -9.644  -8.043  16.720  0.00  0.00    +0.111 A 
ATOM     26  C   UNL     1     -11.021  -7.927  16.823  0.00  0.00    +0.020 A 
ENDBRANCH  18  20
ENDBRANCH   6  18
ENDBRANCH  10   6
BRANCH  11  16
ATOM     16  C   UNL     1      -3.299 -10.461  16.276  0.00  0.00    +0.029 C 
BRANCH  16  17
ATOM     17  C   UNL     1      -1.860 -10.801  15.912  0.00  0.00    +0.097 C 
BRANCH  17  19
ATOM      3  O   UNL     1      -1.488 -12.482  14.210  0.00  0.00    -0.276 OA
ATOM      7  N   UNL     1      -1.932 -10.298  13.561  0.00  0.00    -0.311 N 
ATOM     19  C   UNL     1      -1.735 -11.311  14.488  0.00  0.00    +0.213 C 
ATOM     34  H   UNL     1      -2.105  -9.348  13.876  0.00  0.00    +0.149 HD
BRANCH   7  22
ATOM     22  C   UNL     1      -1.864 -10.530  12.138  0.00  0.00    +0.139 C 
BRANCH  22  25
ATOM      1  F   UNL     1      -6.410  -8.563   9.462  0.00  0.00    -0.205 F 
ATOM     25  C   UNL     1      -3.077 -10.006  11.425  0.00  0.00    -0.030 A 
ATOM     27  C   UNL     1      -2.933  -9.317  10.220  0.00  0.00    +0.008 A 
ATOM     28  C   UNL     1      -4.346 -10.206  11.966  0.00  0.00    +0.008 A 
ATOM     29  C   UNL     1      -4.058  -8.830   9.557  0.00  0.00    +0.038 A 
ATOM     30  C   UNL     1      -5.472  -9.719  11.303  0.00  0.00    +0.038 A 
ATOM     31  C   UNL     1      -5.328  -9.030  10.099  0.00  0.00    +0.123 A 
ENDBRANCH  22  25
ENDBRANCH   7  22
ENDBRANCH  17  19
ENDBRANCH  16  17
ENDBRANCH  11  16
TORSDOF 8
ENDMDL
MODEL 2
REMARK VINA RESULT:      -7.0     19.226     21.928
REMARK  Name = 45360649
REMARK  8 active torsions:
REMARK  status: ('A' for Active; 'I' for Inactive)
REMARK    1  A    between atoms: N_6  and  C_10
REMARK    2  A    between atoms: N_6  and  C_18
REMARK    3  A    between atoms: N_7  and  C_22
REMARK    4  A    between atoms: C_11  and  C_16
REMARK    5  A    between atoms: C_16  and  C_17
REMARK    6  A    between atoms: C_17  and  C_19
REMARK    7  A    between atoms: C_18  and  C_20
REMARK    8  A    between atoms: C_22  and  C_25
REMARK                            x       y       z     vdW  Elec       q    Type
REMARK                         _______ _______ _______ _____ _____    ______ ____
ROOT
ATOM      2  O   UNL     1     -18.470   1.607  21.867  0.00  0.00    -0.274 OA
ATOM      4  N   UNL     1     -17.026   3.182  24.826  0.00  0.00    -0.286 NA
ATOM      5  N   UNL     1     -17.823   0.679  23.840  0.00  0.00    -0.313 N 
ATOM      9  C   UNL     1     -17.788   3.153  23.571  0.00  0.00    +0.145 C 
ATOM     10  C   UNL     1     -15.710   4.398  23.392  0.00  0.00    +0.070 C 
ATOM     11  C   UNL     1     -17.383   2.129  25.769  0.00  0.00    +0.075 C 
ATOM     12  C   UNL     1     -16.947   3.989  22.592  0.00  0.00    +0.048 C 
ATOM     13  C   UNL     1     -15.616   3.330  24.472  0.00  0.00    +0.104 C 
ATOM     14  C   UNL     1     -17.201   0.756  25.141  0.00  0.00    +0.123 C 
ATOM     15  C   UNL     1     -18.033   1.755  23.012  0.00  0.00    +0.230 C 
ATOM     32  H   UNL     1     -18.011  -0.246  23.463  0.00  0.00    +0.149 HD
ENDROOT
BRANCH  10   6
ATOM      6  N   UNL     1     -14.512   4.504  22.575  0.00  0.00    -0.307 NA
ATOM     33  H   UNL     1     -13.888   3.729  22.800  0.00  0.00    +0.123 HD
BRANCH   6  18
ATOM     18  C   UNL     1     -13.817   5.760  22.824  0.00  0.00    +0.136 C 
BRANCH  18  20
ATOM      8  N   UNL     1     -14.349   7.048  20.834  0.00  0.00    -0.259 NA
ATOM     20  C   UNL     1     -13.385   6.426  21.549  0.00  0.00    +0.055 A 
ATOM     21  C   UNL     1     -12.052   6.374  21.175  0.00  0.00    +0.024 A 
ATOM     23  C   UNL     1     -11.684   7.001  19.991  0.00  0.00    +0.003 A 
ATOM     24  C   UNL     1     -13.953   7.646  19.688  0.00  0.00    +0.111 A 
ATOM     26  C   UNL     1     -12.646   7.653  19.227  0.00  0.00    +0.020 A 
ENDBRANCH  18  20
ENDBRANCH   6  18
ENDBRANCH  10   6
BRANCH  11  16
ATOM     16  C   UNL     1     -16.622   2.233  27.092  0.00  0.00    +0.029 C 
BRANCH  16  17
ATOM     17  C   UNL     1     -17.231   1.324  28.150  0.00  0.00    +0.097 C 
BRANCH  17  19
ATOM      3  O   UNL     1     -16.330  -0.169  29.831  0.00  0.00    -0.276 OA
ATOM      7  N   UNL     1     -15.119   1.719  29.232  0.00  0.00    -0.311 N 
ATOM     19  C   UNL     1     -16.201   0.854  29.163  0.00  0.00    +0.213 C 
ATOM     34  H   UNL     1     -15.104   2.561  28.664  0.00  0.00    +0.149 HD
BRANCH   7  22
ATOM     22  C   UNL     1     -14.006   1.492  30.122  0.00  0.00    +0.139 C 
BRANCH  22  25
ATOM      1  F   UNL     1     -14.597   4.273  34.982  0.00  0.00    -0.205 F 
ATOM     25  C   UNL     1     -14.163   2.234  31.418  0.00  0.00    -0.030 A 
ATOM     27  C   UNL     1     -14.574   1.555  32.565  0.00  0.00    +0.008 A 
ATOM     28  C   UNL     1     -13.900   3.603  31.476  0.00  0.00    +0.008 A 
ATOM     29  C   UNL     1     -14.721   2.243  33.769  0.00  0.00    +0.038 A 
ATOM     30  C   UNL     1     -14.046   4.291  32.679  0.00  0.00    +0.038 A 
ATOM     31  C   UNL     1     -14.457   3.611  33.826  0.00  0.00    +0.123 A 
ENDBRANCH  22  25
ENDBRANCH   7  22
ENDBRANCH  17  19
ENDBRANCH  16  17
ENDBRANCH  11  16
TORSDOF 8
ENDMDL
MODEL 3
REMARK VINA RESULT:      -7.0      1.395      2.050
REMARK  Name = 45360649
REMARK  8 active torsions:
REMARK  status: ('A' for Active; 'I' for Inactive)
REMARK    1  A    between atoms: N_6  and  C_10
REMARK    2  A    between atoms: N_6  and  C_18
REMARK    3  A    between atoms: N_7  and  C_22
REMARK    4  A    between atoms: C_11  and  C_16
REMARK    5  A    between atoms: C_16  and  C_17
REMARK    6  A    between atoms: C_17  and  C_19
REMARK    7  A    between atoms: C_18  and  C_20
REMARK    8  A    between atoms: C_22  and  C_25
REMARK                            x       y       z     vdW  Elec       q    Type
REMARK                         _______ _______ _______ _____ _____    ______ ____
ROOT
ATOM      2  O   UNL     1      -7.354 -12.913  18.778  0.00  0.00    -0.274 OA
ATOM      4  N   UNL     1      -5.377 -10.243  17.264  0.00  0.00    -0.286 NA
ATOM      5  N   UNL     1      -5.481 -13.038  17.494  0.00  0.00    -0.313 N 
ATOM      9  C   UNL     1      -6.324 -10.815  18.230  0.00  0.00    +0.145 C 
ATOM     10  C   UNL     1      -7.367  -9.259  16.683  0.00  0.00    +0.070 C 
ATOM     11  C   UNL     1      -4.151 -11.015  17.097  0.00  0.00    +0.075 C 
ATOM     12  C   UNL     1      -7.668 -10.150  17.890  0.00  0.00    +0.048 C 
ATOM     13  C   UNL     1      -6.137  -9.905  16.063  0.00  0.00    +0.104 C 
ATOM     14  C   UNL     1      -4.462 -12.439  16.663  0.00  0.00    +0.123 C 
ATOM     15  C   UNL     1      -6.445 -12.334  18.173  0.00  0.00    +0.230 C 
ATOM     32  H   UNL     1      -5.560 -14.051  17.482  0.00  0.00    +0.149 HD
ENDROOT
BRANCH  10   6
ATOM      6  N   UNL     1      -8.489  -9.145  15.765  0.00  0.00    -0.307 NA
ATOM     33  H   UNL     1      -8.531  -8.190  15.411  0.00  0.00    +0.123 HD
BRANCH   6  18
ATOM     18  C   UNL     1      -9.745  -9.461  16.432  0.00  0.00    +0.136 C 
BRANCH  18  20
ATOM      8  N   UNL     1     -12.016  -8.778  15.902  0.00  0.00    -0.259 NA
ATOM     20  C   UNL     1     -10.770  -8.379  16.241  0.00  0.00    +0.055 A 
ATOM     21  C   UNL     1     -10.399  -7.056  16.418  0.00  0.00    +0.024 A 
ATOM     23  C   UNL     1     -11.371  -6.079  16.236  0.00  0.00    +0.003 A 
ATOM     24  C   UNL     1     -12.933  -7.799  15.733  0.00  0.00    +0.111 A 
ATOM     26  C   UNL     1     -12.665  -6.449  15.887  0.00  0.00    +0.020 A 
ENDBRANCH  18  20
ENDBRANCH   6  18
ENDBRANCH  10   6
BRANCH  11  16
ATOM     16  C   UNL     1      -3.159 -10.355  16.139  0.00  0.00    +0.029 C 
BRANCH  16  17
ATOM     17  C   UNL     1      -1.957 -11.254  15.885  0.00  0.00    +0.097 C 
BRANCH  17  19
ATOM      3  O   UNL     1      -1.580 -12.765  14.030  0.00  0.00    -0.276 OA
ATOM      7  N   UNL     1      -1.994 -10.522  13.594  0.00  0.00    -0.311 N 
ATOM     19  C   UNL     1      -1.819 -11.624  14.418  0.00  0.00    +0.213 C 
ATOM     34  H   UNL     1      -2.161  -9.606  13.998  0.00  0.00    +0.149 HD
BRANCH   7  22
ATOM     22  C   UNL     1      -1.910 -10.615  12.155  0.00  0.00    +0.139 C 
BRANCH  22  25
ATOM      1  F   UNL     1      -6.416  -8.370   9.634  0.00  0.00    -0.205 F 
ATOM     25  C   UNL     1      -3.112 -10.017  11.483  0.00  0.00    -0.030 A 
ATOM     27  C   UNL     1      -2.974  -9.370  10.255  0.00  0.00    +0.008 A 
ATOM     28  C   UNL     1      -4.367 -10.106  12.087  0.00  0.00    +0.008 A 
ATOM     29  C   UNL     1      -4.089  -8.814   9.630  0.00  0.00    +0.038 A 
ATOM     30  C   UNL     1      -5.482  -9.550  11.462  0.00  0.00    +0.038 A 
ATOM     31  C   UNL     1      -5.344  -8.903  10.233  0.00  0.00    +0.123 A 
ENDBRANCH  22  25
ENDBRANCH   7  22
ENDBRANCH  17  19
ENDBRANCH  16  17
ENDBRANCH  11  16
TORSDOF 8
ENDMDL
MODEL 4
REMARK VINA RESULT:      -6.9     26.684     29.367
REMARK  Name = 45360649
REMARK  8 active torsions:
REMARK  status: ('A' for Active; 'I' for Inactive)
REMARK    1  A    between atoms: N_6  and  C_10
REMARK    2  A    between atoms: N_6  and  C_18
REMARK    3  A    between atoms: N_7  and  C_22
REMARK    4  A    between atoms: C_11  and  C_16
REMARK    5  A    between atoms: C_16  and  C_17
REMARK    6  A    between atoms: C_17  and  C_19
REMARK    7  A    between atoms: C_18  and  C_20
REMARK    8  A    between atoms: C_22  and  C_25
REMARK                            x       y       z     vdW  Elec       q    Type
REMARK                         _______ _______ _______ _____ _____    ______ ____
ROOT
ATOM      2  O   UNL     1      11.313   6.031  20.581  0.00  0.00    -0.274 OA
ATOM      4  N   UNL     1      12.324   9.455  21.342  0.00  0.00    -0.286 NA
ATOM      5  N   UNL     1      10.450   7.503  22.085  0.00  0.00    -0.313 N 
ATOM      9  C   UNL     1      12.226   8.250  20.509  0.00  0.00    +0.145 C 
ATOM     10  C   UNL     1      14.493   8.710  21.250  0.00  0.00    +0.070 C 
ATOM     11  C   UNL     1      11.062   9.874  21.941  0.00  0.00    +0.075 C 
ATOM     12  C   UNL     1      13.672   7.739  20.399  0.00  0.00    +0.048 C 
ATOM     13  C   UNL     1      13.472   9.275  22.228  0.00  0.00    +0.104 C 
ATOM     14  C   UNL     1      10.472   8.761  22.793  0.00  0.00    +0.123 C 
ATOM     15  C   UNL     1      11.314   7.164  21.072  0.00  0.00    +0.230 C 
ATOM     32  H   UNL     1       9.832   6.777  22.436  0.00  0.00    +0.149 HD
ENDROOT
BRANCH  10   6
ATOM      6  N   UNL     1      15.630   8.077  21.901  0.00  0.00    -0.307 NA
ATOM     33  H   UNL     1      15.596   8.283  22.899  0.00  0.00    +0.123 HD
BRANCH   6  18
ATOM     18  C   UNL     1      16.887   8.573  21.355  0.00  0.00    +0.136 C 
BRANCH  18  20
ATOM      8  N   UNL     1      17.424   6.707  19.894  0.00  0.00    -0.259 NA
ATOM     20  C   UNL     1      17.805   7.454  20.954  0.00  0.00    +0.055 A 
ATOM     21  C   UNL     1      18.972   7.244  21.672  0.00  0.00    +0.024 A 
ATOM     23  C   UNL     1      19.801   6.202  21.275  0.00  0.00    +0.003 A 
ATOM     24  C   UNL     1      18.256   5.703  19.538  0.00  0.00    +0.111 A 
ATOM     26  C   UNL     1      19.444   5.411  20.188  0.00  0.00    +0.020 A 
ENDBRANCH  18  20
ENDBRANCH   6  18
ENDBRANCH  10   6
BRANCH  11  16
ATOM     16  C   UNL     1      11.187  11.170  22.742  0.00  0.00    +0.029 C 
BRANCH  16  17
ATOM     17  C   UNL     1      11.062  12.390  21.839  0.00  0.00    +0.097 C 
BRANCH  17  19
ATOM      3  O   UNL     1      13.110  13.661  22.068  0.00  0.00    -0.276 OA
ATOM      7  N   UNL     1      12.755  12.432  20.131  0.00  0.00    -0.311 N 
ATOM     19  C   UNL     1      12.416  12.909  21.388  0.00  0.00    +0.213 C 
ATOM     34  H   UNL     1      12.109  11.835  19.623  0.00  0.00    +0.149 HD
BRANCH   7  22
ATOM     22  C   UNL     1      13.996  12.783  19.481  0.00  0.00    +0.139 C 
BRANCH  22  25
ATOM      1  F   UNL     1      14.935   9.650  14.899  0.00  0.00    -0.205 F 
ATOM     25  C   UNL     1      14.246  11.947  18.259  0.00  0.00    -0.030 A 
ATOM     27  C   UNL     1      15.180  12.362  17.310  0.00  0.00    +0.008 A 
ATOM     28  C   UNL     1      13.544  10.756  18.072  0.00  0.00    +0.008 A 
ATOM     29  C   UNL     1      15.413  11.587  16.175  0.00  0.00    +0.038 A 
ATOM     30  C   UNL     1      13.777   9.981  16.937  0.00  0.00    +0.038 A 
ATOM     31  C   UNL     1      14.712  10.396  15.988  0.00  0.00    +0.123 A 
ENDBRANCH  22  25
ENDBRANCH   7  22
ENDBRANCH  17  19
ENDBRANCH  16  17
ENDBRANCH  11  16
TORSDOF 8
ENDMDL
MODEL 5
REMARK VINA RESULT:      -6.8     20.184     24.028
REMARK  Name = 45360649
REMARK  8 active torsions:
REMARK  status: ('A' for Active; 'I' for Inactive)
REMARK    1  A    between atoms: N_6  and  C_10
REMARK    2  A    between atoms: N_6  and  C_18
REMARK    3  A    between atoms: N_7  and  C_22
REMARK    4  A    between atoms: C_11  and  C_16
REMARK    5  A    between atoms: C_16  and  C_17
REMARK    6  A    between atoms: C_17  and  C_19
REMARK    7  A    between atoms: C_18  and  C_20
REMARK    8  A    between atoms: C_22  and  C_25
REMARK                            x       y       z     vdW  Elec       q    Type
REMARK                         _______ _______ _______ _____ _____    ______ ____
ROOT
ATOM      2  O   UNL     1     -14.290  -0.631  29.245  0.00  0.00    -0.274 OA
ATOM      4  N   UNL     1     -15.659   2.559  30.376  0.00  0.00    -0.286 NA
ATOM      5  N   UNL     1     -13.477   0.841  30.777  0.00  0.00    -0.313 N 
ATOM      9  C   UNL     1     -15.724   1.221  29.775  0.00  0.00    +0.145 C 
ATOM     10  C   UNL     1     -16.134   3.002  28.174  0.00  0.00    +0.070 C 
ATOM     11  C   UNL     1     -14.935   2.615  31.641  0.00  0.00    +0.075 C 
ATOM     12  C   UNL     1     -16.073   1.478  28.300  0.00  0.00    +0.048 C 
ATOM     13  C   UNL     1     -15.258   3.487  29.321  0.00  0.00    +0.104 C 
ATOM     14  C   UNL     1     -13.512   2.106  31.472  0.00  0.00    +0.123 C 
ATOM     15  C   UNL     1     -14.434   0.413  29.889  0.00  0.00    +0.230 C 
ATOM     32  H   UNL     1     -12.632   0.282  30.860  0.00  0.00    +0.149 HD
ENDROOT
BRANCH  10   6
ATOM      6  N   UNL     1     -15.703   3.484  26.871  0.00  0.00    -0.307 NA
ATOM     33  H   UNL     1     -15.011   4.221  27.004  0.00  0.00    +0.123 HD
BRANCH   6  18
ATOM     18  C   UNL     1     -16.828   4.018  26.114  0.00  0.00    +0.136 C 
BRANCH  18  20
ATOM      8  N   UNL     1     -15.278   4.192  24.252  0.00  0.00    -0.259 NA
ATOM     20  C   UNL     1     -16.383   4.692  24.848  0.00  0.00    +0.055 A 
ATOM     21  C   UNL     1     -17.109   5.767  24.361  0.00  0.00    +0.024 A 
ATOM     23  C   UNL     1     -16.672   6.367  23.186  0.00  0.00    +0.003 A 
ATOM     24  C   UNL     1     -14.884   4.802  23.111  0.00  0.00    +0.111 A 
ATOM     26  C   UNL     1     -15.539   5.882  22.542  0.00  0.00    +0.020 A 
ENDBRANCH  18  20
ENDBRANCH   6  18
ENDBRANCH  10   6
BRANCH  11  16
ATOM     16  C   UNL     1     -14.949   4.007  32.273  0.00  0.00    +0.029 C 
BRANCH  16  17
ATOM     17  C   UNL     1     -14.316   3.990  33.657  0.00  0.00    +0.097 C 
BRANCH  17  19
ATOM      3  O   UNL     1     -13.872   5.593  35.417  0.00  0.00    -0.276 OA
ATOM      7  N   UNL     1     -14.518   6.363  33.324  0.00  0.00    -0.311 N 
ATOM     19  C   UNL     1     -14.203   5.382  34.252  0.00  0.00    +0.213 C 
ATOM     34  H   UNL     1     -14.811   6.102  32.387  0.00  0.00    +0.149 HD
BRANCH   7  22
ATOM     22  C   UNL     1     -14.486   7.770  33.647  0.00  0.00    +0.139 C 
BRANCH  22  25
ATOM      1  F   UNL     1      -9.397  10.014  32.769  0.00  0.00    -0.205 F 
ATOM     25  C   UNL     1     -13.129   8.369  33.414  0.00  0.00    -0.030 A 
ATOM     27  C   UNL     1     -12.540   8.289  32.151  0.00  0.00    +0.008 A 
ATOM     28  C   UNL     1     -12.456   9.003  34.458  0.00  0.00    +0.008 A 
ATOM     29  C   UNL     1     -11.280   8.845  31.933  0.00  0.00    +0.038 A 
ATOM     30  C   UNL     1     -11.196   9.559  34.240  0.00  0.00    +0.038 A 
ATOM     31  C   UNL     1     -10.607   9.479  32.977  0.00  0.00    +0.123 A 
ENDBRANCH  22  25
ENDBRANCH   7  22
ENDBRANCH  17  19
ENDBRANCH  16  17
ENDBRANCH  11  16
TORSDOF 8
ENDMDL
MODEL 6
REMARK VINA RESULT:      -6.7      2.525      6.024
REMARK  Name = 45360649
REMARK  8 active torsions:
REMARK  status: ('A' for Active; 'I' for Inactive)
REMARK    1  A    between atoms: N_6  and  C_10
REMARK    2  A    between atoms: N_6  and  C_18
REMARK    3  A    between atoms: N_7  and  C_22
REMARK    4  A    between atoms: C_11  and  C_16
REMARK    5  A    between atoms: C_16  and  C_17
REMARK    6  A    between atoms: C_17  and  C_19
REMARK    7  A    between atoms: C_18  and  C_20
REMARK    8  A    between atoms: C_22  and  C_25
REMARK                            x       y       z     vdW  Elec       q    Type
REMARK                         _______ _______ _______ _____ _____    ______ ____
ROOT
ATOM      2  O   UNL     1      -6.231 -10.671  20.201  0.00  0.00    -0.274 OA
ATOM      4  N   UNL     1      -6.560 -11.094  16.590  0.00  0.00    -0.286 NA
ATOM      5  N   UNL     1      -7.777  -9.813  18.770  0.00  0.00    -0.313 N 
ATOM      9  C   UNL     1      -6.108 -11.462  17.938  0.00  0.00    +0.145 C 
ATOM     10  C   UNL     1      -4.284 -10.816  16.469  0.00  0.00    +0.070 C 
ATOM     11  C   UNL     1      -7.972 -10.738  16.507  0.00  0.00    +0.075 C 
ATOM     12  C   UNL     1      -4.578 -11.318  17.884  0.00  0.00    +0.048 C 
ATOM     13  C   UNL     1      -5.586 -10.146  16.053  0.00  0.00    +0.104 C 
ATOM     14  C   UNL     1      -8.295  -9.584  17.442  0.00  0.00    +0.123 C 
ATOM     15  C   UNL     1      -6.690 -10.603  19.057  0.00  0.00    +0.230 C 
ATOM     32  H   UNL     1      -8.169  -9.263  19.529  0.00  0.00    +0.149 HD
ENDROOT
BRANCH  10   6
ATOM      6  N   UNL     1      -3.131  -9.933  16.405  0.00  0.00    -0.307 NA
ATOM     33  H   UNL     1      -3.318  -9.193  15.729  0.00  0.00    +0.123 HD
BRANCH   6  18
ATOM     18  C   UNL     1      -1.937 -10.662  15.996  0.00  0.00    +0.136 C 
BRANCH  18  20
ATOM      8  N   UNL     1      -2.082 -12.534  14.453  0.00  0.00    -0.259 NA
ATOM     20  C   UNL     1      -2.055 -11.190  14.594  0.00  0.00    +0.055 A 
ATOM     21  C   UNL     1      -2.128 -10.297  13.538  0.00  0.00    +0.024 A 
ATOM     23  C   UNL     1      -2.238 -10.817  12.253  0.00  0.00    +0.003 A 
ATOM     24  C   UNL     1      -2.189 -13.002  13.190  0.00  0.00    +0.111 A 
ATOM     26  C   UNL     1      -2.270 -12.194  12.067  0.00  0.00    +0.020 A 
ENDBRANCH  18  20
ENDBRANCH   6  18
ENDBRANCH  10   6
BRANCH  11  16
ATOM     16  C   UNL     1      -8.423 -10.430  15.079  0.00  0.00    +0.029 C 
BRANCH  16  17
ATOM     17  C   UNL     1      -8.551 -11.704  14.255  0.00  0.00    +0.097 C 
BRANCH  17  19
ATOM      3  O   UNL     1      -8.445 -12.311  11.913  0.00  0.00    -0.276 OA
ATOM      7  N   UNL     1      -8.586 -10.067  12.493  0.00  0.00    -0.311 N 
ATOM     19  C   UNL     1      -8.521 -11.426  12.762  0.00  0.00    +0.213 C 
ATOM     34  H   UNL     1      -8.618  -9.398  13.257  0.00  0.00    +0.149 HD
BRANCH   7  22
ATOM     22  C   UNL     1      -8.573  -9.546  11.146  0.00  0.00    +0.139 C 
BRANCH  22  25
ATOM      1  F   UNL     1      -3.331  -8.794   9.233  0.00  0.00    -0.205 F 
ATOM     25  C   UNL     1      -7.175  -9.346  10.635  0.00  0.00    -0.030 A 
ATOM     27  C   UNL     1      -6.183  -8.868  11.491  0.00  0.00    +0.008 A 
ATOM     28  C   UNL     1      -6.869  -9.637   9.306  0.00  0.00    +0.008 A 
ATOM     29  C   UNL     1      -4.884  -8.682  11.018  0.00  0.00    +0.038 A 
ATOM     30  C   UNL     1      -5.571  -9.450   8.833  0.00  0.00    +0.038 A 
ATOM     31  C   UNL     1      -4.578  -8.972   9.688  0.00  0.00    +0.123 A 
ENDBRANCH  22  25
ENDBRANCH   7  22
ENDBRANCH  17  19
ENDBRANCH  16  17
ENDBRANCH  11  16
TORSDOF 8
ENDMDL
MODEL 7
REMARK VINA RESULT:      -6.6      3.601      8.051
REMARK  Name = 45360649
REMARK  8 active torsions:
REMARK  status: ('A' for Active; 'I' for Inactive)
REMARK    1  A    between atoms: N_6  and  C_10
REMARK    2  A    between atoms: N_6  and  C_18
REMARK    3  A    between atoms: N_7  and  C_22
REMARK    4  A    between atoms: C_11  and  C_16
REMARK    5  A    between atoms: C_16  and  C_17
REMARK    6  A    between atoms: C_17  and  C_19
REMARK    7  A    between atoms: C_18  and  C_20
REMARK    8  A    between atoms: C_22  and  C_25
REMARK                            x       y       z     vdW  Elec       q    Type
REMARK                         _______ _______ _______ _____ _____    ______ ____
ROOT
ATOM      2  O   UNL     1      -7.652 -10.539  11.876  0.00  0.00    -0.274 OA
ATOM      4  N   UNL     1      -4.047  -9.967  11.861  0.00  0.00    -0.286 NA
ATOM      5  N   UNL     1      -5.948 -11.983  12.303  0.00  0.00    -0.313 N 
ATOM      9  C   UNL     1      -5.458  -9.569  11.948  0.00  0.00    +0.145 C 
ATOM     10  C   UNL     1      -4.365  -8.761   9.934  0.00  0.00    +0.070 C 
ATOM     11  C   UNL     1      -3.692 -11.105  12.701  0.00  0.00    +0.075 C 
ATOM     12  C   UNL     1      -5.699  -8.729  10.683  0.00  0.00    +0.048 C 
ATOM     13  C   UNL     1      -3.704 -10.035  10.443  0.00  0.00    +0.104 C 
ATOM     14  C   UNL     1      -4.544 -12.318  12.358  0.00  0.00    +0.123 C 
ATOM     15  C   UNL     1      -6.441 -10.734  12.015  0.00  0.00    +0.230 C 
ATOM     32  H   UNL     1      -6.615 -12.747  12.367  0.00  0.00    +0.149 HD
ENDROOT
BRANCH  10   6
ATOM      6  N   UNL     1      -4.521  -8.726   8.489  0.00  0.00    -0.307 NA
ATOM     33  H   UNL     1      -5.013  -7.871   8.230  0.00  0.00    +0.123 HD
BRANCH   6  18
ATOM     18  C   UNL     1      -5.284  -9.874   8.018  0.00  0.00    +0.136 C 
BRANCH  18  20
ATOM      8  N   UNL     1      -7.247  -8.583   7.398  0.00  0.00    -0.259 NA
ATOM     20  C   UNL     1      -6.319  -9.482   7.002  0.00  0.00    +0.055 A 
ATOM     21  C   UNL     1      -6.276 -10.047   5.737  0.00  0.00    +0.024 A 
ATOM     23  C   UNL     1      -7.247  -9.662   4.820  0.00  0.00    +0.003 A 
ATOM     24  C   UNL     1      -8.175  -8.233   6.479  0.00  0.00    +0.111 A 
ATOM     26  C   UNL     1      -8.218  -8.739   5.189  0.00  0.00    +0.020 A 
ENDBRANCH  18  20
ENDBRANCH   6  18
ENDBRANCH  10   6
BRANCH  11  16
ATOM     16  C   UNL     1      -2.203 -11.446  12.641  0.00  0.00    +0.029 C 
BRANCH  16  17
ATOM     17  C   UNL     1      -1.753 -12.174  13.900  0.00  0.00    +0.097 C 
BRANCH  17  19
ATOM      3  O   UNL     1      -1.189 -10.288  15.311  0.00  0.00    -0.276 OA
ATOM      7  N   UNL     1      -2.811 -11.788  16.026  0.00  0.00    -0.311 N 
ATOM     19  C   UNL     1      -1.865 -11.299  15.137  0.00  0.00    +0.213 C 
ATOM     34  H   UNL     1      -3.307 -12.649  15.818  0.00  0.00    +0.149 HD
BRANCH   7  22
ATOM     22  C   UNL     1      -3.102 -11.133  17.279  0.00  0.00    +0.139 C 
BRANCH  22  25
ATOM      1  F   UNL     1      -8.430  -9.329  17.524  0.00  0.00    -0.205 F 
ATOM     25  C   UNL     1      -4.523 -10.651  17.344  0.00  0.00    -0.030 A 
ATOM     27  C   UNL     1      -5.269 -10.836  18.508  0.00  0.00    +0.008 A 
ATOM     28  C   UNL     1      -5.098 -10.021  16.240  0.00  0.00    +0.008 A 
ATOM     29  C   UNL     1      -6.588 -10.389  18.570  0.00  0.00    +0.038 A 
ATOM     30  C   UNL     1      -6.418  -9.574  16.302  0.00  0.00    +0.038 A 
ATOM     31  C   UNL     1      -7.163  -9.759  17.466  0.00  0.00    +0.123 A 
ENDBRANCH  22  25
ENDBRANCH   7  22
ENDBRANCH  17  19
ENDBRANCH  16  17
ENDBRANCH  11  16
TORSDOF 8
ENDMDL
MODEL 8
REMARK VINA RESULT:      -6.6     19.291     23.380
REMARK  Name = 45360649
REMARK  8 active torsions:
REMARK  status: ('A' for Active; 'I' for Inactive)
REMARK    1  A    between atoms: N_6  and  C_10
REMARK    2  A    between atoms: N_6  and  C_18
REMARK    3  A    between atoms: N_7  and  C_22
REMARK    4  A    between atoms: C_11  and  C_16
REMARK    5  A    between atoms: C_16  and  C_17
REMARK    6  A    between atoms: C_17  and  C_19
REMARK    7  A    between atoms: C_18  and  C_20
REMARK    8  A    between atoms: C_22  and  C_25
REMARK                            x       y       z     vdW  Elec       q    Type
REMARK                         _______ _______ _______ _____ _____    ______ ____
ROOT
ATOM      2  O   UNL     1     -14.195  -0.715  29.095  0.00  0.00    -0.274 OA
ATOM      4  N   UNL     1     -15.896   2.163  30.561  0.00  0.00    -0.286 NA
ATOM      5  N   UNL     1     -13.361   0.978  30.365  0.00  0.00    -0.313 N 
ATOM      9  C   UNL     1     -15.816   0.812  29.992  0.00  0.00    +0.145 C 
ATOM     10  C   UNL     1     -17.009   2.374  28.564  0.00  0.00    +0.070 C 
ATOM     11  C   UNL     1     -14.901   2.441  31.591  0.00  0.00    +0.075 C 
ATOM     12  C   UNL     1     -16.582   0.908  28.663  0.00  0.00    +0.048 C 
ATOM     13  C   UNL     1     -15.997   3.097  29.442  0.00  0.00    +0.104 C 
ATOM     14  C   UNL     1     -13.494   2.241  31.051  0.00  0.00    +0.123 C 
ATOM     15  C   UNL     1     -14.395   0.307  29.759  0.00  0.00    +0.230 C 
ATOM     32  H   UNL     1     -12.421   0.619  30.220  0.00  0.00    +0.149 HD
ENDROOT
BRANCH  10   6
ATOM      6  N   UNL     1     -17.047   2.866  27.197  0.00  0.00    -0.307 NA
ATOM     33  H   UNL     1     -18.012   2.853  26.867  0.00  0.00    +0.123 HD
BRANCH   6  18
ATOM     18  C   UNL     1     -16.234   2.034  26.319  0.00  0.00    +0.136 C 
BRANCH  18  20
ATOM      8  N   UNL     1     -17.331   0.241  25.100  0.00  0.00    -0.259 NA
ATOM     20  C   UNL     1     -17.008   1.553  25.125  0.00  0.00    +0.055 A 
ATOM     21  C   UNL     1     -17.347   2.455  24.129  0.00  0.00    +0.024 A 
ATOM     23  C   UNL     1     -18.064   1.979  23.038  0.00  0.00    +0.003 A 
ATOM     24  C   UNL     1     -18.029  -0.185  24.024  0.00  0.00    +0.111 A 
ATOM     26  C   UNL     1     -18.416   0.635  22.976  0.00  0.00    +0.020 A 
ENDBRANCH  18  20
ENDBRANCH   6  18
ENDBRANCH  10   6
BRANCH  11  16
ATOM     16  C   UNL     1     -15.060   3.830  32.210  0.00  0.00    +0.029 C 
BRANCH  16  17
ATOM     17  C   UNL     1     -14.334   3.923  33.545  0.00  0.00    +0.097 C 
BRANCH  17  19
ATOM      3  O   UNL     1     -13.993   5.630  35.228  0.00  0.00    -0.276 OA
ATOM      7  N   UNL     1     -14.578   6.269  33.075  0.00  0.00    -0.311 N 
ATOM     19  C   UNL     1     -14.275   5.348  34.066  0.00  0.00    +0.213 C 
ATOM     34  H   UNL     1     -14.829   5.950  32.143  0.00  0.00    +0.149 HD
BRANCH   7  22
ATOM     22  C   UNL     1     -14.590   7.692  33.321  0.00  0.00    +0.139 C 
BRANCH  22  25
ATOM      1  F   UNL     1     -11.138  10.461  29.840  0.00  0.00    -0.205 F 
ATOM     25  C   UNL     1     -13.670   8.430  32.392  0.00  0.00    -0.030 A 
ATOM     27  C   UNL     1     -12.295   8.200  32.445  0.00  0.00    +0.008 A 
ATOM     28  C   UNL     1     -14.189   9.347  31.478  0.00  0.00    +0.008 A 
ATOM     29  C   UNL     1     -11.440   8.886  31.583  0.00  0.00    +0.038 A 
ATOM     30  C   UNL     1     -13.333  10.032  30.616  0.00  0.00    +0.038 A 
ATOM     31  C   UNL     1     -11.959   9.802  30.669  0.00  0.00    +0.123 A 
ENDBRANCH  22  25
ENDBRANCH   7  22
ENDBRANCH  17  19
ENDBRANCH  16  17
ENDBRANCH  11  16
TORSDOF 8
ENDMDL
MODEL 9
REMARK VINA RESULT:      -6.5      3.603      7.550
REMARK  Name = 45360649
REMARK  8 active torsions:
REMARK  status: ('A' for Active; 'I' for Inactive)
REMARK    1  A    between atoms: N_6  and  C_10
REMARK    2  A    between atoms: N_6  and  C_18
REMARK    3  A    between atoms: N_7  and  C_22
REMARK    4  A    between atoms: C_11  and  C_16
REMARK    5  A    between atoms: C_16  and  C_17
REMARK    6  A    between atoms: C_17  and  C_19
REMARK    7  A    between atoms: C_18  and  C_20
REMARK    8  A    between atoms: C_22  and  C_25
REMARK                            x       y       z     vdW  Elec       q    Type
REMARK                         _______ _______ _______ _____ _____    ______ ____
ROOT
ATOM      2  O   UNL     1      -7.921 -11.214  12.132  0.00  0.00    -0.274 OA
ATOM      4  N   UNL     1      -4.494  -9.964  12.288  0.00  0.00    -0.286 NA
ATOM      5  N   UNL     1      -5.960 -12.356  12.295  0.00  0.00    -0.313 N 
ATOM      9  C   UNL     1      -5.953  -9.870  12.428  0.00  0.00    +0.145 C 
ATOM     10  C   UNL     1      -5.082  -8.489  10.631  0.00  0.00    +0.070 C 
ATOM     11  C   UNL     1      -3.908 -11.154  12.894  0.00  0.00    +0.075 C 
ATOM     12  C   UNL     1      -6.380  -8.862  11.349  0.00  0.00    +0.048 C 
ATOM     13  C   UNL     1      -4.176  -9.685  10.890  0.00  0.00    +0.104 C 
ATOM     14  C   UNL     1      -4.518 -12.417  12.306  0.00  0.00    +0.123 C 
ATOM     15  C   UNL     1      -6.691 -11.194  12.250  0.00  0.00    +0.230 C 
ATOM     32  H   UNL     1      -6.467 -13.232  12.197  0.00  0.00    +0.149 HD
ENDROOT
BRANCH  10   6
ATOM      6  N   UNL     1      -5.274  -8.202   9.218  0.00  0.00    -0.307 NA
ATOM     33  H   UNL     1      -5.613  -7.246   9.118  0.00  0.00    +0.123 HD
BRANCH   6  18
ATOM     18  C   UNL     1      -6.244  -9.115   8.627  0.00  0.00    +0.136 C 
BRANCH  18  20
ATOM      8  N   UNL     1      -7.312  -8.882   6.457  0.00  0.00    -0.259 NA
ATOM     20  C   UNL     1      -7.203  -8.403   7.717  0.00  0.00    +0.055 A 
ATOM     21  C   UNL     1      -7.915  -7.316   8.198  0.00  0.00    +0.024 A 
ATOM     23  C   UNL     1      -8.795  -6.680   7.331  0.00  0.00    +0.003 A 
ATOM     24  C   UNL     1      -8.178  -8.237   5.644  0.00  0.00    +0.111 A 
ATOM     26  C   UNL     1      -8.936  -7.143   6.028  0.00  0.00    +0.020 A 
ENDBRANCH  18  20
ENDBRANCH   6  18
ENDBRANCH  10   6
BRANCH  11  16
ATOM     16  C   UNL     1      -2.383 -11.182  12.792  0.00  0.00    +0.029 C 
BRANCH  16  17
ATOM     17  C   UNL     1      -1.765 -11.917  13.974  0.00  0.00    +0.097 C 
BRANCH  17  19
ATOM      3  O   UNL     1      -1.302 -10.140  15.552  0.00  0.00    -0.276 OA
ATOM      7  N   UNL     1      -2.887 -11.748  16.095  0.00  0.00    -0.311 N 
ATOM     19  C   UNL     1      -1.938 -11.155  15.276  0.00  0.00    +0.213 C 
ATOM     34  H   UNL     1      -3.347 -12.605  15.802  0.00  0.00    +0.149 HD
BRANCH   7  22
ATOM     22  C   UNL     1      -3.231 -11.212  17.390  0.00  0.00    +0.139 C 
BRANCH  22  25
ATOM      1  F   UNL     1      -8.478  -9.172  17.496  0.00  0.00    -0.205 F 
ATOM     25  C   UNL     1      -4.630 -10.668  17.419  0.00  0.00    -0.030 A 
ATOM     27  C   UNL     1      -5.169 -10.071  16.280  0.00  0.00    +0.008 A 
ATOM     28  C   UNL     1      -5.391 -10.759  18.585  0.00  0.00    +0.008 A 
ATOM     29  C   UNL     1      -6.468  -9.565  16.305  0.00  0.00    +0.038 A 
ATOM     30  C   UNL     1      -6.690 -10.254  18.610  0.00  0.00    +0.038 A 
ATOM     31  C   UNL     1      -7.229  -9.657  17.471  0.00  0.00    +0.123 A 
ENDBRANCH  22  25
ENDBRANCH   7  22
ENDBRANCH  17  19
ENDBRANCH  16  17
ENDBRANCH  11  16
TORSDOF 8
ENDMDL
MODEL 10
REMARK VINA RESULT:      -6.5      2.393      7.289
REMARK  Name = 45360649
REMARK  8 active torsions:
REMARK  status: ('A' for Active; 'I' for Inactive)
REMARK    1  A    between atoms: N_6  and  C_10
REMARK    2  A    between atoms: N_6  and  C_18
REMARK    3  A    between atoms: N_7  and  C_22
REMARK    4  A    between atoms: C_11  and  C_16
REMARK    5  A    between atoms: C_16  and  C_17
REMARK    6  A    between atoms: C_17  and  C_19
REMARK    7  A    between atoms: C_18  and  C_20
REMARK    8  A    between atoms: C_22  and  C_25
REMARK                            x       y       z     vdW  Elec       q    Type
REMARK                         _______ _______ _______ _____ _____    ______ ____
ROOT
ATOM      2  O   UNL     1      -5.371 -14.033  14.264  0.00  0.00    -0.274 OA
ATOM      4  N   UNL     1      -6.385 -11.292  16.452  0.00  0.00    -0.286 NA
ATOM      5  N   UNL     1      -4.299 -13.126  16.053  0.00  0.00    -0.313 N 
ATOM      9  C   UNL     1      -6.607 -12.381  15.492  0.00  0.00    +0.145 C 
ATOM     10  C   UNL     1      -7.058 -10.185  14.558  0.00  0.00    +0.070 C 
ATOM     11  C   UNL     1      -5.529 -11.650  17.577  0.00  0.00    +0.075 C 
ATOM     12  C   UNL     1      -7.092 -11.675  14.215  0.00  0.00    +0.048 C 
ATOM     13  C   UNL     1      -6.034 -10.102  15.681  0.00  0.00    +0.104 C 
ATOM     14  C   UNL     1      -4.170 -12.132  17.092  0.00  0.00    +0.123 C 
ATOM     15  C   UNL     1      -5.372 -13.230  15.202  0.00  0.00    +0.230 C 
ATOM     32  H   UNL     1      -3.491 -13.713  15.862  0.00  0.00    +0.149 HD
ENDROOT
BRANCH  10   6
ATOM      6  N   UNL     1      -6.736  -9.344  13.416  0.00  0.00    -0.307 NA
ATOM     33  H   UNL     1      -7.507  -8.697  13.253  0.00  0.00    +0.123 HD
BRANCH   6  18
ATOM     18  C   UNL     1      -6.528 -10.148  12.218  0.00  0.00    +0.136 C 
BRANCH  18  20
ATOM      8  N   UNL     1      -5.184  -9.032  10.528  0.00  0.00    -0.259 NA
ATOM     20  C   UNL     1      -5.194  -9.876  11.584  0.00  0.00    +0.055 A 
ATOM     21  C   UNL     1      -4.062 -10.488  12.099  0.00  0.00    +0.024 A 
ATOM     23  C   UNL     1      -2.842 -10.215  11.492  0.00  0.00    +0.003 A 
ATOM     24  C   UNL     1      -3.980  -8.792   9.964  0.00  0.00    +0.111 A 
ATOM     26  C   UNL     1      -2.791  -9.351  10.403  0.00  0.00    +0.020 A 
ENDBRANCH  18  20
ENDBRANCH   6  18
ENDBRANCH  10   6
BRANCH  11  16
ATOM     16  C   UNL     1      -5.378 -10.516  18.593  0.00  0.00    +0.029 C 
BRANCH  16  17
ATOM     17  C   UNL     1      -6.068 -10.858  19.906  0.00  0.00    +0.097 C 
BRANCH  17  19
ATOM      3  O   UNL     1      -7.931 -12.395  20.070  0.00  0.00    -0.276 OA
ATOM      7  N   UNL     1      -8.253 -10.337  19.045  0.00  0.00    -0.311 N 
ATOM     19  C   UNL     1      -7.504 -11.305  19.699  0.00  0.00    +0.213 C 
ATOM     34  H   UNL     1      -7.814  -9.471  18.746  0.00  0.00    +0.149 HD
BRANCH   7  22
ATOM     22  C   UNL     1      -9.649 -10.525  18.730  0.00  0.00    +0.139 C 
BRANCH  22  25
ATOM      1  F   UNL     1     -11.669  -6.350  15.538  0.00  0.00    -0.205 F 
ATOM     25  C   UNL     1     -10.187  -9.411  17.879  0.00  0.00    -0.030 A 
ATOM     27  C   UNL     1     -11.563  -9.195  17.802  0.00  0.00    +0.008 A 
ATOM     28  C   UNL     1      -9.312  -8.593  17.164  0.00  0.00    +0.008 A 
ATOM     29  C   UNL     1     -12.064  -8.161  17.012  0.00  0.00    +0.038 A 
ATOM     30  C   UNL     1      -9.813  -7.560  16.373  0.00  0.00    +0.038 A 
ATOM     31  C   UNL     1     -11.189  -7.343  16.297  0.00  0.00    +0.123 A 
ENDBRANCH  22  25
ENDBRANCH   7  22
ENDBRANCH  17  19
ENDBRANCH  16  17
ENDBRANCH  11  16
TORSDOF 8
ENDMDL
