MODEL 1
REMARK VINA RESULT:      -6.9      0.000      0.000
REMARK  Name = 26762303
REMARK  10 active torsions:
REMARK  status: ('A' for Active; 'I' for Inactive)
REMARK    1  A    between atoms: S_1  and  N_9
REMARK    2  A    between atoms: S_1  and  C_21
REMARK    3  A    between atoms: O_6  and  C_27
REMARK    4  A    between atoms: O_6  and  C_33
REMARK    5  A    between atoms: N_9  and  C_12
REMARK    6  A    between atoms: N_10  and  C_24
REMARK    7  A    between atoms: C_14  and  C_18
REMARK    8  A    between atoms: C_18  and  C_19
REMARK    9  A    between atoms: C_19  and  C_20
REMARK   10  A    between atoms: C_24  and  C_28
REMARK                            x       y       z     vdW  Elec       q    Type
REMARK                         _______ _______ _______ _____ _____    ______ ____
ROOT
ATOM      2  O   UNL     1      -7.070 -12.924  19.126  0.00  0.00    -0.274 OA
ATOM      7  N   UNL     1      -5.127 -10.329  17.532  0.00  0.00    -0.285 NA
ATOM      8  N   UNL     1      -5.393 -13.117  17.594  0.00  0.00    -0.313 N 
ATOM     11  C   UNL     1      -5.791 -10.932  18.687  0.00  0.00    +0.145 C 
ATOM     12  C   UNL     1      -7.335  -9.524  17.459  0.00  0.00    +0.092 C 
ATOM     13  C   UNL     1      -7.010 -10.032  18.866  0.00  0.00    +0.050 C 
ATOM     14  C   UNL     1      -4.012 -11.136  17.038  0.00  0.00    +0.075 C 
ATOM     15  C   UNL     1      -6.174  -9.976  16.575  0.00  0.00    +0.106 C 
ATOM     16  C   UNL     1      -4.466 -12.538  16.645  0.00  0.00    +0.123 C 
ATOM     17  C   UNL     1      -6.170 -12.394  18.472  0.00  0.00    +0.230 C 
ATOM     35  H   UNL     1      -5.604 -14.105  17.492  0.00  0.00    +0.149 HD
ENDROOT
BRANCH  12   9
ATOM      9  N   UNL     1      -8.601 -10.119  16.976  0.00  0.00    -0.186 NA
ATOM     36  H   UNL     1      -8.530 -11.049  16.541  0.00  0.00    +0.148 HD
BRANCH   9   1
ATOM      1  S   UNL     1      -9.901  -9.113  16.554  0.00  0.00    +0.059 S 
ATOM      3  O   UNL     1     -10.472  -9.559  15.298  0.00  0.00    -0.153 OA
ATOM      4  O   UNL     1      -9.495  -7.730  16.720  0.00  0.00    -0.153 OA
BRANCH   1  21
ATOM     21  C   UNL     1     -11.066  -9.465  17.837  0.00  0.00    +0.105 A 
ATOM     22  C   UNL     1     -10.621  -9.933  19.073  0.00  0.00    +0.032 A 
ATOM     23  C   UNL     1     -12.430  -9.274  17.613  0.00  0.00    +0.032 A 
ATOM     25  C   UNL     1     -11.540 -10.212  20.085  0.00  0.00    +0.047 A 
ATOM     26  C   UNL     1     -13.348  -9.553  18.625  0.00  0.00    +0.047 A 
ATOM     27  C   UNL     1     -12.903 -10.020  19.861  0.00  0.00    +0.120 A 
BRANCH  27   6
ATOM      6  O   UNL     1     -13.799 -10.293  20.848  0.00  0.00    -0.495 OA
ATOM     33  C   UNL     1     -13.621 -11.512  21.569  0.00  0.00    +0.277 C 
ENDBRANCH  27   6
ENDBRANCH   1  21
ENDBRANCH   9   1
ENDBRANCH  12   9
BRANCH  14  18
ATOM     18  C   UNL     1      -3.265 -10.457  15.890  0.00  0.00    +0.029 C 
BRANCH  18  19
ATOM     19  C   UNL     1      -1.954 -11.169  15.591  0.00  0.00    +0.097 C 
BRANCH  19  20
ATOM      5  O   UNL     1      -1.463 -12.643  13.734  0.00  0.00    -0.276 OA
ATOM     10  N   UNL     1      -2.168 -10.475  13.298  0.00  0.00    -0.311 N 
ATOM     20  C   UNL     1      -1.826 -11.538  14.123  0.00  0.00    +0.213 C 
ATOM     37  H   UNL     1      -2.467  -9.594  13.705  0.00  0.00    +0.149 HD
BRANCH  10  24
ATOM     24  C   UNL     1      -2.128 -10.574  11.859  0.00  0.00    +0.139 C 
BRANCH  24  28
ATOM     28  C   UNL     1      -3.318  -9.922  11.217  0.00  0.00    -0.030 A 
ATOM     29  C   UNL     1      -4.545  -9.903  11.880  0.00  0.00    +0.005 A 
ATOM     30  C   UNL     1      -3.197  -9.334   9.957  0.00  0.00    +0.005 A 
ATOM     31  C   UNL     1      -5.651  -9.297  11.284  0.00  0.00    +0.000 A 
ATOM     32  C   UNL     1      -4.303  -8.728   9.362  0.00  0.00    +0.000 A 
ATOM     34  C   UNL     1      -5.530  -8.709  10.025  0.00  0.00    +0.000 A 
ENDBRANCH  24  28
ENDBRANCH  10  24
ENDBRANCH  19  20
ENDBRANCH  18  19
ENDBRANCH  14  18
TORSDOF 9
ENDMDL
MODEL 2
REMARK VINA RESULT:      -6.7     18.125     21.454
REMARK  Name = 26762303
REMARK  10 active torsions:
REMARK  status: ('A' for Active; 'I' for Inactive)
REMARK    1  A    between atoms: S_1  and  N_9
REMARK    2  A    between atoms: S_1  and  C_21
REMARK    3  A    between atoms: O_6  and  C_27
REMARK    4  A    between atoms: O_6  and  C_33
REMARK    5  A    between atoms: N_9  and  C_12
REMARK    6  A    between atoms: N_10  and  C_24
REMARK    7  A    between atoms: C_14  and  C_18
REMARK    8  A    between atoms: C_18  and  C_19
REMARK    9  A    between atoms: C_19  and  C_20
REMARK   10  A    between atoms: C_24  and  C_28
REMARK                            x       y       z     vdW  Elec       q    Type
REMARK                         _______ _______ _______ _____ _____    ______ ____
ROOT
ATOM      2  O   UNL     1     -17.903   2.410  21.943  0.00  0.00    -0.274 OA
ATOM      7  N   UNL     1     -17.490   3.576  25.338  0.00  0.00    -0.285 NA
ATOM      8  N   UNL     1     -17.208   1.261  23.785  0.00  0.00    -0.313 N 
ATOM     11  C   UNL     1     -18.206   3.509  24.064  0.00  0.00    +0.145 C 
ATOM     12  C   UNL     1     -16.563   5.289  24.021  0.00  0.00    +0.092 C 
ATOM     13  C   UNL     1     -17.929   4.884  23.464  0.00  0.00    +0.050 C 
ATOM     14  C   UNL     1     -17.447   2.287  26.027  0.00  0.00    +0.075 C 
ATOM     15  C   UNL     1     -16.214   4.238  25.074  0.00  0.00    +0.106 C 
ATOM     16  C   UNL     1     -16.787   1.213  25.169  0.00  0.00    +0.123 C 
ATOM     17  C   UNL     1     -17.734   2.372  23.164  0.00  0.00    +0.230 C 
ATOM     35  H   UNL     1     -16.947   0.478  23.193  0.00  0.00    +0.149 HD
ENDROOT
BRANCH  12   9
ATOM      9  N   UNL     1     -15.545   5.285  22.946  0.00  0.00    -0.186 NA
ATOM     36  H   UNL     1     -14.563   5.266  23.250  0.00  0.00    +0.148 HD
BRANCH   9   1
ATOM      1  S   UNL     1     -15.921   5.934  21.424  0.00  0.00    +0.059 S 
ATOM      3  O   UNL     1     -16.847   7.040  21.584  0.00  0.00    -0.153 OA
ATOM      4  O   UNL     1     -16.234   4.847  20.516  0.00  0.00    -0.153 OA
BRANCH   1  21
ATOM     21  C   UNL     1     -14.363   6.598  20.916  0.00  0.00    +0.105 A 
ATOM     22  C   UNL     1     -14.310   7.558  19.906  0.00  0.00    +0.032 A 
ATOM     23  C   UNL     1     -13.186   6.161  21.525  0.00  0.00    +0.032 A 
ATOM     25  C   UNL     1     -13.080   8.081  19.504  0.00  0.00    +0.047 A 
ATOM     26  C   UNL     1     -11.958   6.684  21.124  0.00  0.00    +0.047 A 
ATOM     27  C   UNL     1     -11.905   7.644  20.114  0.00  0.00    +0.120 A 
BRANCH  27   6
ATOM      6  O   UNL     1     -10.706   8.154  19.722  0.00  0.00    -0.495 OA
ATOM     33  C   UNL     1     -10.576   9.575  19.712  0.00  0.00    +0.277 C 
ENDBRANCH  27   6
ENDBRANCH   1  21
ENDBRANCH   9   1
ENDBRANCH  12   9
BRANCH  14  18
ATOM     18  C   UNL     1     -16.778   2.384  27.399  0.00  0.00    +0.029 C 
BRANCH  18  19
ATOM     19  C   UNL     1     -16.703   1.019  28.070  0.00  0.00    +0.097 C 
BRANCH  19  20
ATOM      5  O   UNL     1     -15.157  -0.118  29.545  0.00  0.00    -0.276 OA
ATOM     10  N   UNL     1     -15.063   2.195  29.379  0.00  0.00    -0.311 N 
ATOM     20  C   UNL     1     -15.566   0.938  29.074  0.00  0.00    +0.213 C 
ATOM     37  H   UNL     1     -15.457   3.020  28.935  0.00  0.00    +0.149 HD
BRANCH  10  24
ATOM     24  C   UNL     1     -13.977   2.385  30.310  0.00  0.00    +0.139 C 
BRANCH  24  28
ATOM     28  C   UNL     1     -14.392   3.199  31.501  0.00  0.00    -0.030 A 
ATOM     29  C   UNL     1     -13.447   3.957  32.191  0.00  0.00    +0.005 A 
ATOM     30  C   UNL     1     -15.724   3.198  31.917  0.00  0.00    +0.005 A 
ATOM     31  C   UNL     1     -13.832   4.714  33.298  0.00  0.00    +0.000 A 
ATOM     32  C   UNL     1     -16.109   3.954  33.024  0.00  0.00    +0.000 A 
ATOM     34  C   UNL     1     -15.163   4.712  33.714  0.00  0.00    +0.000 A 
ENDBRANCH  24  28
ENDBRANCH  10  24
ENDBRANCH  19  20
ENDBRANCH  18  19
ENDBRANCH  14  18
TORSDOF 9
ENDMDL
MODEL 3
REMARK VINA RESULT:      -6.6      2.172      3.418
REMARK  Name = 26762303
REMARK  10 active torsions:
REMARK  status: ('A' for Active; 'I' for Inactive)
REMARK    1  A    between atoms: S_1  and  N_9
REMARK    2  A    between atoms: S_1  and  C_21
REMARK    3  A    between atoms: O_6  and  C_27
REMARK    4  A    between atoms: O_6  and  C_33
REMARK    5  A    between atoms: N_9  and  C_12
REMARK    6  A    between atoms: N_10  and  C_24
REMARK    7  A    between atoms: C_14  and  C_18
REMARK    8  A    between atoms: C_18  and  C_19
REMARK    9  A    between atoms: C_19  and  C_20
REMARK   10  A    between atoms: C_24  and  C_28
REMARK                            x       y       z     vdW  Elec       q    Type
REMARK                         _______ _______ _______ _____ _____    ______ ____
ROOT
ATOM      2  O   UNL     1      -7.917 -13.693  17.833  0.00  0.00    -0.274 OA
ATOM      7  N   UNL     1      -5.651 -10.880  17.767  0.00  0.00    -0.285 NA
ATOM      8  N   UNL     1      -5.985 -13.429  16.652  0.00  0.00    -0.313 N 
ATOM     11  C   UNL     1      -6.535 -11.822  18.454  0.00  0.00    +0.145 C 
ATOM     12  C   UNL     1      -7.788  -9.904  17.665  0.00  0.00    +0.092 C 
ATOM     13  C   UNL     1      -7.746 -10.952  18.778  0.00  0.00    +0.050 C 
ATOM     14  C   UNL     1      -4.482 -11.531  17.179  0.00  0.00    +0.075 C 
ATOM     15  C   UNL     1      -6.491 -10.080  16.877  0.00  0.00    +0.106 C 
ATOM     16  C   UNL     1      -4.883 -12.614  16.184  0.00  0.00    +0.123 C 
ATOM     17  C   UNL     1      -6.898 -13.038  17.607  0.00  0.00    +0.230 C 
ATOM     35  H   UNL     1      -6.195 -14.271  16.126  0.00  0.00    +0.149 HD
ENDROOT
BRANCH  12   9
ATOM      9  N   UNL     1      -8.953 -10.136  16.781  0.00  0.00    -0.186 NA
ATOM     36  H   UNL     1      -8.777 -10.069  15.770  0.00  0.00    +0.148 HD
BRANCH   9   1
ATOM      1  S   UNL     1     -10.523  -9.857  17.362  0.00  0.00    +0.059 S 
ATOM      3  O   UNL     1     -10.461  -9.459  18.754  0.00  0.00    -0.153 OA
ATOM      4  O   UNL     1     -11.374 -10.960  16.956  0.00  0.00    -0.153 OA
BRANCH   1  21
ATOM     21  C   UNL     1     -11.017  -8.449  16.413  0.00  0.00    +0.105 A 
ATOM     22  C   UNL     1     -12.204  -8.482  15.682  0.00  0.00    +0.032 A 
ATOM     23  C   UNL     1     -10.220  -7.304  16.397  0.00  0.00    +0.032 A 
ATOM     25  C   UNL     1     -12.594  -7.371  14.933  0.00  0.00    +0.047 A 
ATOM     26  C   UNL     1     -10.609  -6.194  15.649  0.00  0.00    +0.047 A 
ATOM     27  C   UNL     1     -11.797  -6.227  14.918  0.00  0.00    +0.120 A 
BRANCH  27   6
ATOM      6  O   UNL     1     -12.177  -5.144  14.187  0.00  0.00    -0.495 OA
ATOM     33  C   UNL     1     -12.612  -5.383  12.850  0.00  0.00    +0.277 C 
ENDBRANCH  27   6
ENDBRANCH   1  21
ENDBRANCH   9   1
ENDBRANCH  12   9
BRANCH  14  18
ATOM     18  C   UNL     1      -3.516 -10.530  16.543  0.00  0.00    +0.029 C 
BRANCH  18  19
ATOM     19  C   UNL     1      -2.369 -11.243  15.843  0.00  0.00    +0.097 C 
BRANCH  19  20
ATOM      5  O   UNL     1      -1.085  -9.486  14.784  0.00  0.00    -0.276 OA
ATOM     10  N   UNL     1      -2.308 -10.946  13.457  0.00  0.00    -0.311 N 
ATOM     20  C   UNL     1      -1.837 -10.448  14.664  0.00  0.00    +0.213 C 
ATOM     37  H   UNL     1      -2.923 -11.754  13.448  0.00  0.00    +0.149 HD
BRANCH  10  24
ATOM     24  C   UNL     1      -1.946 -10.361  12.188  0.00  0.00    +0.139 C 
BRANCH  24  28
ATOM     28  C   UNL     1      -3.149  -9.902  11.417  0.00  0.00    -0.030 A 
ATOM     29  C   UNL     1      -2.991  -9.330  10.154  0.00  0.00    +0.005 A 
ATOM     30  C   UNL     1      -4.425 -10.047  11.962  0.00  0.00    +0.005 A 
ATOM     31  C   UNL     1      -4.109  -8.904   9.437  0.00  0.00    +0.000 A 
ATOM     32  C   UNL     1      -5.542  -9.620  11.245  0.00  0.00    +0.000 A 
ATOM     34  C   UNL     1      -5.384  -9.049   9.982  0.00  0.00    +0.000 A 
ENDBRANCH  24  28
ENDBRANCH  10  24
ENDBRANCH  19  20
ENDBRANCH  18  19
ENDBRANCH  14  18
TORSDOF 9
ENDMDL
MODEL 4
REMARK VINA RESULT:      -6.6      4.168      8.725
REMARK  Name = 26762303
REMARK  10 active torsions:
REMARK  status: ('A' for Active; 'I' for Inactive)
REMARK    1  A    between atoms: S_1  and  N_9
REMARK    2  A    between atoms: S_1  and  C_21
REMARK    3  A    between atoms: O_6  and  C_27
REMARK    4  A    between atoms: O_6  and  C_33
REMARK    5  A    between atoms: N_9  and  C_12
REMARK    6  A    between atoms: N_10  and  C_24
REMARK    7  A    between atoms: C_14  and  C_18
REMARK    8  A    between atoms: C_18  and  C_19
REMARK    9  A    between atoms: C_19  and  C_20
REMARK   10  A    between atoms: C_24  and  C_28
REMARK                            x       y       z     vdW  Elec       q    Type
REMARK                         _______ _______ _______ _____ _____    ______ ____
ROOT
ATOM      2  O   UNL     1      -9.747 -12.095  14.310  0.00  0.00    -0.274 OA
ATOM      7  N   UNL     1      -9.342  -8.763  15.647  0.00  0.00    -0.285 NA
ATOM      8  N   UNL     1     -11.297 -10.738  15.286  0.00  0.00    -0.313 N 
ATOM     11  C   UNL     1      -9.096  -9.802  14.647  0.00  0.00    +0.145 C 
ATOM     12  C   UNL     1      -7.456  -9.932  16.426  0.00  0.00    +0.092 C 
ATOM     13  C   UNL     1      -7.647 -10.187  14.930  0.00  0.00    +0.050 C 
ATOM     14  C   UNL     1     -10.746  -8.358  15.705  0.00  0.00    +0.075 C 
ATOM     15  C   UNL     1      -8.723  -9.216  16.892  0.00  0.00    +0.106 C 
ATOM     16  C   UNL     1     -11.658  -9.540  16.016  0.00  0.00    +0.123 C 
ATOM     17  C   UNL     1     -10.049 -10.987  14.758  0.00  0.00    +0.230 C 
ATOM     35  H   UNL     1     -11.955 -11.511  15.308  0.00  0.00    +0.149 HD
ENDROOT
BRANCH  12   9
ATOM      9  N   UNL     1      -7.302 -11.213  17.152  0.00  0.00    -0.186 NA
ATOM     36  H   UNL     1      -8.172 -11.675  17.447  0.00  0.00    +0.148 HD
BRANCH   9   1
ATOM      1  S   UNL     1      -5.871 -11.533  18.006  0.00  0.00    +0.059 S 
ATOM      3  O   UNL     1      -5.960 -12.841  18.627  0.00  0.00    -0.153 OA
ATOM      4  O   UNL     1      -5.532 -10.369  18.803  0.00  0.00    -0.153 OA
BRANCH   1  21
ATOM     21  C   UNL     1      -4.682 -11.629  16.701  0.00  0.00    +0.105 A 
ATOM     22  C   UNL     1      -4.784 -12.631  15.737  0.00  0.00    +0.032 A 
ATOM     23  C   UNL     1      -3.641 -10.702  16.636  0.00  0.00    +0.032 A 
ATOM     25  C   UNL     1      -3.845 -12.707  14.707  0.00  0.00    +0.047 A 
ATOM     26  C   UNL     1      -2.703 -10.779  15.607  0.00  0.00    +0.047 A 
ATOM     27  C   UNL     1      -2.806 -11.781  14.643  0.00  0.00    +0.120 A 
BRANCH  27   6
ATOM      6  O   UNL     1      -1.890 -11.856  13.639  0.00  0.00    -0.495 OA
ATOM     33  C   UNL     1      -2.117 -11.041  12.490  0.00  0.00    +0.277 C 
ENDBRANCH  27   6
ENDBRANCH   1  21
ENDBRANCH   9   1
ENDBRANCH  12   9
BRANCH  14  18
ATOM     18  C   UNL     1     -10.980  -7.210  16.687  0.00  0.00    +0.029 C 
BRANCH  18  19
ATOM     19  C   UNL     1     -11.044  -5.873  15.962  0.00  0.00    +0.097 C 
BRANCH  19  20
ATOM      5  O   UNL     1     -13.312  -6.326  15.248  0.00  0.00    -0.276 OA
ATOM     10  N   UNL     1     -11.935  -5.047  13.885  0.00  0.00    -0.311 N 
ATOM     20  C   UNL     1     -12.232  -5.792  15.019  0.00  0.00    +0.213 C 
ATOM     37  H   UNL     1     -11.014  -4.632  13.780  0.00  0.00    +0.149 HD
BRANCH  10  24
ATOM     24  C   UNL     1     -12.900  -4.824  12.836  0.00  0.00    +0.139 C 
BRANCH  24  28
ATOM     28  C   UNL     1     -12.252  -4.739  11.485  0.00  0.00    -0.030 A 
ATOM     29  C   UNL     1     -11.907  -3.496  10.954  0.00  0.00    +0.005 A 
ATOM     30  C   UNL     1     -11.994  -5.903  10.759  0.00  0.00    +0.005 A 
ATOM     31  C   UNL     1     -11.303  -3.417   9.699  0.00  0.00    +0.000 A 
ATOM     32  C   UNL     1     -11.392  -5.823   9.505  0.00  0.00    +0.000 A 
ATOM     34  C   UNL     1     -11.046  -4.580   8.974  0.00  0.00    +0.000 A 
ENDBRANCH  24  28
ENDBRANCH  10  24
ENDBRANCH  19  20
ENDBRANCH  18  19
ENDBRANCH  14  18
TORSDOF 9
ENDMDL
MODEL 5
REMARK VINA RESULT:      -6.6     18.391     21.155
REMARK  Name = 26762303
REMARK  10 active torsions:
REMARK  status: ('A' for Active; 'I' for Inactive)
REMARK    1  A    between atoms: S_1  and  N_9
REMARK    2  A    between atoms: S_1  and  C_21
REMARK    3  A    between atoms: O_6  and  C_27
REMARK    4  A    between atoms: O_6  and  C_33
REMARK    5  A    between atoms: N_9  and  C_12
REMARK    6  A    between atoms: N_10  and  C_24
REMARK    7  A    between atoms: C_14  and  C_18
REMARK    8  A    between atoms: C_18  and  C_19
REMARK    9  A    between atoms: C_19  and  C_20
REMARK   10  A    between atoms: C_24  and  C_28
REMARK                            x       y       z     vdW  Elec       q    Type
REMARK                         _______ _______ _______ _____ _____    ______ ____
ROOT
ATOM      2  O   UNL     1     -18.098   3.630  19.502  0.00  0.00    -0.274 OA
ATOM      7  N   UNL     1     -18.681   4.653  22.918  0.00  0.00    -0.285 NA
ATOM      8  N   UNL     1     -18.126   2.365  21.398  0.00  0.00    -0.313 N 
ATOM     11  C   UNL     1     -18.959   4.695  21.482  0.00  0.00    +0.145 C 
ATOM     12  C   UNL     1     -17.236   6.298  22.060  0.00  0.00    +0.092 C 
ATOM     13  C   UNL     1     -18.386   6.051  21.081  0.00  0.00    +0.050 C 
ATOM     14  C   UNL     1     -18.971   3.348  23.510  0.00  0.00    +0.075 C 
ATOM     15  C   UNL     1     -17.333   5.189  23.105  0.00  0.00    +0.106 C 
ATOM     16  C   UNL     1     -18.171   2.236  22.839  0.00  0.00    +0.123 C 
ATOM     17  C   UNL     1     -18.328   3.541  20.710  0.00  0.00    +0.230 C 
ATOM     35  H   UNL     1     -17.761   1.576  20.873  0.00  0.00    +0.149 HD
ENDROOT
BRANCH  12   9
ATOM      9  N   UNL     1     -15.935   6.220  21.358  0.00  0.00    -0.186 NA
ATOM     36  H   UNL     1     -15.874   5.540  20.589  0.00  0.00    +0.148 HD
BRANCH   9   1
ATOM      1  S   UNL     1     -14.513   6.683  22.160  0.00  0.00    +0.059 S 
ATOM      3  O   UNL     1     -13.940   5.532  22.833  0.00  0.00    -0.153 OA
ATOM      4  O   UNL     1     -14.769   7.905  22.898  0.00  0.00    -0.153 OA
BRANCH   1  21
ATOM     21  C   UNL     1     -13.454   7.108  20.809  0.00  0.00    +0.105 A 
ATOM     22  C   UNL     1     -12.079   6.906  20.911  0.00  0.00    +0.032 A 
ATOM     23  C   UNL     1     -13.996   7.645  19.641  0.00  0.00    +0.032 A 
ATOM     25  C   UNL     1     -11.243   7.242  19.845  0.00  0.00    +0.047 A 
ATOM     26  C   UNL     1     -13.161   7.981  18.576  0.00  0.00    +0.047 A 
ATOM     27  C   UNL     1     -11.785   7.778  18.678  0.00  0.00    +0.120 A 
BRANCH  27   6
ATOM      6  O   UNL     1     -10.970   8.107  17.639  0.00  0.00    -0.495 OA
ATOM     33  C   UNL     1     -10.311   9.371  17.705  0.00  0.00    +0.277 C 
ENDBRANCH  27   6
ENDBRANCH   1  21
ENDBRANCH   9   1
ENDBRANCH  12   9
BRANCH  14  18
ATOM     18  C   UNL     1     -18.766   3.337  25.025  0.00  0.00    +0.029 C 
BRANCH  18  19
ATOM     19  C   UNL     1     -17.790   2.245  25.438  0.00  0.00    +0.097 C 
BRANCH  19  20
ATOM      5  O   UNL     1     -15.619   3.311  25.516  0.00  0.00    -0.276 OA
ATOM     10  N   UNL     1     -16.638   2.682  27.504  0.00  0.00    -0.311 N 
ATOM     20  C   UNL     1     -16.558   2.809  26.124  0.00  0.00    +0.213 C 
ATOM     37  H   UNL     1     -17.459   2.260  27.927  0.00  0.00    +0.149 HD
BRANCH  10  24
ATOM     24  C   UNL     1     -15.589   3.143  28.382  0.00  0.00    +0.139 C 
BRANCH  24  28
ATOM     28  C   UNL     1     -15.309   2.166  29.486  0.00  0.00    -0.030 A 
ATOM     29  C   UNL     1     -14.502   2.540  30.560  0.00  0.00    +0.005 A 
ATOM     30  C   UNL     1     -15.856   0.883  29.438  0.00  0.00    +0.005 A 
ATOM     31  C   UNL     1     -14.242   1.632  31.587  0.00  0.00    +0.000 A 
ATOM     32  C   UNL     1     -15.596  -0.024  30.464  0.00  0.00    +0.000 A 
ATOM     34  C   UNL     1     -14.789   0.350  31.539  0.00  0.00    +0.000 A 
ENDBRANCH  24  28
ENDBRANCH  10  24
ENDBRANCH  19  20
ENDBRANCH  18  19
ENDBRANCH  14  18
TORSDOF 9
ENDMDL
MODEL 6
REMARK VINA RESULT:      -6.6     26.284     29.903
REMARK  Name = 26762303
REMARK  10 active torsions:
REMARK  status: ('A' for Active; 'I' for Inactive)
REMARK    1  A    between atoms: S_1  and  N_9
REMARK    2  A    between atoms: S_1  and  C_21
REMARK    3  A    between atoms: O_6  and  C_27
REMARK    4  A    between atoms: O_6  and  C_33
REMARK    5  A    between atoms: N_9  and  C_12
REMARK    6  A    between atoms: N_10  and  C_24
REMARK    7  A    between atoms: C_14  and  C_18
REMARK    8  A    between atoms: C_18  and  C_19
REMARK    9  A    between atoms: C_19  and  C_20
REMARK   10  A    between atoms: C_24  and  C_28
REMARK                            x       y       z     vdW  Elec       q    Type
REMARK                         _______ _______ _______ _____ _____    ______ ____
ROOT
ATOM      2  O   UNL     1      17.103   8.017   0.199  0.00  0.00    -0.274 OA
ATOM      7  N   UNL     1      14.166   6.225   1.300  0.00  0.00    -0.285 NA
ATOM      8  N   UNL     1      16.645   5.788   0.069  0.00  0.00    -0.313 N 
ATOM     11  C   UNL     1      14.835   7.365   0.674  0.00  0.00    +0.145 C 
ATOM     12  C   UNL     1      14.634   7.708   3.064  0.00  0.00    +0.092 C 
ATOM     13  C   UNL     1      14.674   8.455   1.729  0.00  0.00    +0.050 C 
ATOM     14  C   UNL     1      14.351   4.983   0.553  0.00  0.00    +0.075 C 
ATOM     15  C   UNL     1      14.557   6.225   2.709  0.00  0.00    +0.106 C 
ATOM     16  C   UNL     1      15.828   4.637   0.396  0.00  0.00    +0.123 C 
ATOM     17  C   UNL     1      16.296   7.095   0.329  0.00  0.00    +0.230 C 
ATOM     35  H   UNL     1      17.603   5.610  -0.217  0.00  0.00    +0.149 HD
ENDROOT
BRANCH  12   9
ATOM      9  N   UNL     1      15.862   7.979   3.844  0.00  0.00    -0.186 NA
ATOM     36  H   UNL     1      16.624   7.296   3.743  0.00  0.00    +0.148 HD
BRANCH   9   1
ATOM      1  S   UNL     1      15.776   8.911   5.260  0.00  0.00    +0.059 S 
ATOM      3  O   UNL     1      15.680  10.315   4.911  0.00  0.00    -0.153 OA
ATOM      4  O   UNL     1      16.800   8.457   6.182  0.00  0.00    -0.153 OA
BRANCH   1  21
ATOM     21  C   UNL     1      14.219   8.409   5.932  0.00  0.00    +0.105 A 
ATOM     22  C   UNL     1      13.126   9.273   5.879  0.00  0.00    +0.032 A 
ATOM     23  C   UNL     1      14.085   7.148   6.515  0.00  0.00    +0.032 A 
ATOM     25  C   UNL     1      11.897   8.876   6.410  0.00  0.00    +0.047 A 
ATOM     26  C   UNL     1      12.857   6.753   7.045  0.00  0.00    +0.047 A 
ATOM     27  C   UNL     1      11.763   7.617   6.991  0.00  0.00    +0.120 A 
BRANCH  27   6
ATOM      6  O   UNL     1      10.565   7.231   7.510  0.00  0.00    -0.495 OA
ATOM     33  C   UNL     1      10.440   5.867   7.911  0.00  0.00    +0.277 C 
ENDBRANCH  27   6
ENDBRANCH   1  21
ENDBRANCH   9   1
ENDBRANCH  12   9
BRANCH  14  18
ATOM     18  C   UNL     1      13.575   3.815   1.162  0.00  0.00    +0.029 C 
BRANCH  18  19
ATOM     19  C   UNL     1      12.186   3.701   0.550  0.00  0.00    +0.097 C 
BRANCH  19  20
ATOM      5  O   UNL     1       9.895   3.893   1.307  0.00  0.00    -0.276 OA
ATOM     10  N   UNL     1      11.616   4.387   2.784  0.00  0.00    -0.311 N 
ATOM     20  C   UNL     1      11.091   3.994   1.560  0.00  0.00    +0.213 C 
ATOM     37  H   UNL     1      12.622   4.436   2.910  0.00  0.00    +0.149 HD
BRANCH  10  24
ATOM     24  C   UNL     1      10.778   4.722   3.909  0.00  0.00    +0.139 C 
BRANCH  24  28
ATOM     28  C   UNL     1      10.259   6.128   3.825  0.00  0.00    -0.030 A 
ATOM     29  C   UNL     1      10.974   7.094   3.118  0.00  0.00    +0.005 A 
ATOM     30  C   UNL     1       9.061   6.468   4.454  0.00  0.00    +0.005 A 
ATOM     31  C   UNL     1      10.492   8.401   3.039  0.00  0.00    +0.000 A 
ATOM     32  C   UNL     1       8.579   7.774   4.375  0.00  0.00    +0.000 A 
ATOM     34  C   UNL     1       9.294   8.740   3.668  0.00  0.00    +0.000 A 
ENDBRANCH  24  28
ENDBRANCH  10  24
ENDBRANCH  19  20
ENDBRANCH  18  19
ENDBRANCH  14  18
TORSDOF 9
ENDMDL
MODEL 7
REMARK VINA RESULT:      -6.6      4.739      9.694
REMARK  Name = 26762303
REMARK  10 active torsions:
REMARK  status: ('A' for Active; 'I' for Inactive)
REMARK    1  A    between atoms: S_1  and  N_9
REMARK    2  A    between atoms: S_1  and  C_21
REMARK    3  A    between atoms: O_6  and  C_27
REMARK    4  A    between atoms: O_6  and  C_33
REMARK    5  A    between atoms: N_9  and  C_12
REMARK    6  A    between atoms: N_10  and  C_24
REMARK    7  A    between atoms: C_14  and  C_18
REMARK    8  A    between atoms: C_18  and  C_19
REMARK    9  A    between atoms: C_19  and  C_20
REMARK   10  A    between atoms: C_24  and  C_28
REMARK                            x       y       z     vdW  Elec       q    Type
REMARK                         _______ _______ _______ _____ _____    ______ ____
ROOT
ATOM      2  O   UNL     1      -6.942  -8.315   9.694  0.00  0.00    -0.274 OA
ATOM      7  N   UNL     1      -3.986 -10.161  10.647  0.00  0.00    -0.285 NA
ATOM      8  N   UNL     1      -6.401  -9.224  11.713  0.00  0.00    -0.313 N 
ATOM     11  C   UNL     1      -4.671  -9.072   9.949  0.00  0.00    +0.145 C 
ATOM     12  C   UNL     1      -4.569 -11.046   8.548  0.00  0.00    +0.092 C 
ATOM     13  C   UNL     1      -4.587  -9.518   8.492  0.00  0.00    +0.050 C 
ATOM     14  C   UNL     1      -4.101 -10.059  12.100  0.00  0.00    +0.075 C 
ATOM     15  C   UNL     1      -4.427 -11.408  10.025  0.00  0.00    +0.106 C 
ATOM     16  C   UNL     1      -5.558 -10.052  12.549  0.00  0.00    +0.123 C 
ATOM     17  C   UNL     1      -6.108  -8.865  10.416  0.00  0.00    +0.230 C 
ATOM     35  H   UNL     1      -7.341  -9.034  12.047  0.00  0.00    +0.149 HD
ENDROOT
BRANCH  12   9
ATOM      9  N   UNL     1      -5.834 -11.597   8.010  0.00  0.00    -0.186 NA
ATOM     36  H   UNL     1      -6.301 -12.307   8.589  0.00  0.00    +0.148 HD
BRANCH   9   1
ATOM      1  S   UNL     1      -6.119 -11.580   6.338  0.00  0.00    +0.059 S 
ATOM      3  O   UNL     1      -6.844 -12.777   5.958  0.00  0.00    -0.153 OA
ATOM      4  O   UNL     1      -4.889 -11.226   5.657  0.00  0.00    -0.153 OA
BRANCH   1  21
ATOM     21  C   UNL     1      -7.216 -10.203   6.169  0.00  0.00    +0.105 A 
ATOM     22  C   UNL     1      -8.369 -10.130   6.950  0.00  0.00    +0.032 A 
ATOM     23  C   UNL     1      -6.927  -9.189   5.255  0.00  0.00    +0.032 A 
ATOM     25  C   UNL     1      -9.234  -9.043   6.817  0.00  0.00    +0.047 A 
ATOM     26  C   UNL     1      -7.792  -8.103   5.122  0.00  0.00    +0.047 A 
ATOM     27  C   UNL     1      -8.944  -8.030   5.904  0.00  0.00    +0.120 A 
BRANCH  27   6
ATOM      6  O   UNL     1      -9.789  -6.971   5.773  0.00  0.00    -0.495 OA
ATOM     33  C   UNL     1     -10.938  -7.154   4.947  0.00  0.00    +0.277 C 
ENDBRANCH  27   6
ENDBRANCH   1  21
ENDBRANCH   9   1
ENDBRANCH  12   9
BRANCH  14  18
ATOM     18  C   UNL     1      -3.306 -11.146  12.825  0.00  0.00    +0.029 C 
BRANCH  18  19
ATOM     19  C   UNL     1      -1.976 -10.608  13.333  0.00  0.00    +0.097 C 
BRANCH  19  20
ATOM      5  O   UNL     1      -1.099  -9.814  15.444  0.00  0.00    -0.276 OA
ATOM     10  N   UNL     1      -3.064 -11.049  15.432  0.00  0.00    -0.311 N 
ATOM     20  C   UNL     1      -1.971 -10.431  14.841  0.00  0.00    +0.213 C 
ATOM     37  H   UNL     1      -3.746 -11.533  14.855  0.00  0.00    +0.149 HD
BRANCH  10  24
ATOM     24  C   UNL     1      -3.285 -11.024  16.858  0.00  0.00    +0.139 C 
BRANCH  24  28
ATOM     28  C   UNL     1      -4.681 -10.595  17.204  0.00  0.00    -0.030 A 
ATOM     29  C   UNL     1      -5.464  -9.940  16.253  0.00  0.00    +0.005 A 
ATOM     30  C   UNL     1      -5.196 -10.851  18.475  0.00  0.00    +0.005 A 
ATOM     31  C   UNL     1      -6.762  -9.541  16.574  0.00  0.00    +0.000 A 
ATOM     32  C   UNL     1      -6.493 -10.452  18.795  0.00  0.00    +0.000 A 
ATOM     34  C   UNL     1      -7.276  -9.797  17.844  0.00  0.00    +0.000 A 
ENDBRANCH  24  28
ENDBRANCH  10  24
ENDBRANCH  19  20
ENDBRANCH  18  19
ENDBRANCH  14  18
TORSDOF 9
ENDMDL
MODEL 8
REMARK VINA RESULT:      -6.5      3.311      9.308
REMARK  Name = 26762303
REMARK  10 active torsions:
REMARK  status: ('A' for Active; 'I' for Inactive)
REMARK    1  A    between atoms: S_1  and  N_9
REMARK    2  A    between atoms: S_1  and  C_21
REMARK    3  A    between atoms: O_6  and  C_27
REMARK    4  A    between atoms: O_6  and  C_33
REMARK    5  A    between atoms: N_9  and  C_12
REMARK    6  A    between atoms: N_10  and  C_24
REMARK    7  A    between atoms: C_14  and  C_18
REMARK    8  A    between atoms: C_18  and  C_19
REMARK    9  A    between atoms: C_19  and  C_20
REMARK   10  A    between atoms: C_24  and  C_28
REMARK                            x       y       z     vdW  Elec       q    Type
REMARK                         _______ _______ _______ _____ _____    ______ ____
ROOT
ATOM      2  O   UNL     1      -1.480 -12.591  13.163  0.00  0.00    -0.274 OA
ATOM      7  N   UNL     1      -4.433 -11.682  15.035  0.00  0.00    -0.285 NA
ATOM      8  N   UNL     1      -1.649 -11.368  15.079  0.00  0.00    -0.313 N 
ATOM     11  C   UNL     1      -3.621 -12.623  14.263  0.00  0.00    +0.145 C 
ATOM     12  C   UNL     1      -5.035 -11.316  12.792  0.00  0.00    +0.092 C 
ATOM     13  C   UNL     1      -4.373 -12.688  12.937  0.00  0.00    +0.050 C 
ATOM     14  C   UNL     1      -3.805 -11.301  16.299  0.00  0.00    +0.075 C 
ATOM     15  C   UNL     1      -4.815 -10.604  14.124  0.00  0.00    +0.106 C 
ATOM     16  C   UNL     1      -2.433 -10.672  16.077  0.00  0.00    +0.123 C 
ATOM     17  C   UNL     1      -2.173 -12.174  14.092  0.00  0.00    +0.230 C 
ATOM     35  H   UNL     1      -0.669 -11.114  15.000  0.00  0.00    +0.149 HD
ENDROOT
BRANCH  12   9
ATOM      9  N   UNL     1      -4.398 -10.550  11.697  0.00  0.00    -0.186 NA
ATOM     36  H   UNL     1      -3.389 -10.376  11.792  0.00  0.00    +0.148 HD
BRANCH   9   1
ATOM      1  S   UNL     1      -5.330  -9.492  10.752  0.00  0.00    +0.059 S 
ATOM      3  O   UNL     1      -4.693  -8.189  10.714  0.00  0.00    -0.153 OA
ATOM      4  O   UNL     1      -6.720  -9.613  11.148  0.00  0.00    -0.153 OA
BRANCH   1  21
ATOM     21  C   UNL     1      -5.187 -10.215   9.145  0.00  0.00    +0.105 A 
ATOM     22  C   UNL     1      -4.565 -11.454   8.991  0.00  0.00    +0.032 A 
ATOM     23  C   UNL     1      -5.696  -9.547   8.031  0.00  0.00    +0.032 A 
ATOM     25  C   UNL     1      -4.452 -12.025   7.723  0.00  0.00    +0.047 A 
ATOM     26  C   UNL     1      -5.582 -10.117   6.764  0.00  0.00    +0.047 A 
ATOM     27  C   UNL     1      -4.961 -11.357   6.610  0.00  0.00    +0.120 A 
BRANCH  27   6
ATOM      6  O   UNL     1      -4.850 -11.913   5.373  0.00  0.00    -0.495 OA
ATOM     33  C   UNL     1      -3.536 -12.246   4.927  0.00  0.00    +0.277 C 
ENDBRANCH  27   6
ENDBRANCH   1  21
ENDBRANCH   9   1
ENDBRANCH  12   9
BRANCH  14  18
ATOM     18  C   UNL     1      -4.698 -10.391  17.142  0.00  0.00    +0.029 C 
BRANCH  18  19
ATOM     19  C   UNL     1      -4.854 -10.932  18.556  0.00  0.00    +0.097 C 
BRANCH  19  20
ATOM      5  O   UNL     1      -6.676 -10.697  20.132  0.00  0.00    -0.276 OA
ATOM     10  N   UNL     1      -7.145 -11.354  17.956  0.00  0.00    -0.311 N 
ATOM     20  C   UNL     1      -6.307 -10.972  18.995  0.00  0.00    +0.213 C 
ATOM     37  H   UNL     1      -6.755 -11.557  17.040  0.00  0.00    +0.149 HD
BRANCH  10  24
ATOM     24  C   UNL     1      -8.574 -11.469  18.120  0.00  0.00    +0.139 C 
BRANCH  24  28
ATOM     28  C   UNL     1      -9.285 -10.197  17.760  0.00  0.00    -0.030 A 
ATOM     29  C   UNL     1      -8.636  -9.228  16.994  0.00  0.00    +0.005 A 
ATOM     30  C   UNL     1     -10.595  -9.983  18.190  0.00  0.00    +0.005 A 
ATOM     31  C   UNL     1      -9.297  -8.047  16.658  0.00  0.00    +0.000 A 
ATOM     32  C   UNL     1     -11.255  -8.802  17.854  0.00  0.00    +0.000 A 
ATOM     34  C   UNL     1     -10.606  -7.834  17.088  0.00  0.00    +0.000 A 
ENDBRANCH  24  28
ENDBRANCH  10  24
ENDBRANCH  19  20
ENDBRANCH  18  19
ENDBRANCH  14  18
TORSDOF 9
ENDMDL
MODEL 9
REMARK VINA RESULT:      -6.5     27.342     31.180
REMARK  Name = 26762303
REMARK  10 active torsions:
REMARK  status: ('A' for Active; 'I' for Inactive)
REMARK    1  A    between atoms: S_1  and  N_9
REMARK    2  A    between atoms: S_1  and  C_21
REMARK    3  A    between atoms: O_6  and  C_27
REMARK    4  A    between atoms: O_6  and  C_33
REMARK    5  A    between atoms: N_9  and  C_12
REMARK    6  A    between atoms: N_10  and  C_24
REMARK    7  A    between atoms: C_14  and  C_18
REMARK    8  A    between atoms: C_18  and  C_19
REMARK    9  A    between atoms: C_19  and  C_20
REMARK   10  A    between atoms: C_24  and  C_28
REMARK                            x       y       z     vdW  Elec       q    Type
REMARK                         _______ _______ _______ _____ _____    ______ ____
ROOT
ATOM      2  O   UNL     1      10.432   5.408   5.068  0.00  0.00    -0.274 OA
ATOM      7  N   UNL     1      13.047   7.852   4.576  0.00  0.00    -0.285 NA
ATOM      8  N   UNL     1      11.986   6.172   6.551  0.00  0.00    -0.313 N 
ATOM     11  C   UNL     1      11.684   7.351   4.395  0.00  0.00    +0.145 C 
ATOM     12  C   UNL     1      13.134   6.514   2.644  0.00  0.00    +0.092 C 
ATOM     13  C   UNL     1      11.688   6.921   2.931  0.00  0.00    +0.050 C 
ATOM     14  C   UNL     1      13.355   8.154   5.972  0.00  0.00    +0.075 C 
ATOM     15  C   UNL     1      13.936   6.925   3.877  0.00  0.00    +0.106 C 
ATOM     16  C   UNL     1      13.180   6.929   6.863  0.00  0.00    +0.123 C 
ATOM     17  C   UNL     1      11.331   6.207   5.340  0.00  0.00    +0.230 C 
ATOM     35  H   UNL     1      11.712   5.446   7.207  0.00  0.00    +0.149 HD
ENDROOT
BRANCH  12   9
ATOM      9  N   UNL     1      13.228   5.050   2.444  0.00  0.00    -0.186 NA
ATOM     36  H   UNL     1      12.887   4.464   3.217  0.00  0.00    +0.148 HD
BRANCH   9   1
ATOM      1  S   UNL     1      14.389   4.415   1.381  0.00  0.00    +0.059 S 
ATOM      3  O   UNL     1      14.830   3.121   1.863  0.00  0.00    -0.153 OA
ATOM      4  O   UNL     1      15.359   5.449   1.076  0.00  0.00    -0.153 OA
BRANCH   1  21
ATOM     21  C   UNL     1      13.435   4.154  -0.085  0.00  0.00    +0.105 A 
ATOM     22  C   UNL     1      12.045   4.067  -0.007  0.00  0.00    +0.032 A 
ATOM     23  C   UNL     1      14.073   4.035  -1.320  0.00  0.00    +0.032 A 
ATOM     25  C   UNL     1      11.293   3.861  -1.164  0.00  0.00    +0.047 A 
ATOM     26  C   UNL     1      13.321   3.829  -2.476  0.00  0.00    +0.047 A 
ATOM     27  C   UNL     1      11.931   3.743  -2.398  0.00  0.00    +0.120 A 
BRANCH  27   6
ATOM      6  O   UNL     1      11.197   3.540  -3.526  0.00  0.00    -0.495 OA
ATOM     33  C   UNL     1      10.117   2.612  -3.440  0.00  0.00    +0.277 C 
ENDBRANCH  27   6
ENDBRANCH   1  21
ENDBRANCH   9   1
ENDBRANCH  12   9
BRANCH  14  18
ATOM     18  C   UNL     1      14.748   8.763   6.142  0.00  0.00    +0.029 C 
BRANCH  18  19
ATOM     19  C   UNL     1      14.875  10.066   5.365  0.00  0.00    +0.097 C 
BRANCH  19  20
ATOM      5  O   UNL     1      16.383  11.015   3.727  0.00  0.00    -0.276 OA
ATOM     10  N   UNL     1      16.776   8.866   4.511  0.00  0.00    -0.311 N 
ATOM     20  C   UNL     1      16.080  10.064   4.441  0.00  0.00    +0.213 C 
ATOM     37  H   UNL     1      16.459   8.132   5.137  0.00  0.00    +0.149 HD
BRANCH  10  24
ATOM     24  C   UNL     1      17.961   8.616   3.726  0.00  0.00    +0.139 C 
BRANCH  24  28
ATOM     28  C   UNL     1      19.129   8.218   4.581  0.00  0.00    -0.030 A 
ATOM     29  C   UNL     1      19.177   8.607   5.920  0.00  0.00    +0.005 A 
ATOM     30  C   UNL     1      20.166   7.460   4.038  0.00  0.00    +0.005 A 
ATOM     31  C   UNL     1      20.262   8.236   6.716  0.00  0.00    +0.000 A 
ATOM     32  C   UNL     1      21.250   7.090   4.833  0.00  0.00    +0.000 A 
ATOM     34  C   UNL     1      21.298   7.479   6.172  0.00  0.00    +0.000 A 
ENDBRANCH  24  28
ENDBRANCH  10  24
ENDBRANCH  19  20
ENDBRANCH  18  19
ENDBRANCH  14  18
TORSDOF 9
ENDMDL
MODEL 10
REMARK VINA RESULT:      -6.4     18.754     20.140
REMARK  Name = 26762303
REMARK  10 active torsions:
REMARK  status: ('A' for Active; 'I' for Inactive)
REMARK    1  A    between atoms: S_1  and  N_9
REMARK    2  A    between atoms: S_1  and  C_21
REMARK    3  A    between atoms: O_6  and  C_27
REMARK    4  A    between atoms: O_6  and  C_33
REMARK    5  A    between atoms: N_9  and  C_12
REMARK    6  A    between atoms: N_10  and  C_24
REMARK    7  A    between atoms: C_14  and  C_18
REMARK    8  A    between atoms: C_18  and  C_19
REMARK    9  A    between atoms: C_19  and  C_20
REMARK   10  A    between atoms: C_24  and  C_28
REMARK                            x       y       z     vdW  Elec       q    Type
REMARK                         _______ _______ _______ _____ _____    ______ ____
ROOT
ATOM      2  O   UNL     1     -18.363   5.994  24.224  0.00  0.00    -0.274 OA
ATOM      7  N   UNL     1     -15.309   5.086  22.521  0.00  0.00    -0.285 NA
ATOM      8  N   UNL     1     -16.680   7.336  23.474  0.00  0.00    -0.313 N 
ATOM     11  C   UNL     1     -16.746   4.964  22.768  0.00  0.00    +0.145 C 
ATOM     12  C   UNL     1     -15.503   3.500  24.246  0.00  0.00    +0.092 C 
ATOM     13  C   UNL     1     -16.835   3.631  23.505  0.00  0.00    +0.050 C 
ATOM     14  C   UNL     1     -14.939   6.395  21.983  0.00  0.00    +0.075 C 
ATOM     15  C   UNL     1     -14.629   4.645  23.738  0.00  0.00    +0.106 C 
ATOM     16  C   UNL     1     -15.356   7.524  22.919  0.00  0.00    +0.123 C 
ATOM     17  C   UNL     1     -17.320   6.121  23.579  0.00  0.00    +0.230 C 
ATOM     35  H   UNL     1     -17.093   8.123  23.965  0.00  0.00    +0.149 HD
ENDROOT
BRANCH  12   9
ATOM      9  N   UNL     1     -15.709   3.630  25.706  0.00  0.00    -0.186 NA
ATOM     36  H   UNL     1     -14.927   4.029  26.242  0.00  0.00    +0.148 HD
BRANCH   9   1
ATOM      1  S   UNL     1     -16.812   2.611  26.497  0.00  0.00    +0.059 S 
ATOM      3  O   UNL     1     -16.858   1.328  25.822  0.00  0.00    -0.153 OA
ATOM      4  O   UNL     1     -18.037   3.349  26.743  0.00  0.00    -0.153 OA
BRANCH   1  21
ATOM     21  C   UNL     1     -16.030   2.375  28.065  0.00  0.00    +0.105 A 
ATOM     22  C   UNL     1     -16.018   1.111  28.655  0.00  0.00    +0.032 A 
ATOM     23  C   UNL     1     -15.423   3.452  28.712  0.00  0.00    +0.032 A 
ATOM     25  C   UNL     1     -15.401   0.925  29.893  0.00  0.00    +0.047 A 
ATOM     26  C   UNL     1     -14.807   3.265  29.949  0.00  0.00    +0.047 A 
ATOM     27  C   UNL     1     -14.795   2.002  30.538  0.00  0.00    +0.120 A 
BRANCH  27   6
ATOM      6  O   UNL     1     -14.194   1.820  31.745  0.00  0.00    -0.495 OA
ATOM     33  C   UNL     1     -13.672   2.979  32.393  0.00  0.00    +0.277 C 
ENDBRANCH  27   6
ENDBRANCH   1  21
ENDBRANCH   9   1
ENDBRANCH  12   9
BRANCH  14  18
ATOM     18  C   UNL     1     -13.451   6.484  21.641  0.00  0.00    +0.029 C 
BRANCH  18  19
ATOM     19  C   UNL     1     -13.089   7.870  21.127  0.00  0.00    +0.097 C 
BRANCH  19  20
ATOM      5  O   UNL     1     -11.405   6.810  19.748  0.00  0.00    -0.276 OA
ATOM     10  N   UNL     1     -11.362   9.116  20.009  0.00  0.00    -0.311 N 
ATOM     20  C   UNL     1     -11.870   7.842  20.222  0.00  0.00    +0.213 C 
ATOM     37  H   UNL     1     -11.815   9.920  20.435  0.00  0.00    +0.149 HD
BRANCH  10  24
ATOM     24  C   UNL     1     -10.203   9.355  19.183  0.00  0.00    +0.139 C 
BRANCH  24  28
ATOM     28  C   UNL     1     -10.375  10.563  18.308  0.00  0.00    -0.030 A 
ATOM     29  C   UNL     1     -11.019  11.696  18.802  0.00  0.00    +0.005 A 
ATOM     30  C   UNL     1      -9.890  10.551  16.999  0.00  0.00    +0.005 A 
ATOM     31  C   UNL     1     -11.179  12.819  17.989  0.00  0.00    +0.000 A 
ATOM     32  C   UNL     1     -10.050  11.673  16.187  0.00  0.00    +0.000 A 
ATOM     34  C   UNL     1     -10.694  12.807  16.682  0.00  0.00    +0.000 A 
ENDBRANCH  24  28
ENDBRANCH  10  24
ENDBRANCH  19  20
ENDBRANCH  18  19
ENDBRANCH  14  18
TORSDOF 9
ENDMDL
