MODEL 1
REMARK VINA RESULT:      -7.5      0.000      0.000
REMARK  Name = 40780450
REMARK  7 active torsions:
REMARK  status: ('A' for Active; 'I' for Inactive)
REMARK    1  A    between atoms: N_3  and  C_9
REMARK    2  A    between atoms: N_4  and  C_17
REMARK    3  A    between atoms: N_6  and  C_24
REMARK    4  A    between atoms: C_7  and  C_10
REMARK    5  A    between atoms: C_13  and  C_15
REMARK    6  A    between atoms: C_14  and  C_16
REMARK    7  A    between atoms: C_23  and  C_25
REMARK                            x       y       z     vdW  Elec       q    Type
REMARK                         _______ _______ _______ _____ _____    ______ ____
ROOT
ATOM      7  C   UNL     1      -4.765  -9.677  10.208  0.00  0.00    +0.047 C 
ATOM      8  C   UNL     1      -4.757 -10.985  11.034  0.00  0.00    +0.039 C 
ATOM      9  C   UNL     1      -3.487 -10.941  11.887  0.00  0.00    +0.098 C 
ATOM     11  C   UNL     1      -3.287  -9.380  10.150  0.00  0.00    -0.021 C 
ATOM     12  C   UNL     1      -2.600 -10.058  11.076  0.00  0.00    -0.009 C 
ENDROOT
BRANCH   7  10
ATOM      4  N   UNL     1      -6.758  -9.328   7.146  0.00  0.00    -0.236 N 
ATOM      5  N   UNL     1      -6.079 -10.428   6.777  0.00  0.00    -0.171 NA
ATOM     10  C   UNL     1      -5.473  -9.731   8.866  0.00  0.00    +0.003 A 
ATOM     13  C   UNL     1      -6.432  -8.871   8.389  0.00  0.00    +0.046 A 
ATOM     14  C   UNL     1      -5.295 -10.669   7.832  0.00  0.00    +0.064 A 
ATOM     15  C   UNL     1      -7.049  -7.676   9.002  0.00  0.00    +0.066 C 
ATOM     16  C   UNL     1      -4.380 -11.823   7.805  0.00  0.00    +0.068 C 
BRANCH   4  17
ATOM      1 CL   UNL     1      -7.805  -7.590   2.463  0.00  0.00    -0.083 Cl
ATOM     17  C   UNL     1      -7.694  -8.769   6.276  0.00  0.00    +0.067 A 
ATOM     19  C   UNL     1      -7.340  -8.484   4.957  0.00  0.00    +0.048 A 
ATOM     20  C   UNL     1      -8.985  -8.493   6.728  0.00  0.00    +0.028 A 
ATOM     21  C   UNL     1      -8.277  -7.926   4.089  0.00  0.00    +0.046 A 
ATOM     22  C   UNL     1      -9.923  -7.934   5.858  0.00  0.00    +0.007 A 
ATOM     23  C   UNL     1      -9.569  -7.650   4.539  0.00  0.00    -0.032 A 
ATOM     25  C   UNL     1     -10.602  -7.053   3.639  0.00  0.00    +0.045 C 
ENDBRANCH   4  17
ENDBRANCH   7  10
BRANCH   9   3
ATOM      2  O   UNL     1      -4.392 -12.282  14.250  0.00  0.00    -0.252 OA
ATOM      3  N   UNL     1      -3.705 -10.351  13.179  0.00  0.00    -0.293 N 
ATOM      6  N   UNL     1      -4.271 -10.243  15.407  0.00  0.00    -0.269 N 
ATOM     18  C   UNL     1      -4.151 -11.078  14.293  0.00  0.00    +0.304 C 
ATOM     31  H   UNL     1      -3.487  -9.368  13.314  0.00  0.00    +0.151 HD
ATOM     32  H   UNL     1      -4.032  -9.264  15.272  0.00  0.00    +0.156 HD
BRANCH   6  24
ATOM     24  C   UNL     1      -4.688 -10.592  16.712  0.00  0.00    +0.035 A 
ATOM     26  C   UNL     1      -5.933 -10.175  17.181  0.00  0.00    +0.023 A 
ATOM     27  C   UNL     1      -3.855 -11.357  17.531  0.00  0.00    +0.023 A 
ATOM     28  C   UNL     1      -6.345 -10.519  18.468  0.00  0.00    +0.002 A 
ATOM     29  C   UNL     1      -4.267 -11.701  18.818  0.00  0.00    +0.002 A 
ATOM     30  C   UNL     1      -5.513 -11.281  19.287  0.00  0.00    +0.000 A 
ENDBRANCH   6  24
ENDBRANCH   9   3
TORSDOF 4
ENDMDL
MODEL 2
REMARK VINA RESULT:      -7.4     20.917     22.366
REMARK  Name = 40780450
REMARK  7 active torsions:
REMARK  status: ('A' for Active; 'I' for Inactive)
REMARK    1  A    between atoms: N_3  and  C_9
REMARK    2  A    between atoms: N_4  and  C_17
REMARK    3  A    between atoms: N_6  and  C_24
REMARK    4  A    between atoms: C_7  and  C_10
REMARK    5  A    between atoms: C_13  and  C_15
REMARK    6  A    between atoms: C_14  and  C_16
REMARK    7  A    between atoms: C_23  and  C_25
REMARK                            x       y       z     vdW  Elec       q    Type
REMARK                         _______ _______ _______ _____ _____    ______ ____
ROOT
ATOM      7  C   UNL     1     -15.500   4.277  23.777  0.00  0.00    +0.047 C 
ATOM      8  C   UNL     1     -16.163   4.788  25.078  0.00  0.00    +0.039 C 
ATOM      9  C   UNL     1     -16.973   3.612  25.630  0.00  0.00    +0.098 C 
ATOM     11  C   UNL     1     -16.472   3.194  23.379  0.00  0.00    -0.021 C 
ATOM     12  C   UNL     1     -17.259   2.826  24.396  0.00  0.00    -0.009 C 
ENDROOT
BRANCH   7  10
ATOM      4  N   UNL     1     -14.256   6.608  21.230  0.00  0.00    -0.236 N 
ATOM      5  N   UNL     1     -15.540   7.005  21.203  0.00  0.00    -0.171 NA
ATOM     10  C   UNL     1     -15.214   5.320  22.711  0.00  0.00    +0.003 A 
ATOM     13  C   UNL     1     -14.008   5.602  22.117  0.00  0.00    +0.046 A 
ATOM     14  C   UNL     1     -16.120   6.214  22.111  0.00  0.00    +0.064 A 
ATOM     15  C   UNL     1     -12.670   5.007  22.315  0.00  0.00    +0.066 C 
ATOM     16  C   UNL     1     -17.564   6.350  22.372  0.00  0.00    +0.068 C 
BRANCH   4  17
ATOM      1 CL   UNL     1     -13.172   8.470  16.603  0.00  0.00    -0.083 Cl
ATOM     17  C   UNL     1     -13.324   7.224  20.394  0.00  0.00    +0.067 A 
ATOM     19  C   UNL     1     -13.657   7.512  19.070  0.00  0.00    +0.048 A 
ATOM     20  C   UNL     1     -12.059   7.552  20.883  0.00  0.00    +0.028 A 
ATOM     21  C   UNL     1     -12.725   8.127  18.234  0.00  0.00    +0.046 A 
ATOM     22  C   UNL     1     -11.127   8.168  20.047  0.00  0.00    +0.007 A 
ATOM     23  C   UNL     1     -11.460   8.456  18.723  0.00  0.00    -0.032 A 
ATOM     25  C   UNL     1     -10.434   9.118  17.861  0.00  0.00    +0.045 C 
ENDBRANCH   4  17
ENDBRANCH   7  10
BRANCH   9   3
ATOM      2  O   UNL     1     -16.437   4.210  28.379  0.00  0.00    -0.252 OA
ATOM      3  N   UNL     1     -16.224   2.805  26.554  0.00  0.00    -0.293 N 
ATOM      6  N   UNL     1     -15.247   2.193  28.545  0.00  0.00    -0.269 N 
ATOM     18  C   UNL     1     -16.004   3.169  27.891  0.00  0.00    +0.304 C 
ATOM     31  H   UNL     1     -15.869   1.905  26.245  0.00  0.00    +0.151 HD
ATOM     32  H   UNL     1     -14.965   1.387  27.994  0.00  0.00    +0.156 HD
BRANCH   6  24
ATOM     24  C   UNL     1     -14.816   2.188  29.892  0.00  0.00    +0.035 A 
ATOM     26  C   UNL     1     -13.934   3.168  30.346  0.00  0.00    +0.023 A 
ATOM     27  C   UNL     1     -15.275   1.203  30.768  0.00  0.00    +0.023 A 
ATOM     28  C   UNL     1     -13.509   3.164  31.674  0.00  0.00    +0.002 A 
ATOM     29  C   UNL     1     -14.850   1.199  32.096  0.00  0.00    +0.002 A 
ATOM     30  C   UNL     1     -13.966   2.179  32.550  0.00  0.00    +0.000 A 
ENDBRANCH   6  24
ENDBRANCH   9   3
TORSDOF 4
ENDMDL
MODEL 3
REMARK VINA RESULT:      -7.3      2.728      3.397
REMARK  Name = 40780450
REMARK  7 active torsions:
REMARK  status: ('A' for Active; 'I' for Inactive)
REMARK    1  A    between atoms: N_3  and  C_9
REMARK    2  A    between atoms: N_4  and  C_17
REMARK    3  A    between atoms: N_6  and  C_24
REMARK    4  A    between atoms: C_7  and  C_10
REMARK    5  A    between atoms: C_13  and  C_15
REMARK    6  A    between atoms: C_14  and  C_16
REMARK    7  A    between atoms: C_23  and  C_25
REMARK                            x       y       z     vdW  Elec       q    Type
REMARK                         _______ _______ _______ _____ _____    ______ ____
ROOT
ATOM      7  C   UNL     1      -4.108  -9.991  10.747  0.00  0.00    +0.047 C 
ATOM      8  C   UNL     1      -4.073 -11.281  11.602  0.00  0.00    +0.039 C 
ATOM      9  C   UNL     1      -2.846 -11.155  12.508  0.00  0.00    +0.098 C 
ATOM     11  C   UNL     1      -2.646  -9.621  10.747  0.00  0.00    -0.021 C 
ATOM     12  C   UNL     1      -1.968 -10.245  11.717  0.00  0.00    -0.009 C 
ENDROOT
BRANCH   7  10
ATOM      4  N   UNL     1      -5.400 -10.792   7.407  0.00  0.00    -0.236 N 
ATOM      5  N   UNL     1      -5.991  -9.591   7.529  0.00  0.00    -0.171 NA
ATOM     10  C   UNL     1      -4.752 -10.108   9.377  0.00  0.00    +0.003 A 
ATOM     13  C   UNL     1      -4.647 -11.148   8.487  0.00  0.00    +0.046 A 
ATOM     14  C   UNL     1      -5.591  -9.178   8.735  0.00  0.00    +0.064 A 
ATOM     15  C   UNL     1      -3.908 -12.425   8.575  0.00  0.00    +0.066 C 
ATOM     16  C   UNL     1      -6.044  -7.869   9.239  0.00  0.00    +0.068 C 
BRANCH   4  17
ATOM      1 CL   UNL     1      -3.461 -12.532   3.018  0.00  0.00    -0.083 Cl
ATOM     17  C   UNL     1      -5.592 -11.543   6.246  0.00  0.00    +0.067 A 
ATOM     19  C   UNL     1      -4.563 -11.658   5.311  0.00  0.00    +0.048 A 
ATOM     20  C   UNL     1      -6.814 -12.178   6.022  0.00  0.00    +0.028 A 
ATOM     21  C   UNL     1      -4.756 -12.409   4.152  0.00  0.00    +0.046 A 
ATOM     22  C   UNL     1      -7.006 -12.929   4.862  0.00  0.00    +0.007 A 
ATOM     23  C   UNL     1      -5.977 -13.045   3.927  0.00  0.00    -0.032 A 
ATOM     25  C   UNL     1      -6.223 -13.860   2.698  0.00  0.00    +0.045 C 
ENDBRANCH   4  17
ENDBRANCH   7  10
BRANCH   9   3
ATOM      2  O   UNL     1      -4.163 -12.400  14.725  0.00  0.00    -0.252 OA
ATOM      3  N   UNL     1      -3.150 -10.550  13.776  0.00  0.00    -0.293 N 
ATOM      6  N   UNL     1      -3.960 -10.392  15.924  0.00  0.00    -0.269 N 
ATOM     18  C   UNL     1      -3.801 -11.230  14.816  0.00  0.00    +0.304 C 
ATOM     31  H   UNL     1      -2.844  -9.598  13.953  0.00  0.00    +0.151 HD
ATOM     32  H   UNL     1      -3.602  -9.444  15.835  0.00  0.00    +0.156 HD
BRANCH   6  24
ATOM     24  C   UNL     1      -4.564 -10.699  17.165  0.00  0.00    +0.035 A 
ATOM     26  C   UNL     1      -5.835 -10.208  17.463  0.00  0.00    +0.023 A 
ATOM     27  C   UNL     1      -3.890 -11.496  18.091  0.00  0.00    +0.023 A 
ATOM     28  C   UNL     1      -6.431 -10.511  18.686  0.00  0.00    +0.002 A 
ATOM     29  C   UNL     1      -4.486 -11.799  19.315  0.00  0.00    +0.002 A 
ATOM     30  C   UNL     1      -5.758 -11.306  19.613  0.00  0.00    +0.000 A 
ENDBRANCH   6  24
ENDBRANCH   9   3
TORSDOF 4
ENDMDL
MODEL 4
REMARK VINA RESULT:      -7.1     21.902     25.720
REMARK  Name = 40780450
REMARK  7 active torsions:
REMARK  status: ('A' for Active; 'I' for Inactive)
REMARK    1  A    between atoms: N_3  and  C_9
REMARK    2  A    between atoms: N_4  and  C_17
REMARK    3  A    between atoms: N_6  and  C_24
REMARK    4  A    between atoms: C_7  and  C_10
REMARK    5  A    between atoms: C_13  and  C_15
REMARK    6  A    between atoms: C_14  and  C_16
REMARK    7  A    between atoms: C_23  and  C_25
REMARK                            x       y       z     vdW  Elec       q    Type
REMARK                         _______ _______ _______ _____ _____    ______ ____
ROOT
ATOM      7  C   UNL     1       7.438   5.378  -4.504  0.00  0.00    +0.047 C 
ATOM      8  C   UNL     1       5.962   5.737  -4.210  0.00  0.00    +0.039 C 
ATOM      9  C   UNL     1       5.329   6.069  -5.564  0.00  0.00    +0.098 C 
ATOM     11  C   UNL     1       7.662   6.152  -5.779  0.00  0.00    -0.021 C 
ATOM     12  C   UNL     1       6.511   6.511  -6.358  0.00  0.00    -0.009 C 
ENDROOT
BRANCH   7  10
ATOM      4  N   UNL     1      10.023   5.489  -1.902  0.00  0.00    -0.236 N 
ATOM      5  N   UNL     1       9.574   6.746  -1.742  0.00  0.00    -0.171 NA
ATOM     10  C   UNL     1       8.434   5.651  -3.391  0.00  0.00    +0.003 A 
ATOM     13  C   UNL     1       9.373   4.791  -2.877  0.00  0.00    +0.046 A 
ATOM     14  C   UNL     1       8.602   6.838  -2.655  0.00  0.00    +0.064 A 
ATOM     15  C   UNL     1       9.699   3.393  -3.228  0.00  0.00    +0.066 C 
ATOM     16  C   UNL     1       7.854   8.101  -2.790  0.00  0.00    +0.068 C 
BRANCH   4  17
ATOM      1 CL   UNL     1      11.464   3.434   2.542  0.00  0.00    -0.083 Cl
ATOM     17  C   UNL     1      11.065   5.020  -1.101  0.00  0.00    +0.067 A 
ATOM     19  C   UNL     1      10.795   4.518   0.173  0.00  0.00    +0.048 A 
ATOM     20  C   UNL     1      12.377   5.052  -1.575  0.00  0.00    +0.028 A 
ATOM     21  C   UNL     1      11.836   4.049   0.973  0.00  0.00    +0.046 A 
ATOM     22  C   UNL     1      13.418   4.582  -0.774  0.00  0.00    +0.007 A 
ATOM     23  C   UNL     1      13.148   4.080   0.500  0.00  0.00    -0.032 A 
ATOM     25  C   UNL     1      14.291   3.585   1.325  0.00  0.00    +0.045 C 
ENDBRANCH   4  17
ENDBRANCH   7  10
BRANCH   9   3
ATOM      2  O   UNL     1       2.978   4.683  -4.698  0.00  0.00    -0.252 OA
ATOM      3  N   UNL     1       4.726   4.925  -6.191  0.00  0.00    -0.293 N 
ATOM      6  N   UNL     1       3.217   3.218  -6.517  0.00  0.00    -0.269 N 
ATOM     18  C   UNL     1       3.569   4.300  -5.704  0.00  0.00    +0.304 C 
ATOM     31  H   UNL     1       5.126   4.570  -7.055  0.00  0.00    +0.151 HD
ATOM     32  H   UNL     1       3.818   3.033  -7.316  0.00  0.00    +0.156 HD
BRANCH   6  24
ATOM     24  C   UNL     1       2.120   2.339  -6.365  0.00  0.00    +0.035 A 
ATOM     26  C   UNL     1       2.101   1.424  -5.313  0.00  0.00    +0.023 A 
ATOM     27  C   UNL     1       1.056   2.388  -7.266  0.00  0.00    +0.023 A 
ATOM     28  C   UNL     1       1.020   0.556  -5.162  0.00  0.00    +0.002 A 
ATOM     29  C   UNL     1      -0.026   1.521  -7.115  0.00  0.00    +0.002 A 
ATOM     30  C   UNL     1      -0.044   0.604  -6.062  0.00  0.00    +0.000 A 
ENDBRANCH   6  24
ENDBRANCH   9   3
TORSDOF 4
ENDMDL
MODEL 5
REMARK VINA RESULT:      -7.1      5.907      8.197
REMARK  Name = 40780450
REMARK  7 active torsions:
REMARK  status: ('A' for Active; 'I' for Inactive)
REMARK    1  A    between atoms: N_3  and  C_9
REMARK    2  A    between atoms: N_4  and  C_17
REMARK    3  A    between atoms: N_6  and  C_24
REMARK    4  A    between atoms: C_7  and  C_10
REMARK    5  A    between atoms: C_13  and  C_15
REMARK    6  A    between atoms: C_14  and  C_16
REMARK    7  A    between atoms: C_23  and  C_25
REMARK                            x       y       z     vdW  Elec       q    Type
REMARK                         _______ _______ _______ _____ _____    ______ ____
ROOT
ATOM      7  C   UNL     1     -10.241  -6.242   8.502  0.00  0.00    +0.047 C 
ATOM      8  C   UNL     1     -10.035  -7.647   9.117  0.00  0.00    +0.039 C 
ATOM      9  C   UNL     1      -8.857  -8.270   8.364  0.00  0.00    +0.098 C 
ATOM     11  C   UNL     1      -9.677  -6.460   7.121  0.00  0.00    -0.021 C 
ATOM     12  C   UNL     1      -8.912  -7.555   7.056  0.00  0.00    -0.009 C 
ENDROOT
BRANCH   7  10
ATOM      4  N   UNL     1     -13.411  -4.432   8.880  0.00  0.00    -0.236 N 
ATOM      5  N   UNL     1     -13.914  -5.521   8.273  0.00  0.00    -0.171 NA
ATOM     10  C   UNL     1     -11.653  -5.685   8.550  0.00  0.00    +0.003 A 
ATOM     13  C   UNL     1     -12.061  -4.480   9.069  0.00  0.00    +0.046 A 
ATOM     14  C   UNL     1     -12.834  -6.283   8.075  0.00  0.00    +0.064 A 
ATOM     15  C   UNL     1     -11.293  -3.395   9.714  0.00  0.00    +0.066 C 
ATOM     16  C   UNL     1     -12.984  -7.592   7.416  0.00  0.00    +0.068 C 
BRANCH   4  17
ATOM      1 CL   UNL     1     -15.825  -0.141   7.534  0.00  0.00    -0.083 Cl
ATOM     17  C   UNL     1     -14.263  -3.391   9.250  0.00  0.00    +0.067 A 
ATOM     19  C   UNL     1     -14.589  -2.394   8.329  0.00  0.00    +0.048 A 
ATOM     20  C   UNL     1     -14.788  -3.346  10.541  0.00  0.00    +0.028 A 
ATOM     21  C   UNL     1     -15.441  -1.354   8.700  0.00  0.00    +0.046 A 
ATOM     22  C   UNL     1     -15.641  -2.306  10.912  0.00  0.00    +0.007 A 
ATOM     23  C   UNL     1     -15.967  -1.310   9.991  0.00  0.00    -0.032 A 
ATOM     25  C   UNL     1     -16.884  -0.213  10.427  0.00  0.00    +0.045 C 
ENDBRANCH   4  17
ENDBRANCH   7  10
BRANCH   9   3
ATOM      2  O   UNL     1      -7.150 -10.201   9.611  0.00  0.00    -0.252 OA
ATOM      3  N   UNL     1      -7.593  -8.016   9.000  0.00  0.00    -0.293 N 
ATOM      6  N   UNL     1      -5.641  -8.478  10.128  0.00  0.00    -0.269 N 
ATOM     18  C   UNL     1      -6.813  -9.020   9.591  0.00  0.00    +0.304 C 
ATOM     31  H   UNL     1      -7.217  -7.072   8.989  0.00  0.00    +0.151 HD
ATOM     32  H   UNL     1      -5.514  -7.475  10.027  0.00  0.00    +0.156 HD
BRANCH   6  24
ATOM     24  C   UNL     1      -4.601  -9.158  10.802  0.00  0.00    +0.035 A 
ATOM     26  C   UNL     1      -3.312  -9.163  10.270  0.00  0.00    +0.023 A 
ATOM     27  C   UNL     1      -4.863  -9.822  12.001  0.00  0.00    +0.023 A 
ATOM     28  C   UNL     1      -2.285  -9.833  10.935  0.00  0.00    +0.002 A 
ATOM     29  C   UNL     1      -3.836 -10.491  12.666  0.00  0.00    +0.002 A 
ATOM     30  C   UNL     1      -2.546 -10.498  12.132  0.00  0.00    +0.000 A 
ENDBRANCH   6  24
ENDBRANCH   9   3
TORSDOF 4
ENDMDL
MODEL 6
REMARK VINA RESULT:      -7.1     21.081     22.726
REMARK  Name = 40780450
REMARK  7 active torsions:
REMARK  status: ('A' for Active; 'I' for Inactive)
REMARK    1  A    between atoms: N_3  and  C_9
REMARK    2  A    between atoms: N_4  and  C_17
REMARK    3  A    between atoms: N_6  and  C_24
REMARK    4  A    between atoms: C_7  and  C_10
REMARK    5  A    between atoms: C_13  and  C_15
REMARK    6  A    between atoms: C_14  and  C_16
REMARK    7  A    between atoms: C_23  and  C_25
REMARK                            x       y       z     vdW  Elec       q    Type
REMARK                         _______ _______ _______ _____ _____    ______ ____
ROOT
ATOM      7  C   UNL     1     -12.500   8.589  21.130  0.00  0.00    +0.047 C 
ATOM      8  C   UNL     1     -13.876   7.939  20.852  0.00  0.00    +0.039 C 
ATOM      9  C   UNL     1     -13.697   6.441  21.113  0.00  0.00    +0.098 C 
ATOM     11  C   UNL     1     -11.584   7.422  20.858  0.00  0.00    -0.021 C 
ATOM     12  C   UNL     1     -12.238   6.255  20.866  0.00  0.00    -0.009 C 
ENDROOT
BRANCH   7  10
ATOM      4  N   UNL     1     -11.554  11.300  18.844  0.00  0.00    -0.236 N 
ATOM      5  N   UNL     1     -12.001  12.077  19.846  0.00  0.00    -0.171 NA
ATOM     10  C   UNL     1     -12.186   9.859  20.359  0.00  0.00    +0.003 A 
ATOM     13  C   UNL     1     -11.643   9.964  19.101  0.00  0.00    +0.046 A 
ATOM     14  C   UNL     1     -12.386  11.190  20.768  0.00  0.00    +0.064 A 
ATOM     15  C   UNL     1     -11.212   8.923  18.145  0.00  0.00    +0.066 C 
ATOM     16  C   UNL     1     -12.948  11.670  22.043  0.00  0.00    +0.068 C 
BRANCH   4  17
ATOM      1 CL   UNL     1      -7.541  13.223  16.346  0.00  0.00    -0.083 Cl
ATOM     17  C   UNL     1     -11.059  11.889  17.680  0.00  0.00    +0.067 A 
ATOM     19  C   UNL     1      -9.710  12.230  17.589  0.00  0.00    +0.048 A 
ATOM     20  C   UNL     1     -11.916  12.136  16.607  0.00  0.00    +0.028 A 
ATOM     21  C   UNL     1      -9.216  12.817  16.424  0.00  0.00    +0.046 A 
ATOM     22  C   UNL     1     -11.421  12.724  15.442  0.00  0.00    +0.007 A 
ATOM     23  C   UNL     1     -10.072  13.065  15.351  0.00  0.00    -0.032 A 
ATOM     25  C   UNL     1      -9.581  13.692  14.086  0.00  0.00    +0.045 C 
ENDBRANCH   4  17
ENDBRANCH   7  10
BRANCH   9   3
ATOM      2  O   UNL     1     -15.768   4.657  21.964  0.00  0.00    -0.252 OA
ATOM      3  N   UNL     1     -14.009   6.071  22.466  0.00  0.00    -0.293 N 
ATOM      6  N   UNL     1     -15.110   5.016  24.189  0.00  0.00    -0.269 N 
ATOM     18  C   UNL     1     -15.044   5.186  22.803  0.00  0.00    +0.304 C 
ATOM     31  H   UNL     1     -13.429   6.428  23.220  0.00  0.00    +0.151 HD
ATOM     32  H   UNL     1     -14.434   5.531  24.746  0.00  0.00    +0.156 HD
BRANCH   6  24
ATOM     24  C   UNL     1     -16.011   4.209  24.922  0.00  0.00    +0.035 A 
ATOM     26  C   UNL     1     -15.846   2.824  24.946  0.00  0.00    +0.023 A 
ATOM     27  C   UNL     1     -17.065   4.797  25.622  0.00  0.00    +0.023 A 
ATOM     28  C   UNL     1     -16.734   2.028  25.669  0.00  0.00    +0.002 A 
ATOM     29  C   UNL     1     -17.953   4.001  26.345  0.00  0.00    +0.002 A 
ATOM     30  C   UNL     1     -17.788   2.615  26.368  0.00  0.00    +0.000 A 
ENDBRANCH   6  24
ENDBRANCH   9   3
TORSDOF 4
ENDMDL
MODEL 7
REMARK VINA RESULT:      -7.0      3.924     10.757
REMARK  Name = 40780450
REMARK  7 active torsions:
REMARK  status: ('A' for Active; 'I' for Inactive)
REMARK    1  A    between atoms: N_3  and  C_9
REMARK    2  A    between atoms: N_4  and  C_17
REMARK    3  A    between atoms: N_6  and  C_24
REMARK    4  A    between atoms: C_7  and  C_10
REMARK    5  A    between atoms: C_13  and  C_15
REMARK    6  A    between atoms: C_14  and  C_16
REMARK    7  A    between atoms: C_23  and  C_25
REMARK                            x       y       z     vdW  Elec       q    Type
REMARK                         _______ _______ _______ _____ _____    ______ ____
ROOT
ATOM      7  C   UNL     1      -4.993 -10.218  11.087  0.00  0.00    +0.047 C 
ATOM      8  C   UNL     1      -4.195  -9.209  10.228  0.00  0.00    +0.039 C 
ATOM      9  C   UNL     1      -4.267  -9.726   8.790  0.00  0.00    +0.098 C 
ATOM     11  C   UNL     1      -4.852 -11.465  10.249  0.00  0.00    -0.021 C 
ATOM     12  C   UNL     1      -4.472 -11.189   8.996  0.00  0.00    -0.009 C 
ENDROOT
BRANCH   7  10
ATOM      4  N   UNL     1      -4.531 -10.513  14.716  0.00  0.00    -0.236 N 
ATOM      5  N   UNL     1      -3.233 -10.594  14.377  0.00  0.00    -0.171 NA
ATOM     10  C   UNL     1      -4.566 -10.355  12.538  0.00  0.00    +0.003 A 
ATOM     13  C   UNL     1      -5.371 -10.369  13.650  0.00  0.00    +0.046 A 
ATOM     14  C   UNL     1      -3.261 -10.497  13.044  0.00  0.00    +0.064 A 
ATOM     15  C   UNL     1      -6.839 -10.261  13.783  0.00  0.00    +0.066 C 
ATOM     16  C   UNL     1      -1.997 -10.548  12.289  0.00  0.00    +0.068 C 
BRANCH   4  17
ATOM      1 CL   UNL     1      -3.506 -12.268  19.397  0.00  0.00    -0.083 Cl
ATOM     17  C   UNL     1      -4.901 -10.578  16.059  0.00  0.00    +0.067 A 
ATOM     19  C   UNL     1      -4.123 -11.302  16.964  0.00  0.00    +0.048 A 
ATOM     20  C   UNL     1      -6.050  -9.919  16.498  0.00  0.00    +0.028 A 
ATOM     21  C   UNL     1      -4.493 -11.366  18.307  0.00  0.00    +0.046 A 
ATOM     22  C   UNL     1      -6.420  -9.984  17.842  0.00  0.00    +0.007 A 
ATOM     23  C   UNL     1      -5.642 -10.707  18.746  0.00  0.00    -0.032 A 
ATOM     25  C   UNL     1      -6.072 -10.750  20.177  0.00  0.00    +0.045 C 
ENDBRANCH   4  17
ENDBRANCH   7  10
BRANCH   9   3
ATOM      2  O   UNL     1      -5.199 -10.573   6.217  0.00  0.00    -0.252 OA
ATOM      3  N   UNL     1      -5.377  -9.182   8.057  0.00  0.00    -0.293 N 
ATOM      6  N   UNL     1      -6.878  -8.936   6.330  0.00  0.00    -0.269 N 
ATOM     18  C   UNL     1      -5.773  -9.653   6.796  0.00  0.00    +0.304 C 
ATOM     31  H   UNL     1      -5.935  -8.448   8.482  0.00  0.00    +0.151 HD
ATOM     32  H   UNL     1      -7.233  -8.200   6.935  0.00  0.00    +0.156 HD
BRANCH   6  24
ATOM     24  C   UNL     1      -7.571  -9.106   5.109  0.00  0.00    +0.035 A 
ATOM     26  C   UNL     1      -8.469 -10.162   4.958  0.00  0.00    +0.023 A 
ATOM     27  C   UNL     1      -7.358  -8.216   4.056  0.00  0.00    +0.023 A 
ATOM     28  C   UNL     1      -9.152 -10.330   3.754  0.00  0.00    +0.002 A 
ATOM     29  C   UNL     1      -8.041  -8.384   2.852  0.00  0.00    +0.002 A 
ATOM     30  C   UNL     1      -8.939  -9.442   2.700  0.00  0.00    +0.000 A 
ENDBRANCH   6  24
ENDBRANCH   9   3
TORSDOF 4
ENDMDL
MODEL 8
REMARK VINA RESULT:      -7.0      3.876      6.497
REMARK  Name = 40780450
REMARK  7 active torsions:
REMARK  status: ('A' for Active; 'I' for Inactive)
REMARK    1  A    between atoms: N_3  and  C_9
REMARK    2  A    between atoms: N_4  and  C_17
REMARK    3  A    between atoms: N_6  and  C_24
REMARK    4  A    between atoms: C_7  and  C_10
REMARK    5  A    between atoms: C_13  and  C_15
REMARK    6  A    between atoms: C_14  and  C_16
REMARK    7  A    between atoms: C_23  and  C_25
REMARK                            x       y       z     vdW  Elec       q    Type
REMARK                         _______ _______ _______ _____ _____    ______ ____
ROOT
ATOM      7  C   UNL     1      -4.906 -10.449  15.531  0.00  0.00    +0.047 C 
ATOM      8  C   UNL     1      -5.893 -11.565  15.950  0.00  0.00    +0.039 C 
ATOM      9  C   UNL     1      -5.811 -11.652  17.476  0.00  0.00    +0.098 C 
ATOM     11  C   UNL     1      -3.933 -10.495  16.683  0.00  0.00    -0.021 C 
ATOM     12  C   UNL     1      -4.437 -11.136  17.743  0.00  0.00    -0.009 C 
ENDROOT
BRANCH   7  10
ATOM      4  N   UNL     1      -3.967 -10.786  12.000  0.00  0.00    -0.236 N 
ATOM      5  N   UNL     1      -2.720 -10.718  12.497  0.00  0.00    -0.171 NA
ATOM     10  C   UNL     1      -4.290 -10.578  14.150  0.00  0.00    +0.003 A 
ATOM     13  C   UNL     1      -4.943 -10.707  12.949  0.00  0.00    +0.046 A 
ATOM     14  C   UNL     1      -2.924 -10.591  13.811  0.00  0.00    +0.064 A 
ATOM     15  C   UNL     1      -6.386 -10.759  12.635  0.00  0.00    +0.066 C 
ATOM     16  C   UNL     1      -1.766 -10.482  14.716  0.00  0.00    +0.068 C 
BRANCH   4  17
ATOM      1 CL   UNL     1      -4.155 -13.899   7.960  0.00  0.00    -0.083 Cl
ATOM     17  C   UNL     1      -4.157 -10.926  10.625  0.00  0.00    +0.067 A 
ATOM     19  C   UNL     1      -4.073 -12.186  10.032  0.00  0.00    +0.048 A 
ATOM     20  C   UNL     1      -4.432  -9.804   9.842  0.00  0.00    +0.028 A 
ATOM     21  C   UNL     1      -4.264 -12.325   8.658  0.00  0.00    +0.046 A 
ATOM     22  C   UNL     1      -4.623  -9.943   8.467  0.00  0.00    +0.007 A 
ATOM     23  C   UNL     1      -4.538 -11.203   7.875  0.00  0.00    -0.032 A 
ATOM     25  C   UNL     1      -4.751 -11.310   6.399  0.00  0.00    +0.045 C 
ENDBRANCH   4  17
ENDBRANCH   7  10
BRANCH   9   3
ATOM      2  O   UNL     1      -8.653 -11.998  17.483  0.00  0.00    -0.252 OA
ATOM      3  N   UNL     1      -6.777 -10.814  18.134  0.00  0.00    -0.293 N 
ATOM      6  N   UNL     1      -8.846 -10.077  18.818  0.00  0.00    -0.269 N 
ATOM     18  C   UNL     1      -8.158 -11.051  18.090  0.00  0.00    +0.304 C 
ATOM     31  H   UNL     1      -6.450 -10.034  18.696  0.00  0.00    +0.151 HD
ATOM     32  H   UNL     1      -8.283  -9.356  19.262  0.00  0.00    +0.156 HD
BRANCH   6  24
ATOM     24  C   UNL     1     -10.242  -9.965  19.016  0.00  0.00    +0.035 A 
ATOM     26  C   UNL     1     -10.806 -10.339  20.235  0.00  0.00    +0.023 A 
ATOM     27  C   UNL     1     -11.055  -9.478  17.991  0.00  0.00    +0.023 A 
ATOM     28  C   UNL     1     -12.182 -10.229  20.430  0.00  0.00    +0.002 A 
ATOM     29  C   UNL     1     -12.432  -9.368  18.187  0.00  0.00    +0.002 A 
ATOM     30  C   UNL     1     -12.996  -9.744  19.407  0.00  0.00    +0.000 A 
ENDBRANCH   6  24
ENDBRANCH   9   3
TORSDOF 4
ENDMDL
MODEL 9
REMARK VINA RESULT:      -6.9     23.708     27.986
REMARK  Name = 40780450
REMARK  7 active torsions:
REMARK  status: ('A' for Active; 'I' for Inactive)
REMARK    1  A    between atoms: N_3  and  C_9
REMARK    2  A    between atoms: N_4  and  C_17
REMARK    3  A    between atoms: N_6  and  C_24
REMARK    4  A    between atoms: C_7  and  C_10
REMARK    5  A    between atoms: C_13  and  C_15
REMARK    6  A    between atoms: C_14  and  C_16
REMARK    7  A    between atoms: C_23  and  C_25
REMARK                            x       y       z     vdW  Elec       q    Type
REMARK                         _______ _______ _______ _____ _____    ______ ____
ROOT
ATOM      7  C   UNL     1     -15.099   4.441  32.921  0.00  0.00    +0.047 C 
ATOM      8  C   UNL     1     -14.014   5.504  32.629  0.00  0.00    +0.039 C 
ATOM      9  C   UNL     1     -14.402   6.741  33.442  0.00  0.00    +0.098 C 
ATOM     11  C   UNL     1     -16.265   5.329  33.277  0.00  0.00    -0.021 C 
ATOM     12  C   UNL     1     -15.878   6.574  33.575  0.00  0.00    -0.009 C 
ENDROOT
BRANCH   7  10
ATOM      4  N   UNL     1     -15.916   2.446  29.951  0.00  0.00    -0.236 N 
ATOM      5  N   UNL     1     -15.483   1.430  30.719  0.00  0.00    -0.171 NA
ATOM     10  C   UNL     1     -15.362   3.426  31.823  0.00  0.00    +0.003 A 
ATOM     13  C   UNL     1     -15.864   3.662  30.566  0.00  0.00    +0.046 A 
ATOM     14  C   UNL     1     -15.146   2.037  31.861  0.00  0.00    +0.064 A 
ATOM     15  C   UNL     1     -16.288   4.919  29.915  0.00  0.00    +0.066 C 
ATOM     16  C   UNL     1     -14.612   1.234  32.975  0.00  0.00    +0.068 C 
BRANCH   4  17
ATOM      1 CL   UNL     1     -15.628   3.579  24.984  0.00  0.00    -0.083 Cl
ATOM     17  C   UNL     1     -16.363   2.191  28.654  0.00  0.00    +0.067 A 
ATOM     19  C   UNL     1     -15.845   2.918  27.582  0.00  0.00    +0.048 A 
ATOM     20  C   UNL     1     -17.328   1.208  28.431  0.00  0.00    +0.028 A 
ATOM     21  C   UNL     1     -16.292   2.662  26.286  0.00  0.00    +0.046 A 
ATOM     22  C   UNL     1     -17.774   0.953  27.134  0.00  0.00    +0.007 A 
ATOM     23  C   UNL     1     -17.257   1.680  26.061  0.00  0.00    -0.032 A 
ATOM     25  C   UNL     1     -17.761   1.375  24.688  0.00  0.00    +0.045 C 
ENDBRANCH   4  17
ENDBRANCH   7  10
BRANCH   9   3
ATOM      2  O   UNL     1     -12.422   8.583  34.385  0.00  0.00    -0.252 OA
ATOM      3  N   UNL     1     -13.800   6.761  34.747  0.00  0.00    -0.293 N 
ATOM      6  N   UNL     1     -12.431   7.474  36.455  0.00  0.00    -0.269 N 
ATOM     18  C   UNL     1     -12.832   7.700  35.135  0.00  0.00    +0.304 C 
ATOM     31  H   UNL     1     -14.114   6.092  35.445  0.00  0.00    +0.151 HD
ATOM     32  H   UNL     1     -12.870   6.695  36.938  0.00  0.00    +0.156 HD
BRANCH   6  24
ATOM     24  C   UNL     1     -11.480   8.199  37.209  0.00  0.00    +0.035 A 
ATOM     26  C   UNL     1     -11.865   9.351  37.894  0.00  0.00    +0.023 A 
ATOM     27  C   UNL     1     -10.156   7.762  37.269  0.00  0.00    +0.023 A 
ATOM     28  C   UNL     1     -10.928  10.067  38.638  0.00  0.00    +0.002 A 
ATOM     29  C   UNL     1      -9.219   8.478  38.013  0.00  0.00    +0.002 A 
ATOM     30  C   UNL     1      -9.605   9.632  38.698  0.00  0.00    +0.000 A 
ENDBRANCH   6  24
ENDBRANCH   9   3
TORSDOF 4
ENDMDL
MODEL 10
REMARK VINA RESULT:      -6.7     26.920     31.548
REMARK  Name = 40780450
REMARK  7 active torsions:
REMARK  status: ('A' for Active; 'I' for Inactive)
REMARK    1  A    between atoms: N_3  and  C_9
REMARK    2  A    between atoms: N_4  and  C_17
REMARK    3  A    between atoms: N_6  and  C_24
REMARK    4  A    between atoms: C_7  and  C_10
REMARK    5  A    between atoms: C_13  and  C_15
REMARK    6  A    between atoms: C_14  and  C_16
REMARK    7  A    between atoms: C_23  and  C_25
REMARK                            x       y       z     vdW  Elec       q    Type
REMARK                         _______ _______ _______ _____ _____    ______ ____
ROOT
ATOM      7  C   UNL     1     -12.883   8.067  36.044  0.00  0.00    +0.047 C 
ATOM      8  C   UNL     1     -11.395   8.201  36.446  0.00  0.00    +0.039 C 
ATOM      9  C   UNL     1     -11.316   9.415  37.376  0.00  0.00    +0.098 C 
ATOM     11  C   UNL     1     -13.341   9.495  36.199  0.00  0.00    -0.021 C 
ATOM     12  C   UNL     1     -12.493  10.219  36.938  0.00  0.00    -0.009 C 
ENDROOT
BRANCH   7  10
ATOM      4  N   UNL     1     -13.769   6.088  33.083  0.00  0.00    -0.236 N 
ATOM      5  N   UNL     1     -13.271   7.151  32.428  0.00  0.00    -0.171 NA
ATOM     10  C   UNL     1     -13.162   7.434  34.692  0.00  0.00    +0.003 A 
ATOM     13  C   UNL     1     -13.726   6.207  34.441  0.00  0.00    +0.046 A 
ATOM     14  C   UNL     1     -12.902   7.970  33.418  0.00  0.00    +0.064 A 
ATOM     15  C   UNL     1     -14.220   5.163  35.363  0.00  0.00    +0.066 C 
ATOM     16  C   UNL     1     -12.298   9.274  33.090  0.00  0.00    +0.068 C 
BRANCH   4  17
ATOM      1 CL   UNL     1     -17.713   3.963  30.638  0.00  0.00    -0.083 Cl
ATOM     17  C   UNL     1     -14.264   5.001  32.362  0.00  0.00    +0.067 A 
ATOM     19  C   UNL     1     -15.583   5.007  31.907  0.00  0.00    +0.048 A 
ATOM     20  C   UNL     1     -13.439   3.908  32.095  0.00  0.00    +0.028 A 
ATOM     21  C   UNL     1     -16.077   3.921  31.186  0.00  0.00    +0.046 A 
ATOM     22  C   UNL     1     -13.934   2.821  31.373  0.00  0.00    +0.007 A 
ATOM     23  C   UNL     1     -15.253   2.827  30.919  0.00  0.00    -0.032 A 
ATOM     25  C   UNL     1     -15.744   1.644  30.148  0.00  0.00    +0.045 C 
ENDBRANCH   4  17
ENDBRANCH   7  10
BRANCH   9   3
ATOM      2  O   UNL     1      -9.269   8.417  39.112  0.00  0.00    -0.252 OA
ATOM      3  N   UNL     1     -11.462   9.064  38.763  0.00  0.00    -0.293 N 
ATOM      6  N   UNL     1     -10.843   8.325  40.852  0.00  0.00    -0.269 N 
ATOM     18  C   UNL     1     -10.406   8.579  39.549  0.00  0.00    +0.304 C 
ATOM     31  H   UNL     1     -12.359   9.210  39.216  0.00  0.00    +0.151 HD
ATOM     32  H   UNL     1     -11.822   8.513  41.051  0.00  0.00    +0.156 HD
BRANCH   6  24
ATOM     24  C   UNL     1     -10.086   7.832  41.940  0.00  0.00    +0.035 A 
ATOM     26  C   UNL     1      -9.290   8.700  42.686  0.00  0.00    +0.023 A 
ATOM     27  C   UNL     1     -10.137   6.477  42.269  0.00  0.00    +0.023 A 
ATOM     28  C   UNL     1      -8.543   8.215  43.759  0.00  0.00    +0.002 A 
ATOM     29  C   UNL     1      -9.391   5.991  43.342  0.00  0.00    +0.002 A 
ATOM     30  C   UNL     1      -8.593   6.860  44.088  0.00  0.00    +0.000 A 
ENDBRANCH   6  24
ENDBRANCH   9   3
TORSDOF 4
ENDMDL
