REMARK  Name = 75536653
REMARK  9 active torsions:
REMARK  status: ('A' for Active; 'I' for Inactive)
REMARK    1  A    between atoms: S_1  and  N_7
REMARK    2  A    between atoms: S_1  and  C_16
REMARK    3  A    between atoms: O_3  and  C_9
REMARK    4  A    between atoms: N_6  and  C_8
REMARK    5  A    between atoms: N_6  and  C_13
REMARK    6  A    between atoms: N_7  and  C_12
REMARK    7  A    between atoms: C_10  and  C_12
REMARK    8  A    between atoms: C_13  and  C_14
REMARK    9  A    between atoms: C_13  and  C_15
REMARK                            x       y       z     vdW  Elec       q    Type
REMARK                         _______ _______ _______ _____ _____    ______ ____
ROOT
ATOM      2  O   UNL     1       0.119   0.954   0.672  0.00  0.00    -0.371 OA
ATOM      8  C   UNL     1      -1.969  -0.084   0.219  0.00  0.00    +0.111 C 
ATOM      9  C   UNL     1      -0.853  -0.965  -0.311  0.00  0.00    +0.164 C 
ATOM     10  C   UNL     1       0.332  -0.457   0.499  0.00  0.00    +0.164 C 
ATOM     11  C   UNL     1      -1.255   1.250   0.366  0.00  0.00    +0.181 C 
ENDROOT
BRANCH   9   3
ATOM      3  O   UNL     1      -1.093  -2.341  -0.089  0.00  0.00    -0.388 OA
ATOM     18  H   UNL     1      -1.232  -2.478   0.864  0.00  0.00    +0.210 HD
ENDBRANCH   9   3
BRANCH   8   6
ATOM      6  N   UNL     1      -3.125  -0.013  -0.660  0.00  0.00    -0.307 NA
ATOM     17  H   UNL     1      -3.354  -0.942  -1.014  0.00  0.00    +0.123 HD
BRANCH   6  13
ATOM     13  C   UNL     1      -4.277   0.554   0.030  0.00  0.00    +0.048 C 
ATOM     14  C   UNL     1      -5.263   1.105  -0.995  0.00  0.00    +0.023 C 
ATOM     15  C   UNL     1      -4.936  -0.501   0.914  0.00  0.00    +0.023 C 
ENDBRANCH   6  13
ENDBRANCH   8   6
BRANCH  10  12
ATOM     12  C   UNL     1       1.669  -0.696  -0.179  0.00  0.00    +0.139 C 
BRANCH  12   7
ATOM      7  N   UNL     1       2.756  -0.174   0.673  0.00  0.00    -0.192 NA
ATOM     19  H   UNL     1       2.868  -0.692   1.554  0.00  0.00    +0.148 HD
BRANCH   7   1
ATOM      1  S   UNL     1       4.192   0.383  -0.062  0.00  0.00    +0.027 S 
ATOM      4  O   UNL     1       5.222   0.559   0.943  0.00  0.00    -0.158 OA
ATOM      5  O   UNL     1       3.854   1.458  -0.974  0.00  0.00    -0.158 OA
ATOM     16  C   UNL     1       4.625  -1.032  -1.047  0.00  0.00    +0.214 C 
ENDBRANCH   7   1
ENDBRANCH  12   7
ENDBRANCH  10  12
TORSDOF 6
