MODEL 1
REMARK VINA RESULT:      -7.2      0.000      0.000
REMARK  Name = 7674758
REMARK  6 active torsions:
REMARK  status: ('A' for Active; 'I' for Inactive)
REMARK    1  A    between atoms: O_5  and  C_23
REMARK    2  A    between atoms: O_6  and  C_32
REMARK    3  A    between atoms: O_6  and  C_33
REMARK    4  A    between atoms: N_7  and  C_16
REMARK    5  A    between atoms: C_16  and  C_21
REMARK    6  A    between atoms: C_19  and  C_22
REMARK                            x       y       z     vdW  Elec       q    Type
REMARK                         _______ _______ _______ _____ _____    ______ ____
ROOT
ATOM      4  O   UNL     1      -6.400 -11.948  11.251  0.00  0.00    -0.267 OA
ATOM      7  N   UNL     1      -3.178 -11.108  15.001  0.00  0.00    -0.297 NA
ATOM      8  N   UNL     1      -4.220 -11.726  12.051  0.00  0.00    -0.311 N 
ATOM      9  C   UNL     1      -3.220 -13.309  13.801  0.00  0.00    +0.024 C 
ATOM     10  C   UNL     1      -1.866 -11.475  12.907  0.00  0.00    +0.050 C 
ATOM     11  C   UNL     1      -1.897 -12.985  13.121  0.00  0.00    +0.017 C 
ATOM     12  C   UNL     1      -3.319 -12.562  15.147  0.00  0.00    +0.090 C 
ATOM     13  C   UNL     1      -1.950 -10.758  14.273  0.00  0.00    +0.094 C 
ATOM     14  C   UNL     1      -4.367 -12.954  12.845  0.00  0.00    +0.130 C 
ATOM     15  C   UNL     1      -3.007 -11.035  12.007  0.00  0.00    +0.026 A 
ATOM     17  C   UNL     1      -2.861  -9.981  11.190  0.00  0.00    +0.022 A 
ATOM     18  C   UNL     1      -5.325 -11.344  11.264  0.00  0.00    +0.259 A 
ATOM     19  C   UNL     1      -5.143 -10.138  10.383  0.00  0.00    +0.047 A 
ATOM     20  C   UNL     1      -3.949  -9.525  10.372  0.00  0.00    +0.015 A 
ENDROOT
BRANCH  19  22
ATOM     22  C   UNL     1      -6.246  -9.625   9.552  0.00  0.00    -0.012 A 
ATOM     25  C   UNL     1      -6.206  -9.776   8.166  0.00  0.00    +0.012 A 
ATOM     26  C   UNL     1      -7.333  -8.986  10.152  0.00  0.00    +0.012 A 
ATOM     30  C   UNL     1      -7.251  -9.289   7.380  0.00  0.00    +0.046 A 
ATOM     31  C   UNL     1      -8.377  -8.500   9.366  0.00  0.00    +0.046 A 
ATOM     32  C   UNL     1      -8.336  -8.651   7.980  0.00  0.00    +0.130 A 
BRANCH  32   6
ATOM      6  O   UNL     1      -9.355  -8.177   7.212  0.00  0.00    -0.406 OA
BRANCH   6  33
ATOM      1  F   UNL     1      -8.840  -7.007   5.353  0.00  0.00    -0.133 F 
ATOM      2  F   UNL     1     -10.400  -6.219   6.663  0.00  0.00    -0.133 F 
ATOM      3  F   UNL     1      -8.280  -6.159   7.287  0.00  0.00    -0.133 F 
ATOM     33  C   UNL     1      -9.223  -6.880   6.643  0.00  0.00    +0.575 C 
ENDBRANCH   6  33
ENDBRANCH  32   6
ENDBRANCH  19  22
BRANCH   7  16
ATOM     16  C   UNL     1      -3.225 -10.443  16.301  0.00  0.00    +0.123 C 
BRANCH  16  21
ATOM     21  C   UNL     1      -4.628 -10.399  16.837  0.00  0.00    +0.008 A 
ATOM     23  C   UNL     1      -5.662  -9.894  16.060  0.00  0.00    +0.121 A 
ATOM     24  C   UNL     1      -4.871 -10.873  18.122  0.00  0.00    +0.008 A 
ATOM     27  C   UNL     1      -6.959  -9.861  16.574  0.00  0.00    +0.046 A 
ATOM     28  C   UNL     1      -6.167 -10.840  18.635  0.00  0.00    +0.001 A 
ATOM     29  C   UNL     1      -7.211 -10.334  17.861  0.00  0.00    +0.004 A 
BRANCH  23   5
ATOM      5  O   UNL     1      -5.434  -9.428  14.800  0.00  0.00    -0.506 OA
ATOM     34  H   UNL     1      -5.416  -8.456  14.819  0.00  0.00    +0.292 HD
ENDBRANCH  23   5
ENDBRANCH  16  21
ENDBRANCH   7  16
TORSDOF 6
ENDMDL
MODEL 2
REMARK VINA RESULT:      -7.1     23.830     25.759
REMARK  Name = 7674758
REMARK  6 active torsions:
REMARK  status: ('A' for Active; 'I' for Inactive)
REMARK    1  A    between atoms: O_5  and  C_23
REMARK    2  A    between atoms: O_6  and  C_32
REMARK    3  A    between atoms: O_6  and  C_33
REMARK    4  A    between atoms: N_7  and  C_16
REMARK    5  A    between atoms: C_16  and  C_21
REMARK    6  A    between atoms: C_19  and  C_22
REMARK                            x       y       z     vdW  Elec       q    Type
REMARK                         _______ _______ _______ _____ _____    ______ ____
ROOT
ATOM      4  O   UNL     1      10.094   7.370   1.953  0.00  0.00    -0.267 OA
ATOM      7  N   UNL     1      10.999   8.128   6.828  0.00  0.00    -0.297 NA
ATOM      8  N   UNL     1       9.682   6.892   4.199  0.00  0.00    -0.311 N 
ATOM      9  C   UNL     1       8.752   8.630   5.836  0.00  0.00    +0.024 C 
ATOM     10  C   UNL     1       9.243   6.363   6.620  0.00  0.00    +0.050 C 
ATOM     11  C   UNL     1       8.149   7.423   6.543  0.00  0.00    +0.017 C 
ATOM     12  C   UNL     1       9.967   9.153   6.629  0.00  0.00    +0.090 C 
ATOM     13  C   UNL     1      10.438   6.911   7.433  0.00  0.00    +0.094 C 
ATOM     14  C   UNL     1       9.112   8.232   4.399  0.00  0.00    +0.130 C 
ATOM     15  C   UNL     1       9.693   5.950   5.230  0.00  0.00    +0.026 A 
ATOM     17  C   UNL     1      10.115   4.698   4.996  0.00  0.00    +0.022 A 
ATOM     18  C   UNL     1      10.119   6.577   2.897  0.00  0.00    +0.259 A 
ATOM     19  C   UNL     1      10.619   5.176   2.672  0.00  0.00    +0.047 A 
ATOM     20  C   UNL     1      10.590   4.311   3.698  0.00  0.00    +0.015 A 
ENDROOT
BRANCH  19  22
ATOM     22  C   UNL     1      11.141   4.752   1.361  0.00  0.00    -0.012 A 
ATOM     25  C   UNL     1      12.449   4.281   1.248  0.00  0.00    +0.012 A 
ATOM     26  C   UNL     1      10.325   4.822   0.230  0.00  0.00    +0.012 A 
ATOM     30  C   UNL     1      12.942   3.880   0.006  0.00  0.00    +0.046 A 
ATOM     31  C   UNL     1      10.819   4.421  -1.011  0.00  0.00    +0.046 A 
ATOM     32  C   UNL     1      12.127   3.951  -1.124  0.00  0.00    +0.130 A 
BRANCH  32   6
ATOM      6  O   UNL     1      12.608   3.560  -2.335  0.00  0.00    -0.406 OA
BRANCH   6  33
ATOM      1  F   UNL     1      12.887   2.014  -3.956  0.00  0.00    -0.133 F 
ATOM      2  F   UNL     1      12.172   1.340  -2.005  0.00  0.00    -0.133 F 
ATOM      3  F   UNL     1      10.848   2.501  -3.341  0.00  0.00    -0.133 F 
ATOM     33  C   UNL     1      12.115   2.350  -2.899  0.00  0.00    +0.575 C 
ENDBRANCH   6  33
ENDBRANCH  32   6
ENDBRANCH  19  22
BRANCH   7  16
ATOM     16  C   UNL     1      12.108   8.646   7.625  0.00  0.00    +0.123 C 
BRANCH  16  21
ATOM     21  C   UNL     1      13.387   8.651   6.836  0.00  0.00    +0.008 A 
ATOM     23  C   UNL     1      14.064   7.464   6.587  0.00  0.00    +0.121 A 
ATOM     24  C   UNL     1      13.878   9.862   6.362  0.00  0.00    +0.008 A 
ATOM     27  C   UNL     1      15.250   7.487   5.853  0.00  0.00    +0.046 A 
ATOM     28  C   UNL     1      15.064   9.885   5.628  0.00  0.00    +0.001 A 
ATOM     29  C   UNL     1      15.750   8.697   5.373  0.00  0.00    +0.004 A 
BRANCH  23   5
ATOM      5  O   UNL     1      13.590   6.272   7.048  0.00  0.00    -0.506 OA
ATOM     34  H   UNL     1      14.291   5.603   6.978  0.00  0.00    +0.292 HD
ENDBRANCH  23   5
ENDBRANCH  16  21
ENDBRANCH   7  16
TORSDOF 6
ENDMDL
MODEL 3
REMARK VINA RESULT:      -6.8      5.218      8.348
REMARK  Name = 7674758
REMARK  6 active torsions:
REMARK  status: ('A' for Active; 'I' for Inactive)
REMARK    1  A    between atoms: O_5  and  C_23
REMARK    2  A    between atoms: O_6  and  C_32
REMARK    3  A    between atoms: O_6  and  C_33
REMARK    4  A    between atoms: N_7  and  C_16
REMARK    5  A    between atoms: C_16  and  C_21
REMARK    6  A    between atoms: C_19  and  C_22
REMARK                            x       y       z     vdW  Elec       q    Type
REMARK                         _______ _______ _______ _____ _____    ______ ____
ROOT
ATOM      4  O   UNL     1      -6.654 -10.608  14.493  0.00  0.00    -0.267 OA
ATOM      7  N   UNL     1      -2.818 -13.030  12.354  0.00  0.00    -0.297 NA
ATOM      8  N   UNL     1      -4.388 -10.766  13.961  0.00  0.00    -0.311 N 
ATOM      9  C   UNL     1      -3.530 -10.767  11.546  0.00  0.00    +0.024 C 
ATOM     10  C   UNL     1      -1.940 -10.938  13.400  0.00  0.00    +0.050 C 
ATOM     11  C   UNL     1      -2.280 -10.137  12.147  0.00  0.00    +0.017 C 
ATOM     12  C   UNL     1      -3.261 -12.245  11.196  0.00  0.00    +0.090 C 
ATOM     13  C   UNL     1      -1.660 -12.409  13.014  0.00  0.00    +0.094 C 
ATOM     14  C   UNL     1      -4.692 -10.596  12.533  0.00  0.00    +0.130 C 
ATOM     15  C   UNL     1      -3.069 -10.862  14.412  0.00  0.00    +0.026 A 
ATOM     17  C   UNL     1      -2.808 -10.904  15.727  0.00  0.00    +0.022 A 
ATOM     18  C   UNL     1      -5.479 -10.725  14.851  0.00  0.00    +0.259 A 
ATOM     19  C   UNL     1      -5.158 -10.809  16.319  0.00  0.00    +0.047 A 
ATOM     20  C   UNL     1      -3.871 -10.883  16.691  0.00  0.00    +0.015 A 
ENDROOT
BRANCH  19  22
ATOM     22  C   UNL     1      -6.225 -10.819  17.334  0.00  0.00    -0.012 A 
ATOM     25  C   UNL     1      -7.229  -9.852  17.303  0.00  0.00    +0.012 A 
ATOM     26  C   UNL     1      -6.231 -11.797  18.331  0.00  0.00    +0.012 A 
ATOM     30  C   UNL     1      -8.239  -9.861  18.266  0.00  0.00    +0.046 A 
ATOM     31  C   UNL     1      -7.240 -11.806  19.293  0.00  0.00    +0.046 A 
ATOM     32  C   UNL     1      -8.244 -10.839  19.262  0.00  0.00    +0.130 A 
BRANCH  32   6
ATOM      6  O   UNL     1      -9.229 -10.848  20.201  0.00  0.00    -0.406 OA
BRANCH   6  33
ATOM      1  F   UNL     1     -11.424 -11.251  20.535  0.00  0.00    -0.133 F 
ATOM      2  F   UNL     1     -10.476 -12.125  18.772  0.00  0.00    -0.133 F 
ATOM      3  F   UNL     1     -10.024 -12.911  20.788  0.00  0.00    -0.133 F 
ATOM     33  C   UNL     1     -10.280 -11.797  20.067  0.00  0.00    +0.575 C 
ENDBRANCH   6  33
ENDBRANCH  32   6
ENDBRANCH  19  22
BRANCH   7  16
ATOM     16  C   UNL     1      -2.524 -14.409  11.972  0.00  0.00    +0.123 C 
BRANCH  16  21
ATOM     21  C   UNL     1      -2.255 -15.262  13.181  0.00  0.00    +0.008 A 
ATOM     23  C   UNL     1      -1.023 -15.880  13.344  0.00  0.00    +0.121 A 
ATOM     24  C   UNL     1      -3.259 -15.417  14.129  0.00  0.00    +0.008 A 
ATOM     27  C   UNL     1      -0.790 -16.667  14.472  0.00  0.00    +0.046 A 
ATOM     28  C   UNL     1      -3.027 -16.204  15.257  0.00  0.00    +0.001 A 
ATOM     29  C   UNL     1      -1.792 -16.829  15.429  0.00  0.00    +0.004 A 
BRANCH  23   5
ATOM      5  O   UNL     1      -0.032 -15.734  12.420  0.00  0.00    -0.506 OA
ATOM     34  H   UNL     1       0.263 -16.613  12.127  0.00  0.00    +0.292 HD
ENDBRANCH  23   5
ENDBRANCH  16  21
ENDBRANCH   7  16
TORSDOF 6
ENDMDL
MODEL 4
REMARK VINA RESULT:      -6.6     19.877     22.567
REMARK  Name = 7674758
REMARK  6 active torsions:
REMARK  status: ('A' for Active; 'I' for Inactive)
REMARK    1  A    between atoms: O_5  and  C_23
REMARK    2  A    between atoms: O_6  and  C_32
REMARK    3  A    between atoms: O_6  and  C_33
REMARK    4  A    between atoms: N_7  and  C_16
REMARK    5  A    between atoms: C_16  and  C_21
REMARK    6  A    between atoms: C_19  and  C_22
REMARK                            x       y       z     vdW  Elec       q    Type
REMARK                         _______ _______ _______ _____ _____    ______ ____
ROOT
ATOM      4  O   UNL     1     -14.296   9.713  19.910  0.00  0.00    -0.267 OA
ATOM      7  N   UNL     1     -11.663  11.160  15.894  0.00  0.00    -0.297 NA
ATOM      8  N   UNL     1     -12.303  10.433  18.933  0.00  0.00    -0.311 N 
ATOM      9  C   UNL     1     -12.062  12.725  17.811  0.00  0.00    +0.024 C 
ATOM     10  C   UNL     1     -10.148  11.198  17.880  0.00  0.00    +0.050 C 
ATOM     11  C   UNL     1     -10.603  12.611  18.232  0.00  0.00    +0.017 C 
ATOM     12  C   UNL     1     -12.196  12.467  16.296  0.00  0.00    +0.090 C 
ATOM     13  C   UNL     1     -10.279  10.978  16.356  0.00  0.00    +0.094 C 
ATOM     14  C   UNL     1     -12.896  11.749  18.651  0.00  0.00    +0.130 C 
ATOM     15  C   UNL     1     -10.965  10.166  18.637  0.00  0.00    +0.026 A 
ATOM     17  C   UNL     1     -10.414   8.999  19.003  0.00  0.00    +0.022 A 
ATOM     18  C   UNL     1     -13.120   9.501  19.602  0.00  0.00    +0.259 A 
ATOM     19  C   UNL     1     -12.485   8.187  19.970  0.00  0.00    +0.047 A 
ATOM     20  C   UNL     1     -11.191   7.994  19.674  0.00  0.00    +0.015 A 
ENDROOT
BRANCH  19  22
ATOM     22  C   UNL     1     -13.259   7.123  20.633  0.00  0.00    -0.012 A 
ATOM     25  C   UNL     1     -12.632   6.259  21.531  0.00  0.00    +0.012 A 
ATOM     26  C   UNL     1     -14.621   6.979  20.363  0.00  0.00    +0.012 A 
ATOM     30  C   UNL     1     -13.365   5.251  22.158  0.00  0.00    +0.046 A 
ATOM     31  C   UNL     1     -15.353   5.972  20.990  0.00  0.00    +0.046 A 
ATOM     32  C   UNL     1     -14.726   5.107  21.888  0.00  0.00    +0.130 A 
BRANCH  32   6
ATOM      6  O   UNL     1     -15.441   4.125  22.500  0.00  0.00    -0.406 OA
BRANCH   6  33
ATOM      1  F   UNL     1     -16.947   3.687  24.122  0.00  0.00    -0.133 F 
ATOM      2  F   UNL     1     -14.830   3.685  24.659  0.00  0.00    -0.133 F 
ATOM      3  F   UNL     1     -15.867   5.584  24.209  0.00  0.00    -0.133 F 
ATOM     33  C   UNL     1     -15.757   4.279  23.878  0.00  0.00    +0.575 C 
ENDBRANCH   6  33
ENDBRANCH  32   6
ENDBRANCH  19  22
BRANCH   7  16
ATOM     16  C   UNL     1     -11.761  10.975  14.448  0.00  0.00    +0.123 C 
BRANCH  16  21
ATOM     21  C   UNL     1     -12.440   9.677  14.112  0.00  0.00    +0.008 A 
ATOM     23  C   UNL     1     -11.691   8.571  13.731  0.00  0.00    +0.121 A 
ATOM     24  C   UNL     1     -13.826   9.604  14.189  0.00  0.00    +0.008 A 
ATOM     27  C   UNL     1     -12.337   7.373  13.423  0.00  0.00    +0.046 A 
ATOM     28  C   UNL     1     -14.472   8.407  13.881  0.00  0.00    +0.001 A 
ATOM     29  C   UNL     1     -13.727   7.292  13.498  0.00  0.00    +0.004 A 
BRANCH  23   5
ATOM      5  O   UNL     1     -10.332   8.632  13.652  0.00  0.00    -0.506 OA
ATOM     34  H   UNL     1      -9.958   8.588  14.548  0.00  0.00    +0.292 HD
ENDBRANCH  23   5
ENDBRANCH  16  21
ENDBRANCH   7  16
TORSDOF 6
ENDMDL
MODEL 5
REMARK VINA RESULT:      -6.6     23.741     26.434
REMARK  Name = 7674758
REMARK  6 active torsions:
REMARK  status: ('A' for Active; 'I' for Inactive)
REMARK    1  A    between atoms: O_5  and  C_23
REMARK    2  A    between atoms: O_6  and  C_32
REMARK    3  A    between atoms: O_6  and  C_33
REMARK    4  A    between atoms: N_7  and  C_16
REMARK    5  A    between atoms: C_16  and  C_21
REMARK    6  A    between atoms: C_19  and  C_22
REMARK                            x       y       z     vdW  Elec       q    Type
REMARK                         _______ _______ _______ _____ _____    ______ ____
ROOT
ATOM      4  O   UNL     1      11.750   7.084   1.339  0.00  0.00    -0.267 OA
ATOM      7  N   UNL     1      11.609   4.238  -2.788  0.00  0.00    -0.297 NA
ATOM      8  N   UNL     1      12.678   5.444  -0.035  0.00  0.00    -0.311 N 
ATOM      9  C   UNL     1      13.437   5.918  -2.437  0.00  0.00    +0.024 C 
ATOM     10  C   UNL     1      13.678   3.665  -1.509  0.00  0.00    +0.050 C 
ATOM     11  C   UNL     1      14.441   4.801  -2.182  0.00  0.00    +0.017 C 
ATOM     12  C   UNL     1      12.299   5.408  -3.345  0.00  0.00    +0.090 C 
ATOM     13  C   UNL     1      12.557   3.166  -2.450  0.00  0.00    +0.094 C 
ATOM     14  C   UNL     1      12.925   6.440  -1.088  0.00  0.00    +0.130 C 
ATOM     15  C   UNL     1      13.093   4.119  -0.183  0.00  0.00    +0.026 A 
ATOM     17  C   UNL     1      12.959   3.253   0.832  0.00  0.00    +0.022 A 
ATOM     18  C   UNL     1      12.098   5.915   1.159  0.00  0.00    +0.259 A 
ATOM     19  C   UNL     1      11.928   4.913   2.269  0.00  0.00    +0.047 A 
ATOM     20  C   UNL     1      12.361   3.658   2.073  0.00  0.00    +0.015 A 
ENDROOT
BRANCH  19  22
ATOM     22  C   UNL     1      11.294   5.287   3.545  0.00  0.00    -0.012 A 
ATOM     25  C   UNL     1      11.890   6.241   4.369  0.00  0.00    +0.012 A 
ATOM     26  C   UNL     1      10.095   4.684   3.931  0.00  0.00    +0.012 A 
ATOM     30  C   UNL     1      11.289   6.594   5.578  0.00  0.00    +0.046 A 
ATOM     31  C   UNL     1       9.495   5.037   5.139  0.00  0.00    +0.046 A 
ATOM     32  C   UNL     1      10.091   5.992   5.963  0.00  0.00    +0.130 A 
BRANCH  32   6
ATOM      6  O   UNL     1       9.505   6.336   7.142  0.00  0.00    -0.406 OA
BRANCH   6  33
ATOM      1  F   UNL     1       8.833   5.784   9.224  0.00  0.00    -0.133 F 
ATOM      2  F   UNL     1       9.731   4.224   7.987  0.00  0.00    -0.133 F 
ATOM      3  F   UNL     1      10.980   5.845   8.820  0.00  0.00    -0.133 F 
ATOM     33  C   UNL     1       9.777   5.539   8.288  0.00  0.00    +0.575 C 
ENDBRANCH   6  33
ENDBRANCH  32   6
ENDBRANCH  19  22
BRANCH   7  16
ATOM     16  C   UNL     1      10.575   3.754  -3.699  0.00  0.00    +0.123 C 
BRANCH  16  21
ATOM     21  C   UNL     1       9.369   4.651  -3.676  0.00  0.00    +0.008 A 
ATOM     23  C   UNL     1       8.488   4.673  -4.749  0.00  0.00    +0.121 A 
ATOM     24  C   UNL     1       9.153   5.456  -2.563  0.00  0.00    +0.008 A 
ATOM     27  C   UNL     1       7.374   5.512  -4.710  0.00  0.00    +0.046 A 
ATOM     28  C   UNL     1       8.039   6.294  -2.524  0.00  0.00    +0.001 A 
ATOM     29  C   UNL     1       7.150   6.322  -3.597  0.00  0.00    +0.004 A 
BRANCH  23   5
ATOM      5  O   UNL     1       8.692   3.888  -5.844  0.00  0.00    -0.506 OA
ATOM     34  H   UNL     1       7.832   3.660  -6.236  0.00  0.00    +0.292 HD
ENDBRANCH  23   5
ENDBRANCH  16  21
ENDBRANCH   7  16
TORSDOF 6
ENDMDL
MODEL 6
REMARK VINA RESULT:      -6.5     24.405     26.367
REMARK  Name = 7674758
REMARK  6 active torsions:
REMARK  status: ('A' for Active; 'I' for Inactive)
REMARK    1  A    between atoms: O_5  and  C_23
REMARK    2  A    between atoms: O_6  and  C_32
REMARK    3  A    between atoms: O_6  and  C_33
REMARK    4  A    between atoms: N_7  and  C_16
REMARK    5  A    between atoms: C_16  and  C_21
REMARK    6  A    between atoms: C_19  and  C_22
REMARK                            x       y       z     vdW  Elec       q    Type
REMARK                         _______ _______ _______ _____ _____    ______ ____
ROOT
ATOM      4  O   UNL     1      12.140   7.817   2.348  0.00  0.00    -0.267 OA
ATOM      7  N   UNL     1      13.522   4.224  -0.867  0.00  0.00    -0.297 NA
ATOM      8  N   UNL     1      12.729   5.605   1.897  0.00  0.00    -0.311 N 
ATOM      9  C   UNL     1      15.036   4.944   0.999  0.00  0.00    +0.024 C 
ATOM     10  C   UNL     1      13.352   3.215   1.413  0.00  0.00    +0.050 C 
ATOM     11  C   UNL     1      14.783   3.635   1.735  0.00  0.00    +0.017 C 
ATOM     12  C   UNL     1      14.853   4.740  -0.520  0.00  0.00    +0.090 C 
ATOM     13  C   UNL     1      13.206   3.003  -0.112  0.00  0.00    +0.094 C 
ATOM     14  C   UNL     1      14.100   6.019   1.566  0.00  0.00    +0.130 C 
ATOM     15  C   UNL     1      12.362   4.258   1.900  0.00  0.00    +0.026 A 
ATOM     17  C   UNL     1      11.138   3.893   2.312  0.00  0.00    +0.022 A 
ATOM     18  C   UNL     1      11.842   6.621   2.305  0.00  0.00    +0.259 A 
ATOM     19  C   UNL     1      10.465   6.186   2.730  0.00  0.00    +0.047 A 
ATOM     20  C   UNL     1      10.176   4.875   2.726  0.00  0.00    +0.015 A 
ENDROOT
BRANCH  19  22
ATOM     22  C   UNL     1       9.444   7.168   3.134  0.00  0.00    -0.012 A 
ATOM     25  C   UNL     1       9.048   7.254   4.469  0.00  0.00    +0.012 A 
ATOM     26  C   UNL     1       8.871   8.012   2.181  0.00  0.00    +0.012 A 
ATOM     30  C   UNL     1       8.080   8.184   4.851  0.00  0.00    +0.046 A 
ATOM     31  C   UNL     1       7.905   8.941   2.564  0.00  0.00    +0.046 A 
ATOM     32  C   UNL     1       7.508   9.028   3.898  0.00  0.00    +0.130 A 
BRANCH  32   6
ATOM      6  O   UNL     1       6.565   9.934   4.271  0.00  0.00    -0.406 OA
BRANCH   6  33
ATOM      1  F   UNL     1       8.220  11.385   4.768  0.00  0.00    -0.133 F 
ATOM      2  F   UNL     1       6.863  11.896   3.134  0.00  0.00    -0.133 F 
ATOM      3  F   UNL     1       6.167  11.972   5.231  0.00  0.00    -0.133 F 
ATOM     33  C   UNL     1       6.939  11.305   4.346  0.00  0.00    +0.575 C 
ENDBRANCH   6  33
ENDBRANCH  32   6
ENDBRANCH  19  22
BRANCH   7  16
ATOM     16  C   UNL     1      13.407   3.996  -2.305  0.00  0.00    +0.123 C 
BRANCH  16  21
ATOM     21  C   UNL     1      11.966   3.935  -2.729  0.00  0.00    +0.008 A 
ATOM     23  C   UNL     1      11.086   4.949  -2.377  0.00  0.00    +0.121 A 
ATOM     24  C   UNL     1      11.534   2.848  -3.480  0.00  0.00    +0.008 A 
ATOM     27  C   UNL     1       9.752   4.876  -2.779  0.00  0.00    +0.046 A 
ATOM     28  C   UNL     1      10.200   2.775  -3.883  0.00  0.00    +0.001 A 
ATOM     29  C   UNL     1       9.309   3.789  -3.533  0.00  0.00    +0.004 A 
BRANCH  23   5
ATOM      5  O   UNL     1      11.500   6.019  -1.640  0.00  0.00    -0.506 OA
ATOM     34  H   UNL     1      10.967   6.795  -1.879  0.00  0.00    +0.292 HD
ENDBRANCH  23   5
ENDBRANCH  16  21
ENDBRANCH   7  16
TORSDOF 6
ENDMDL
MODEL 7
REMARK VINA RESULT:      -6.5     19.789     22.066
REMARK  Name = 7674758
REMARK  6 active torsions:
REMARK  status: ('A' for Active; 'I' for Inactive)
REMARK    1  A    between atoms: O_5  and  C_23
REMARK    2  A    between atoms: O_6  and  C_32
REMARK    3  A    between atoms: O_6  and  C_33
REMARK    4  A    between atoms: N_7  and  C_16
REMARK    5  A    between atoms: C_16  and  C_21
REMARK    6  A    between atoms: C_19  and  C_22
REMARK                            x       y       z     vdW  Elec       q    Type
REMARK                         _______ _______ _______ _____ _____    ______ ____
ROOT
ATOM      4  O   UNL     1     -14.957   9.046  20.405  0.00  0.00    -0.267 OA
ATOM      7  N   UNL     1     -11.567   9.412  16.726  0.00  0.00    -0.297 NA
ATOM      8  N   UNL     1     -12.746   9.241  19.685  0.00  0.00    -0.311 N 
ATOM      9  C   UNL     1     -11.891  11.272  18.376  0.00  0.00    +0.024 C 
ATOM     10  C   UNL     1     -10.358   9.439  18.913  0.00  0.00    +0.050 C 
ATOM     11  C   UNL     1     -10.556  10.947  19.034  0.00  0.00    +0.017 C 
ATOM     12  C   UNL     1     -11.870  10.839  16.896  0.00  0.00    +0.090 C 
ATOM     13  C   UNL     1     -10.325   9.041  17.419  0.00  0.00    +0.094 C 
ATOM     14  C   UNL     1     -13.013  10.593  19.173  0.00  0.00    +0.130 C 
ATOM     15  C   UNL     1     -11.464   8.691  19.636  0.00  0.00    +0.026 A 
ATOM     17  C   UNL     1     -11.218   7.503  20.209  0.00  0.00    +0.022 A 
ATOM     18  C   UNL     1     -13.819   8.578  20.313  0.00  0.00    +0.259 A 
ATOM     19  C   UNL     1     -13.522   7.232  20.916  0.00  0.00    +0.047 A 
ATOM     20  C   UNL     1     -12.267   6.762  20.851  0.00  0.00    +0.015 A 
ENDROOT
BRANCH  19  22
ATOM     22  C   UNL     1     -14.579   6.432  21.558  0.00  0.00    -0.012 A 
ATOM     25  C   UNL     1     -15.568   5.829  20.782  0.00  0.00    +0.012 A 
ATOM     26  C   UNL     1     -14.593   6.280  22.946  0.00  0.00    +0.012 A 
ATOM     30  C   UNL     1     -16.570   5.072  21.391  0.00  0.00    +0.046 A 
ATOM     31  C   UNL     1     -15.595   5.524  23.554  0.00  0.00    +0.046 A 
ATOM     32  C   UNL     1     -16.584   4.920  22.778  0.00  0.00    +0.130 A 
BRANCH  32   6
ATOM      6  O   UNL     1     -17.561   4.182  23.371  0.00  0.00    -0.406 OA
BRANCH   6  33
ATOM      1  F   UNL     1     -18.184   2.360  24.547  0.00  0.00    -0.133 F 
ATOM      2  F   UNL     1     -17.487   2.071  22.497  0.00  0.00    -0.133 F 
ATOM      3  F   UNL     1     -16.061   2.614  24.097  0.00  0.00    -0.133 F 
ATOM     33  C   UNL     1     -17.310   2.804  23.617  0.00  0.00    +0.575 C 
ENDBRANCH   6  33
ENDBRANCH  32   6
ENDBRANCH  19  22
BRANCH   7  16
ATOM     16  C   UNL     1     -11.505   9.054  15.311  0.00  0.00    +0.123 C 
BRANCH  16  21
ATOM     21  C   UNL     1     -12.748   8.325  14.882  0.00  0.00    +0.008 A 
ATOM     23  C   UNL     1     -12.776   7.631  13.680  0.00  0.00    +0.121 A 
ATOM     24  C   UNL     1     -13.865   8.359  15.709  0.00  0.00    +0.008 A 
ATOM     27  C   UNL     1     -13.938   6.961  13.297  0.00  0.00    +0.046 A 
ATOM     28  C   UNL     1     -15.027   7.689  15.326  0.00  0.00    +0.001 A 
ATOM     29  C   UNL     1     -15.063   6.990  14.120  0.00  0.00    +0.004 A 
BRANCH  23   5
ATOM      5  O   UNL     1     -11.686   7.592  12.862  0.00  0.00    -0.506 OA
ATOM     34  H   UNL     1     -10.925   7.251  13.362  0.00  0.00    +0.292 HD
ENDBRANCH  23   5
ENDBRANCH  16  21
ENDBRANCH   7  16
TORSDOF 6
ENDMDL
MODEL 8
REMARK VINA RESULT:      -6.5     21.431     23.877
REMARK  Name = 7674758
REMARK  6 active torsions:
REMARK  status: ('A' for Active; 'I' for Inactive)
REMARK    1  A    between atoms: O_5  and  C_23
REMARK    2  A    between atoms: O_6  and  C_32
REMARK    3  A    between atoms: O_6  and  C_33
REMARK    4  A    between atoms: N_7  and  C_16
REMARK    5  A    between atoms: C_16  and  C_21
REMARK    6  A    between atoms: C_19  and  C_22
REMARK                            x       y       z     vdW  Elec       q    Type
REMARK                         _______ _______ _______ _____ _____    ______ ____
ROOT
ATOM      4  O   UNL     1     -13.767   4.657  23.841  0.00  0.00    -0.267 OA
ATOM      7  N   UNL     1     -13.927   9.316  21.989  0.00  0.00    -0.297 NA
ATOM      8  N   UNL     1     -14.528   6.195  22.260  0.00  0.00    -0.311 N 
ATOM      9  C   UNL     1     -12.952   7.427  20.658  0.00  0.00    +0.024 C 
ATOM     10  C   UNL     1     -15.361   7.853  20.559  0.00  0.00    +0.050 C 
ATOM     11  C   UNL     1     -14.154   7.441  19.723  0.00  0.00    +0.017 C 
ATOM     12  C   UNL     1     -12.743   8.828  21.270  0.00  0.00    +0.090 C 
ATOM     13  C   UNL     1     -15.128   9.265  21.143  0.00  0.00    +0.094 C 
ATOM     14  C   UNL     1     -13.167   6.345  21.725  0.00  0.00    +0.130 C 
ATOM     15  C   UNL     1     -15.611   6.853  21.674  0.00  0.00    +0.026 A 
ATOM     17  C   UNL     1     -16.859   6.617  22.107  0.00  0.00    +0.022 A 
ATOM     18  C   UNL     1     -14.694   5.282  23.320  0.00  0.00    +0.259 A 
ATOM     19  C   UNL     1     -16.101   5.062  23.808  0.00  0.00    +0.047 A 
ATOM     20  C   UNL     1     -17.102   5.711  23.195  0.00  0.00    +0.015 A 
ENDROOT
BRANCH  19  22
ATOM     22  C   UNL     1     -16.385   4.163  24.940  0.00  0.00    -0.012 A 
ATOM     25  C   UNL     1     -16.831   4.686  26.154  0.00  0.00    +0.012 A 
ATOM     26  C   UNL     1     -16.207   2.785  24.799  0.00  0.00    +0.012 A 
ATOM     30  C   UNL     1     -17.099   3.833  27.226  0.00  0.00    +0.046 A 
ATOM     31  C   UNL     1     -16.475   1.934  25.870  0.00  0.00    +0.046 A 
ATOM     32  C   UNL     1     -16.920   2.457  27.083  0.00  0.00    +0.130 A 
BRANCH  32   6
ATOM      6  O   UNL     1     -17.182   1.626  28.129  0.00  0.00    -0.406 OA
BRANCH   6  33
ATOM      1  F   UNL     1     -16.217   0.376  29.741  0.00  0.00    -0.133 F 
ATOM      2  F   UNL     1     -15.040   1.983  28.845  0.00  0.00    -0.133 F 
ATOM      3  F   UNL     1     -16.714   2.451  30.210  0.00  0.00    -0.133 F 
ATOM     33  C   UNL     1     -16.283   1.626  29.231  0.00  0.00    +0.575 C 
ENDBRANCH   6  33
ENDBRANCH  32   6
ENDBRANCH  19  22
BRANCH   7  16
ATOM     16  C   UNL     1     -13.707  10.664  22.508  0.00  0.00    +0.123 C 
BRANCH  16  21
ATOM     21  C   UNL     1     -13.135  10.623  23.897  0.00  0.00    +0.008 A 
ATOM     23  C   UNL     1     -13.872  10.090  24.946  0.00  0.00    +0.121 A 
ATOM     24  C   UNL     1     -11.857  11.127  24.111  0.00  0.00    +0.008 A 
ATOM     27  C   UNL     1     -13.326  10.060  26.229  0.00  0.00    +0.046 A 
ATOM     28  C   UNL     1     -11.311  11.097  25.395  0.00  0.00    +0.001 A 
ATOM     29  C   UNL     1     -12.045  10.564  26.453  0.00  0.00    +0.004 A 
BRANCH  23   5
ATOM      5  O   UNL     1     -15.126   9.593  24.746  0.00  0.00    -0.506 OA
ATOM     34  H   UNL     1     -15.442   9.871  23.870  0.00  0.00    +0.292 HD
ENDBRANCH  23   5
ENDBRANCH  16  21
ENDBRANCH   7  16
TORSDOF 6
ENDMDL
MODEL 9
REMARK VINA RESULT:      -6.4     21.981     25.743
REMARK  Name = 7674758
REMARK  6 active torsions:
REMARK  status: ('A' for Active; 'I' for Inactive)
REMARK    1  A    between atoms: O_5  and  C_23
REMARK    2  A    between atoms: O_6  and  C_32
REMARK    3  A    between atoms: O_6  and  C_33
REMARK    4  A    between atoms: N_7  and  C_16
REMARK    5  A    between atoms: C_16  and  C_21
REMARK    6  A    between atoms: C_19  and  C_22
REMARK                            x       y       z     vdW  Elec       q    Type
REMARK                         _______ _______ _______ _____ _____    ______ ____
ROOT
ATOM      4  O   UNL     1       9.375  -9.428  32.963  0.00  0.00    -0.267 OA
ATOM      7  N   UNL     1       8.390  -5.814  36.297  0.00  0.00    -0.297 NA
ATOM      8  N   UNL     1       8.671  -7.263  33.469  0.00  0.00    -0.311 N 
ATOM      9  C   UNL     1      10.201  -5.536  34.586  0.00  0.00    +0.024 C 
ATOM     10  C   UNL     1       7.899  -4.929  34.012  0.00  0.00    +0.050 C 
ATOM     11  C   UNL     1       9.357  -4.519  33.829  0.00  0.00    +0.017 C 
ATOM     12  C   UNL     1       9.815  -5.536  36.079  0.00  0.00    +0.090 C 
ATOM     13  C   UNL     1       7.540  -4.903  35.516  0.00  0.00    +0.094 C 
ATOM     14  C   UNL     1      10.022  -6.912  33.930  0.00  0.00    +0.130 C 
ATOM     15  C   UNL     1       7.651  -6.310  33.432  0.00  0.00    +0.026 A 
ATOM     17  C   UNL     1       6.458  -6.620  32.904  0.00  0.00    +0.022 A 
ATOM     18  C   UNL     1       8.490  -8.570  32.977  0.00  0.00    +0.259 A 
ATOM     19  C   UNL     1       7.130  -8.900  32.423  0.00  0.00    +0.047 A 
ATOM     20  C   UNL     1       6.195  -7.938  32.399  0.00  0.00    +0.015 A 
ENDROOT
BRANCH  19  22
ATOM     22  C   UNL     1       6.817 -10.250  31.921  0.00  0.00    -0.012 A 
ATOM     25  C   UNL     1       6.462 -11.262  32.813  0.00  0.00    +0.012 A 
ATOM     26  C   UNL     1       6.876 -10.517  30.552  0.00  0.00    +0.012 A 
ATOM     30  C   UNL     1       6.167 -12.540  32.338  0.00  0.00    +0.046 A 
ATOM     31  C   UNL     1       6.581 -11.795  30.078  0.00  0.00    +0.046 A 
ATOM     32  C   UNL     1       6.226 -12.807  30.970  0.00  0.00    +0.130 A 
BRANCH  32   6
ATOM      6  O   UNL     1       5.938 -14.053  30.507  0.00  0.00    -0.406 OA
BRANCH   6  33
ATOM      1  F   UNL     1       4.386 -15.667  30.219  0.00  0.00    -0.133 F 
ATOM      2  F   UNL     1       3.717 -13.712  30.929  0.00  0.00    -0.133 F 
ATOM      3  F   UNL     1       4.377 -13.974  28.836  0.00  0.00    -0.133 F 
ATOM     33  C   UNL     1       4.598 -14.335  30.119  0.00  0.00    +0.575 C 
ENDBRANCH   6  33
ENDBRANCH  32   6
ENDBRANCH  19  22
BRANCH   7  16
ATOM     16  C   UNL     1       8.055  -5.754  37.717  0.00  0.00    +0.123 C 
BRANCH  16  21
ATOM     21  C   UNL     1       6.641  -6.204  37.960  0.00  0.00    +0.008 A 
ATOM     23  C   UNL     1       6.192  -7.415  37.450  0.00  0.00    +0.121 A 
ATOM     24  C   UNL     1       5.795  -5.388  38.702  0.00  0.00    +0.008 A 
ATOM     27  C   UNL     1       4.877  -7.817  37.685  0.00  0.00    +0.046 A 
ATOM     28  C   UNL     1       4.480  -5.790  38.937  0.00  0.00    +0.001 A 
ATOM     29  C   UNL     1       4.021  -7.005  38.428  0.00  0.00    +0.004 A 
BRANCH  23   5
ATOM      5  O   UNL     1       7.014  -8.222  36.721  0.00  0.00    -0.506 OA
ATOM     34  H   UNL     1       7.767  -8.490  37.274  0.00  0.00    +0.292 HD
ENDBRANCH  23   5
ENDBRANCH  16  21
ENDBRANCH   7  16
TORSDOF 6
ENDMDL
MODEL 10
REMARK VINA RESULT:      -6.3     20.503     22.798
REMARK  Name = 7674758
REMARK  6 active torsions:
REMARK  status: ('A' for Active; 'I' for Inactive)
REMARK    1  A    between atoms: O_5  and  C_23
REMARK    2  A    between atoms: O_6  and  C_32
REMARK    3  A    between atoms: O_6  and  C_33
REMARK    4  A    between atoms: N_7  and  C_16
REMARK    5  A    between atoms: C_16  and  C_21
REMARK    6  A    between atoms: C_19  and  C_22
REMARK                            x       y       z     vdW  Elec       q    Type
REMARK                         _______ _______ _______ _____ _____    ______ ____
ROOT
ATOM      4  O   UNL     1     -13.192   4.949  22.696  0.00  0.00    -0.267 OA
ATOM      7  N   UNL     1     -12.667   9.592  20.874  0.00  0.00    -0.297 NA
ATOM      8  N   UNL     1     -13.419   6.494  20.963  0.00  0.00    -0.311 N 
ATOM      9  C   UNL     1     -11.412   7.663  19.879  0.00  0.00    +0.024 C 
ATOM     10  C   UNL     1     -13.677   8.160  19.093  0.00  0.00    +0.050 C 
ATOM     11  C   UNL     1     -12.294   7.703  18.639  0.00  0.00    +0.017 C 
ATOM     12  C   UNL     1     -11.342   9.063  20.524  0.00  0.00    +0.090 C 
ATOM     13  C   UNL     1     -13.576   9.570  19.718  0.00  0.00    +0.094 C 
ATOM     14  C   UNL     1     -11.957   6.598  20.840  0.00  0.00    +0.130 C 
ATOM     15  C   UNL     1     -14.267   7.179  20.090  0.00  0.00    +0.026 A 
ATOM     17  C   UNL     1     -15.593   6.984  20.148  0.00  0.00    +0.022 A 
ATOM     18  C   UNL     1     -13.910   5.597  21.931  0.00  0.00    +0.259 A 
ATOM     19  C   UNL     1     -15.404   5.424  21.996  0.00  0.00    +0.047 A 
ATOM     20  C   UNL     1     -16.167   6.097  21.121  0.00  0.00    +0.015 A 
ENDROOT
BRANCH  19  22
ATOM     22  C   UNL     1     -16.029   4.545  22.999  0.00  0.00    -0.012 A 
ATOM     25  C   UNL     1     -17.265   3.953  22.737  0.00  0.00    +0.012 A 
ATOM     26  C   UNL     1     -15.384   4.303  24.214  0.00  0.00    +0.012 A 
ATOM     30  C   UNL     1     -17.856   3.121  23.688  0.00  0.00    +0.046 A 
ATOM     31  C   UNL     1     -15.976   3.471  25.163  0.00  0.00    +0.046 A 
ATOM     32  C   UNL     1     -17.212   2.880  24.902  0.00  0.00    +0.130 A 
BRANCH  32   6
ATOM      6  O   UNL     1     -17.789   2.068  25.829  0.00  0.00    -0.406 OA
BRANCH   6  33
ATOM      1  F   UNL     1     -18.332  -0.014  26.509  0.00  0.00    -0.133 F 
ATOM      2  F   UNL     1     -17.207   0.199  24.648  0.00  0.00    -0.133 F 
ATOM      3  F   UNL     1     -16.230   0.579  26.594  0.00  0.00    -0.133 F 
ATOM     33  C   UNL     1     -17.374   0.709  25.887  0.00  0.00    +0.575 C 
ENDBRANCH   6  33
ENDBRANCH  32   6
ENDBRANCH  19  22
BRANCH   7  16
ATOM     16  C   UNL     1     -12.563  10.938  21.432  0.00  0.00    +0.123 C 
BRANCH  16  21
ATOM     21  C   UNL     1     -12.632  10.908  22.934  0.00  0.00    +0.008 A 
ATOM     23  C   UNL     1     -13.726  10.344  23.576  0.00  0.00    +0.121 A 
ATOM     24  C   UNL     1     -11.582  11.453  23.664  0.00  0.00    +0.008 A 
ATOM     27  C   UNL     1     -13.773  10.324  24.970  0.00  0.00    +0.046 A 
ATOM     28  C   UNL     1     -11.630  11.434  25.059  0.00  0.00    +0.001 A 
ATOM     29  C   UNL     1     -12.725  10.869  25.711  0.00  0.00    +0.004 A 
BRANCH  23   5
ATOM      5  O   UNL     1     -14.760   9.807  22.868  0.00  0.00    -0.506 OA
ATOM     34  H   UNL     1     -14.420   9.448  22.032  0.00  0.00    +0.292 HD
ENDBRANCH  23   5
ENDBRANCH  16  21
ENDBRANCH   7  16
TORSDOF 6
ENDMDL
