REMARK  Name = 11887247
REMARK  5 active torsions:
REMARK  status: ('A' for Active; 'I' for Inactive)
REMARK    1  A    between atoms: N_6  and  C_13
REMARK    2  A    between atoms: N_7  and  C_14
REMARK    3  A    between atoms: C_17  and  C_19
REMARK    4  A    between atoms: C_18  and  C_20
REMARK    5  A    between atoms: C_30  and  C_32
REMARK                            x       y       z     vdW  Elec       q    Type
REMARK                         _______ _______ _______ _____ _____    ______ ____
ROOT
ATOM      1  O   UNL     1      -0.115   3.438   0.705  0.00  0.00    -0.370 OA
ATOM      2  O   UNL     1       0.117   0.455   1.677  0.00  0.00    -0.370 OA
ATOM     11  C   UNL     1       0.364   1.119   0.423  0.00  0.00    +0.176 C 
ATOM     12  C   UNL     1      -0.693   2.196   0.272  0.00  0.00    +0.171 C 
ATOM     13  C   UNL     1       1.677   1.875   0.490  0.00  0.00    +0.168 C 
ATOM     14  C   UNL     1      -1.796   1.773   1.216  0.00  0.00    +0.130 C 
ATOM     15  C   UNL     1       1.263   3.234   1.043  0.00  0.00    +0.190 C 
ATOM     16  C   UNL     1      -1.029   1.047   2.305  0.00  0.00    +0.185 C 
ENDROOT
BRANCH  13   6
ATOM      6  N   UNL     1       2.368   1.915  -0.802  0.00  0.00    -0.217 N 
ATOM      8  N   UNL     1       2.108   2.889  -1.680  0.00  0.00    -0.043 NA
ATOM      9  N   UNL     1       3.641   1.491  -2.497  0.00  0.00    -0.108 NA
ATOM     10  N   UNL     1       2.892   2.624  -2.719  0.00  0.00    -0.023 NA
ATOM     17  C   UNL     1       3.300   1.069  -1.301  0.00  0.00    +0.182 A 
BRANCH  17  19
ATOM      4  O   UNL     1       3.219  -3.680  -0.123  0.00  0.00    -0.453 OA
ATOM      5  O   UNL     1       5.159  -3.469   1.293  0.00  0.00    -0.453 OA
ATOM     19  C   UNL     1       3.809  -0.089  -0.613  0.00  0.00    +0.024 A 
ATOM     21  C   UNL     1       3.177  -1.327  -0.771  0.00  0.00    +0.061 A 
ATOM     22  C   UNL     1       4.941   0.031   0.214  0.00  0.00    +0.015 A 
ATOM     25  C   UNL     1       3.701  -2.407  -0.091  0.00  0.00    +0.167 A 
ATOM     26  C   UNL     1       5.452  -1.079   0.890  0.00  0.00    +0.050 A 
ATOM     27  C   UNL     1       4.808  -2.287   0.717  0.00  0.00    +0.166 A 
ATOM     31  C   UNL     1       4.148  -4.347   0.756  0.00  0.00    +0.466 C 
ENDBRANCH  17  19
ENDBRANCH  13   6
BRANCH  14   7
ATOM      3  O   UNL     1      -4.549   1.371   1.926  0.00  0.00    -0.270 OA
ATOM      7  N   UNL     1      -2.735   0.894   0.562  0.00  0.00    -0.304 N 
ATOM     18  C   UNL     1      -4.052   0.766   0.980  0.00  0.00    +0.244 C 
ATOM     33  H   UNL     1      -2.363   0.278  -0.153  0.00  0.00    +0.149 HD
BRANCH  18  20
ATOM     20  C   UNL     1      -4.884  -0.201   0.218  0.00  0.00    +0.037 A 
ATOM     23  C   UNL     1      -5.953  -0.802   0.849  0.00  0.00    +0.013 A 
ATOM     24  C   UNL     1      -4.562  -0.465  -1.097  0.00  0.00    +0.013 A 
ATOM     28  C   UNL     1      -6.735  -1.709   0.134  0.00  0.00    +0.004 A 
ATOM     29  C   UNL     1      -5.345  -1.371  -1.813  0.00  0.00    +0.004 A 
ATOM     30  C   UNL     1      -6.431  -1.993  -1.198  0.00  0.00    -0.050 A 
ATOM     32  C   UNL     1      -7.267  -2.963  -1.962  0.00  0.00    +0.044 C 
ENDBRANCH  18  20
ENDBRANCH  14   7
TORSDOF 4
