MODEL 1
REMARK VINA RESULT:      -6.4      0.000      0.000
REMARK  Name = 75367678
REMARK  3 active torsions:
REMARK  status: ('A' for Active; 'I' for Inactive)
REMARK    1  A    between atoms: O_3  and  C_14
REMARK    2  A    between atoms: O_3  and  C_17
REMARK    3  A    between atoms: C_5  and  C_11
REMARK                            x       y       z     vdW  Elec       q    Type
REMARK                         _______ _______ _______ _____ _____    ______ ____
ROOT
ATOM      1  O   UNL     1      -2.902 -15.430  13.887  0.00  0.00    -0.375 OA
ATOM      2  O   UNL     1      -5.577 -13.555  17.552  0.00  0.00    -0.275 OA
ATOM      4  N   UNL     1      -4.373 -13.217  15.583  0.00  0.00    -0.295 N 
ATOM     11  C   UNL     1      -4.804 -12.874  16.872  0.00  0.00    +0.219 C 
ATOM     12  C   UNL     1      -3.465 -12.371  14.804  0.00  0.00    +0.154 C 
ATOM     13  C   UNL     1      -4.861 -14.462  14.984  0.00  0.00    +0.136 C 
ATOM     14  C   UNL     1      -2.788 -13.008  13.586  0.00  0.00    +0.216 C 
ATOM     15  C   UNL     1      -3.786 -15.540  14.996  0.00  0.00    +0.179 C 
ATOM     16  C   UNL     1      -2.041 -14.296  13.923  0.00  0.00    +0.206 C 
ENDROOT
BRANCH  11   5
ATOM      5  C   UNL     1      -4.264 -11.593  17.438  0.00  0.00    +0.075 C 
ATOM      6  C   UNL     1      -4.044 -11.734  18.946  0.00  0.00    +0.013 C 
ATOM      7  C   UNL     1      -5.167 -10.411  17.080  0.00  0.00    +0.013 C 
ATOM      8  C   UNL     1      -5.342 -11.674  19.748  0.00  0.00    +0.001 C 
ATOM      9  C   UNL     1      -6.449 -10.350  17.912  0.00  0.00    +0.001 C 
ATOM     10  C   UNL     1      -6.159 -10.433  19.407  0.00  0.00    +0.000 C 
ENDBRANCH  11   5
BRANCH  14   3
ATOM      3  O   UNL     1      -1.835 -12.073  13.077  0.00  0.00    -0.485 OA
BRANCH   3  17
ATOM     17  C   UNL     1      -2.270 -11.235  12.089  0.00  0.00    +0.121 A 
ATOM     18  C   UNL     1      -1.613 -10.027  11.858  0.00  0.00    +0.045 A 
ATOM     19  C   UNL     1      -3.373 -11.588  11.311  0.00  0.00    +0.045 A 
ATOM     20  C   UNL     1      -2.058  -9.171  10.849  0.00  0.00    +0.004 A 
ATOM     21  C   UNL     1      -3.819 -10.734  10.303  0.00  0.00    +0.004 A 
ATOM     22  C   UNL     1      -3.160  -9.525  10.072  0.00  0.00    +0.000 A 
ENDBRANCH   3  17
ENDBRANCH  14   3
TORSDOF 3
ENDMDL
MODEL 2
REMARK VINA RESULT:      -6.0     26.526     28.190
REMARK  Name = 75367678
REMARK  3 active torsions:
REMARK  status: ('A' for Active; 'I' for Inactive)
REMARK    1  A    between atoms: O_3  and  C_14
REMARK    2  A    between atoms: O_3  and  C_17
REMARK    3  A    between atoms: C_5  and  C_11
REMARK                            x       y       z     vdW  Elec       q    Type
REMARK                         _______ _______ _______ _____ _____    ______ ____
ROOT
ATOM      1  O   UNL     1      12.057   6.245  20.551  0.00  0.00    -0.375 OA
ATOM      2  O   UNL     1      10.346  10.233  22.846  0.00  0.00    -0.275 OA
ATOM      4  N   UNL     1      11.568   9.313  21.087  0.00  0.00    -0.295 N 
ATOM     11  C   UNL     1      11.315  10.265  22.084  0.00  0.00    +0.219 C 
ATOM     12  C   UNL     1      12.726   9.397  20.191  0.00  0.00    +0.154 C 
ATOM     13  C   UNL     1      10.633   8.197  20.922  0.00  0.00    +0.136 C 
ATOM     14  C   UNL     1      13.093   8.136  19.403  0.00  0.00    +0.216 C 
ATOM     15  C   UNL     1      11.209   6.904  21.484  0.00  0.00    +0.179 C 
ATOM     16  C   UNL     1      13.289   6.911  20.293  0.00  0.00    +0.206 C 
ENDROOT
BRANCH  11   5
ATOM      5  C   UNL     1      12.312  11.380  22.211  0.00  0.00    +0.075 C 
ATOM      6  C   UNL     1      12.566  11.693  23.687  0.00  0.00    +0.013 C 
ATOM      7  C   UNL     1      11.869  12.608  21.414  0.00  0.00    +0.013 C 
ATOM      8  C   UNL     1      11.431  12.483  24.335  0.00  0.00    +0.001 C 
ATOM      9  C   UNL     1      10.751  13.402  22.090  0.00  0.00    +0.001 C 
ATOM     10  C   UNL     1      11.090  13.737  23.539  0.00  0.00    +0.000 C 
ENDBRANCH  11   5
BRANCH  14   3
ATOM      3  O   UNL     1      14.329   8.386  18.730  0.00  0.00    -0.485 OA
BRANCH   3  17
ATOM     17  C   UNL     1      15.450   7.843  19.292  0.00  0.00    +0.121 A 
ATOM     18  C   UNL     1      15.927   6.610  18.847  0.00  0.00    +0.045 A 
ATOM     19  C   UNL     1      16.117   8.521  20.313  0.00  0.00    +0.045 A 
ATOM     20  C   UNL     1      17.072   6.056  19.422  0.00  0.00    +0.004 A 
ATOM     21  C   UNL     1      17.261   7.968  20.887  0.00  0.00    +0.004 A 
ATOM     22  C   UNL     1      17.738   6.734  20.441  0.00  0.00    +0.000 A 
ENDBRANCH   3  17
ENDBRANCH  14   3
TORSDOF 3
ENDMDL
MODEL 3
REMARK VINA RESULT:      -5.9      1.748      6.954
REMARK  Name = 75367678
REMARK  3 active torsions:
REMARK  status: ('A' for Active; 'I' for Inactive)
REMARK    1  A    between atoms: O_3  and  C_14
REMARK    2  A    between atoms: O_3  and  C_17
REMARK    3  A    between atoms: C_5  and  C_11
REMARK                            x       y       z     vdW  Elec       q    Type
REMARK                         _______ _______ _______ _____ _____    ______ ____
ROOT
ATOM      1  O   UNL     1      -2.287 -13.381  14.581  0.00  0.00    -0.375 OA
ATOM      2  O   UNL     1      -2.405  -9.995  11.028  0.00  0.00    -0.275 OA
ATOM      4  N   UNL     1      -3.261 -10.811  13.038  0.00  0.00    -0.295 N 
ATOM     11  C   UNL     1      -3.363 -10.217  11.772  0.00  0.00    +0.219 C 
ATOM     12  C   UNL     1      -4.426 -11.043  13.897  0.00  0.00    +0.154 C 
ATOM     13  C   UNL     1      -1.937 -11.202  13.529  0.00  0.00    +0.136 C 
ATOM     14  C   UNL     1      -4.247 -12.008  15.073  0.00  0.00    +0.216 C 
ATOM     15  C   UNL     1      -1.742 -12.710  13.452  0.00  0.00    +0.179 C 
ATOM     16  C   UNL     1      -3.709 -13.373  14.649  0.00  0.00    +0.206 C 
ENDROOT
BRANCH  11   5
ATOM      5  C   UNL     1      -4.745  -9.846  11.318  0.00  0.00    +0.075 C 
ATOM      6  C   UNL     1      -5.389 -11.018  10.575  0.00  0.00    +0.013 C 
ATOM      7  C   UNL     1      -4.725  -8.560  10.489  0.00  0.00    +0.013 C 
ATOM      8  C   UNL     1      -4.849 -11.198   9.158  0.00  0.00    +0.001 C 
ATOM      9  C   UNL     1      -4.208  -8.763   9.065  0.00  0.00    +0.001 C 
ATOM     10  C   UNL     1      -4.930  -9.904   8.356  0.00  0.00    +0.000 C 
ENDBRANCH  11   5
BRANCH  14   3
ATOM      3  O   UNL     1      -5.529 -12.212  15.670  0.00  0.00    -0.485 OA
BRANCH   3  17
ATOM     17  C   UNL     1      -5.707 -11.697  16.924  0.00  0.00    +0.121 A 
ATOM     18  C   UNL     1      -4.864 -12.087  17.964  0.00  0.00    +0.045 A 
ATOM     19  C   UNL     1      -6.732 -10.782  17.162  0.00  0.00    +0.045 A 
ATOM     20  C   UNL     1      -5.046 -11.562  19.244  0.00  0.00    +0.004 A 
ATOM     21  C   UNL     1      -6.914 -10.256  18.441  0.00  0.00    +0.004 A 
ATOM     22  C   UNL     1      -6.071 -10.647  19.483  0.00  0.00    +0.000 A 
ENDBRANCH   3  17
ENDBRANCH  14   3
TORSDOF 3
ENDMDL
MODEL 4
REMARK VINA RESULT:      -5.8     23.455     25.999
REMARK  Name = 75367678
REMARK  3 active torsions:
REMARK  status: ('A' for Active; 'I' for Inactive)
REMARK    1  A    between atoms: O_3  and  C_14
REMARK    2  A    between atoms: O_3  and  C_17
REMARK    3  A    between atoms: C_5  and  C_11
REMARK                            x       y       z     vdW  Elec       q    Type
REMARK                         _______ _______ _______ _____ _____    ______ ____
ROOT
ATOM      1  O   UNL     1      12.699   8.098   2.370  0.00  0.00    -0.375 OA
ATOM      2  O   UNL     1      11.527   7.043   7.019  0.00  0.00    -0.275 OA
ATOM      4  N   UNL     1      11.590   6.395   4.780  0.00  0.00    -0.295 N 
ATOM     11  C   UNL     1      11.010   6.474   6.054  0.00  0.00    +0.219 C 
ATOM     12  C   UNL     1      10.948   5.695   3.663  0.00  0.00    +0.154 C 
ATOM     13  C   UNL     1      12.894   7.024   4.558  0.00  0.00    +0.136 C 
ATOM     14  C   UNL     1      11.485   5.981   2.258  0.00  0.00    +0.216 C 
ATOM     15  C   UNL     1      12.756   8.322   3.774  0.00  0.00    +0.179 C 
ATOM     16  C   UNL     1      11.504   7.469   1.917  0.00  0.00    +0.206 C 
ENDROOT
BRANCH  11   5
ATOM      5  C   UNL     1       9.670   5.819   6.220  0.00  0.00    +0.075 C 
ATOM      6  C   UNL     1       8.691   6.784   6.891  0.00  0.00    +0.013 C 
ATOM      7  C   UNL     1       9.796   4.490   6.968  0.00  0.00    +0.013 C 
ATOM      8  C   UNL     1       8.931   6.932   8.393  0.00  0.00    +0.001 C 
ATOM      9  C   UNL     1      10.007   4.656   8.473  0.00  0.00    +0.001 C 
ATOM     10  C   UNL     1       8.965   5.579   9.094  0.00  0.00    +0.000 C 
ENDBRANCH  11   5
BRANCH  14   3
ATOM      3  O   UNL     1      10.623   5.332   1.321  0.00  0.00    -0.485 OA
BRANCH   3  17
ATOM     17  C   UNL     1      11.231   4.583   0.351  0.00  0.00    +0.121 A 
ATOM     18  C   UNL     1      10.669   4.504  -0.923  0.00  0.00    +0.045 A 
ATOM     19  C   UNL     1      12.411   3.897   0.638  0.00  0.00    +0.045 A 
ATOM     20  C   UNL     1      11.290   3.739  -1.912  0.00  0.00    +0.004 A 
ATOM     21  C   UNL     1      13.031   3.133  -0.351  0.00  0.00    +0.004 A 
ATOM     22  C   UNL     1      12.469   3.054  -1.626  0.00  0.00    +0.000 A 
ENDBRANCH   3  17
ENDBRANCH  14   3
TORSDOF 3
ENDMDL
MODEL 5
REMARK VINA RESULT:      -5.6     21.406     23.327
REMARK  Name = 75367678
REMARK  3 active torsions:
REMARK  status: ('A' for Active; 'I' for Inactive)
REMARK    1  A    between atoms: O_3  and  C_14
REMARK    2  A    between atoms: O_3  and  C_17
REMARK    3  A    between atoms: C_5  and  C_11
REMARK                            x       y       z     vdW  Elec       q    Type
REMARK                         _______ _______ _______ _____ _____    ______ ____
ROOT
ATOM      1  O   UNL     1     -18.105   5.361  22.674  0.00  0.00    -0.375 OA
ATOM      2  O   UNL     1     -14.684   7.285  19.725  0.00  0.00    -0.275 OA
ATOM      4  N   UNL     1     -15.225   5.866  21.494  0.00  0.00    -0.295 N 
ATOM     11  C   UNL     1     -14.420   6.799  20.828  0.00  0.00    +0.219 C 
ATOM     12  C   UNL     1     -14.866   5.301  22.799  0.00  0.00    +0.154 C 
ATOM     13  C   UNL     1     -16.469   5.425  20.857  0.00  0.00    +0.136 C 
ATOM     14  C   UNL     1     -15.973   4.588  23.581  0.00  0.00    +0.216 C 
ATOM     15  C   UNL     1     -17.684   6.067  21.513  0.00  0.00    +0.179 C 
ATOM     16  C   UNL     1     -17.215   5.453  23.781  0.00  0.00    +0.206 C 
ENDROOT
BRANCH  11   5
ATOM      5  C   UNL     1     -13.162   7.220  21.532  0.00  0.00    +0.075 C 
ATOM      6  C   UNL     1     -13.063   8.746  21.566  0.00  0.00    +0.013 C 
ATOM      7  C   UNL     1     -11.933   6.561  20.903  0.00  0.00    +0.013 C 
ATOM      8  C   UNL     1     -12.648   9.349  20.225  0.00  0.00    +0.001 C 
ATOM      9  C   UNL     1     -11.515   7.195  19.576  0.00  0.00    +0.001 C 
ATOM     10  C   UNL     1     -11.373   8.709  19.690  0.00  0.00    +0.000 C 
ENDBRANCH  11   5
BRANCH  14   3
ATOM      3  O   UNL     1     -15.455   4.265  24.874  0.00  0.00    -0.485 OA
BRANCH   3  17
ATOM     17  C   UNL     1     -16.046   3.217  25.523  0.00  0.00    +0.121 A 
ATOM     18  C   UNL     1     -16.186   3.245  26.910  0.00  0.00    +0.045 A 
ATOM     19  C   UNL     1     -16.508   2.119  24.797  0.00  0.00    +0.045 A 
ATOM     20  C   UNL     1     -16.789   2.175  27.572  0.00  0.00    +0.004 A 
ATOM     21  C   UNL     1     -17.110   1.049  25.458  0.00  0.00    +0.004 A 
ATOM     22  C   UNL     1     -17.251   1.077  26.847  0.00  0.00    +0.000 A 
ENDBRANCH   3  17
ENDBRANCH  14   3
TORSDOF 3
ENDMDL
MODEL 6
REMARK VINA RESULT:      -5.6     15.959     19.595
REMARK  Name = 75367678
REMARK  3 active torsions:
REMARK  status: ('A' for Active; 'I' for Inactive)
REMARK    1  A    between atoms: O_3  and  C_14
REMARK    2  A    between atoms: O_3  and  C_17
REMARK    3  A    between atoms: C_5  and  C_11
REMARK                            x       y       z     vdW  Elec       q    Type
REMARK                         _______ _______ _______ _____ _____    ______ ____
ROOT
ATOM      1  O   UNL     1      -1.245 -14.838  -1.126  0.00  0.00    -0.375 OA
ATOM      2  O   UNL     1       0.514 -14.593  -5.703  0.00  0.00    -0.275 OA
ATOM      4  N   UNL     1       0.922 -14.660  -3.408  0.00  0.00    -0.295 N 
ATOM     11  C   UNL     1       1.157 -14.221  -4.718  0.00  0.00    +0.219 C 
ATOM     12  C   UNL     1       1.722 -14.203  -2.268  0.00  0.00    +0.154 C 
ATOM     13  C   UNL     1      -0.155 -15.624  -3.169  0.00  0.00    +0.136 C 
ATOM     14  C   UNL     1       1.154 -14.458  -0.868  0.00  0.00    +0.216 C 
ATOM     15  C   UNL     1      -1.368 -14.952  -2.539  0.00  0.00    +0.179 C 
ATOM     16  C   UNL     1      -0.259 -13.910  -0.688  0.00  0.00    +0.206 C 
ENDROOT
BRANCH  11   5
ATOM      5  C   UNL     1       2.268 -13.228  -4.901  0.00  0.00    +0.075 C 
ATOM      6  C   UNL     1       1.693 -11.852  -5.245  0.00  0.00    +0.013 C 
ATOM      7  C   UNL     1       3.282 -13.720  -5.936  0.00  0.00    +0.013 C 
ATOM      8  C   UNL     1       1.211 -11.749  -6.690  0.00  0.00    +0.001 C 
ATOM      9  C   UNL     1       2.794 -13.584  -7.379  0.00  0.00    +0.001 C 
ATOM     10  C   UNL     1       2.291 -12.175  -7.677  0.00  0.00    +0.000 C 
ENDBRANCH  11   5
BRANCH  14   3
ATOM      3  O   UNL     1       2.001 -13.797   0.074  0.00  0.00    -0.485 OA
BRANCH   3  17
ATOM     17  C   UNL     1       3.084 -14.503   0.520  0.00  0.00    +0.121 A 
ATOM     18  C   UNL     1       4.303 -14.407  -0.150  0.00  0.00    +0.045 A 
ATOM     19  C   UNL     1       2.968 -15.319   1.646  0.00  0.00    +0.045 A 
ATOM     20  C   UNL     1       5.408 -15.128   0.306  0.00  0.00    +0.004 A 
ATOM     21  C   UNL     1       4.072 -16.040   2.102  0.00  0.00    +0.004 A 
ATOM     22  C   UNL     1       5.293 -15.944   1.431  0.00  0.00    +0.000 A 
ENDBRANCH   3  17
ENDBRANCH  14   3
TORSDOF 3
ENDMDL
MODEL 7
REMARK VINA RESULT:      -5.6     22.750     26.040
REMARK  Name = 75367678
REMARK  3 active torsions:
REMARK  status: ('A' for Active; 'I' for Inactive)
REMARK    1  A    between atoms: O_3  and  C_14
REMARK    2  A    between atoms: O_3  and  C_17
REMARK    3  A    between atoms: C_5  and  C_11
REMARK                            x       y       z     vdW  Elec       q    Type
REMARK                         _______ _______ _______ _____ _____    ______ ____
ROOT
ATOM      1  O   UNL     1     -15.378  12.273  22.565  0.00  0.00    -0.375 OA
ATOM      2  O   UNL     1     -13.850   8.588  19.703  0.00  0.00    -0.275 OA
ATOM      4  N   UNL     1     -13.644   9.789  21.691  0.00  0.00    -0.295 N 
ATOM     11  C   UNL     1     -13.146   9.085  20.587  0.00  0.00    +0.219 C 
ATOM     12  C   UNL     1     -12.772  10.350  22.728  0.00  0.00    +0.154 C 
ATOM     13  C   UNL     1     -15.093   9.960  21.825  0.00  0.00    +0.136 C 
ATOM     14  C   UNL     1     -13.386  11.390  23.670  0.00  0.00    +0.216 C 
ATOM     15  C   UNL     1     -15.518  11.378  21.468  0.00  0.00    +0.179 C 
ATOM     16  C   UNL     1     -14.032  12.559  22.931  0.00  0.00    +0.206 C 
ENDROOT
BRANCH  11   5
ATOM      5  C   UNL     1     -11.653   8.949  20.498  0.00  0.00    +0.075 C 
ATOM      6  C   UNL     1     -11.086   9.988  19.529  0.00  0.00    +0.013 C 
ATOM      7  C   UNL     1     -11.252   7.518  20.134  0.00  0.00    +0.013 C 
ATOM      8  C   UNL     1     -11.319   9.628  18.062  0.00  0.00    +0.001 C 
ATOM      9  C   UNL     1     -11.465   7.184  18.657  0.00  0.00    +0.001 C 
ATOM     10  C   UNL     1     -10.825   8.222  17.742  0.00  0.00    +0.000 C 
ENDBRANCH  11   5
BRANCH  14   3
ATOM      3  O   UNL     1     -12.335  11.917  24.483  0.00  0.00    -0.485 OA
BRANCH   3  17
ATOM     17  C   UNL     1     -12.090  11.267  25.660  0.00  0.00    +0.121 A 
ATOM     18  C   UNL     1     -13.083  11.195  26.637  0.00  0.00    +0.045 A 
ATOM     19  C   UNL     1     -10.847  10.676  25.885  0.00  0.00    +0.045 A 
ATOM     20  C   UNL     1     -12.833  10.532  27.839  0.00  0.00    +0.004 A 
ATOM     21  C   UNL     1     -10.596  10.013  27.086  0.00  0.00    +0.004 A 
ATOM     22  C   UNL     1     -11.590   9.941  28.063  0.00  0.00    +0.000 A 
ENDBRANCH   3  17
ENDBRANCH  14   3
TORSDOF 3
ENDMDL
MODEL 8
REMARK VINA RESULT:      -5.6      2.079      7.004
REMARK  Name = 75367678
REMARK  3 active torsions:
REMARK  status: ('A' for Active; 'I' for Inactive)
REMARK    1  A    between atoms: O_3  and  C_14
REMARK    2  A    between atoms: O_3  and  C_17
REMARK    3  A    between atoms: C_5  and  C_11
REMARK                            x       y       z     vdW  Elec       q    Type
REMARK                         _______ _______ _______ _____ _____    ______ ____
ROOT
ATOM      1  O   UNL     1      -5.369 -13.536  14.548  0.00  0.00    -0.375 OA
ATOM      2  O   UNL     1      -3.669 -11.773  10.293  0.00  0.00    -0.275 OA
ATOM      4  N   UNL     1      -3.914 -11.530  12.599  0.00  0.00    -0.295 N 
ATOM     11  C   UNL     1      -3.870 -11.060  11.279  0.00  0.00    +0.219 C 
ATOM     12  C   UNL     1      -4.141 -10.644  13.745  0.00  0.00    +0.154 C 
ATOM     13  C   UNL     1      -3.710 -12.960  12.846  0.00  0.00    +0.136 C 
ATOM     14  C   UNL     1      -4.526 -11.304  15.073  0.00  0.00    +0.216 C 
ATOM     15  C   UNL     1      -5.024 -13.657  13.173  0.00  0.00    +0.179 C 
ATOM     16  C   UNL     1      -5.740 -12.222  14.954  0.00  0.00    +0.206 C 
ENDROOT
BRANCH  11   5
ATOM      5  C   UNL     1      -4.094  -9.588  11.087  0.00  0.00    +0.075 C 
ATOM      6  C   UNL     1      -5.568  -9.246  11.310  0.00  0.00    +0.013 C 
ATOM      7  C   UNL     1      -3.580  -9.128   9.721  0.00  0.00    +0.013 C 
ATOM      8  C   UNL     1      -6.461  -9.650  10.138  0.00  0.00    +0.001 C 
ATOM      9  C   UNL     1      -4.499  -9.516   8.563  0.00  0.00    +0.001 C 
ATOM     10  C   UNL     1      -5.942  -9.094   8.817  0.00  0.00    +0.000 C 
ENDBRANCH  11   5
BRANCH  14   3
ATOM      3  O   UNL     1      -4.856 -10.265  15.997  0.00  0.00    -0.485 OA
BRANCH   3  17
ATOM     17  C   UNL     1      -5.096 -10.649  17.287  0.00  0.00    +0.121 A 
ATOM     18  C   UNL     1      -6.261 -10.237  17.933  0.00  0.00    +0.045 A 
ATOM     19  C   UNL     1      -4.174 -11.454  17.957  0.00  0.00    +0.045 A 
ATOM     20  C   UNL     1      -6.505 -10.629  19.250  0.00  0.00    +0.004 A 
ATOM     21  C   UNL     1      -4.418 -11.847  19.273  0.00  0.00    +0.004 A 
ATOM     22  C   UNL     1      -5.584 -11.433  19.919  0.00  0.00    +0.000 A 
ENDBRANCH   3  17
ENDBRANCH  14   3
TORSDOF 3
ENDMDL
MODEL 9
REMARK VINA RESULT:      -5.4     25.759     27.768
REMARK  Name = 75367678
REMARK  3 active torsions:
REMARK  status: ('A' for Active; 'I' for Inactive)
REMARK    1  A    between atoms: O_3  and  C_14
REMARK    2  A    between atoms: O_3  and  C_17
REMARK    3  A    between atoms: C_5  and  C_11
REMARK                            x       y       z     vdW  Elec       q    Type
REMARK                         _______ _______ _______ _____ _____    ______ ____
ROOT
ATOM      1  O   UNL     1      17.966  -5.234  29.564  0.00  0.00    -0.375 OA
ATOM      2  O   UNL     1      18.325  -3.907  24.851  0.00  0.00    -0.275 OA
ATOM      4  N   UNL     1      18.039  -3.291  27.082  0.00  0.00    -0.295 N 
ATOM     11  C   UNL     1      17.788  -3.198  25.706  0.00  0.00    +0.219 C 
ATOM     12  C   UNL     1      17.389  -2.418  28.063  0.00  0.00    +0.154 C 
ATOM     13  C   UNL     1      18.999  -4.290  27.558  0.00  0.00    +0.136 C 
ATOM     14  C   UNL     1      17.458  -2.844  29.533  0.00  0.00    +0.216 C 
ATOM     15  C   UNL     1      18.290  -5.476  28.200  0.00  0.00    +0.179 C 
ATOM     16  C   UNL     1      16.945  -4.262  29.769  0.00  0.00    +0.206 C 
ENDROOT
BRANCH  11   5
ATOM      5  C   UNL     1      16.789  -2.162  25.278  0.00  0.00    +0.075 C 
ATOM      6  C   UNL     1      15.812  -2.760  24.263  0.00  0.00    +0.013 C 
ATOM      7  C   UNL     1      17.489  -0.906  24.755  0.00  0.00    +0.013 C 
ATOM      8  C   UNL     1      16.417  -2.916  22.869  0.00  0.00    +0.001 C 
ATOM      9  C   UNL     1      18.064  -1.070  23.349  0.00  0.00    +0.001 C 
ATOM     10  C   UNL     1      17.027  -1.611  22.370  0.00  0.00    +0.000 C 
ENDBRANCH  11   5
BRANCH  14   3
ATOM      3  O   UNL     1      16.633  -1.952  30.286  0.00  0.00    -0.485 OA
BRANCH   3  17
ATOM     17  C   UNL     1      17.249  -1.247  31.282  0.00  0.00    +0.121 A 
ATOM     18  C   UNL     1      16.695  -1.219  32.562  0.00  0.00    +0.045 A 
ATOM     19  C   UNL     1      18.431  -0.554  31.018  0.00  0.00    +0.045 A 
ATOM     20  C   UNL     1      17.324  -0.498  33.578  0.00  0.00    +0.004 A 
ATOM     21  C   UNL     1      19.059   0.166  32.033  0.00  0.00    +0.004 A 
ATOM     22  C   UNL     1      18.505   0.194  33.314  0.00  0.00    +0.000 A 
ENDBRANCH   3  17
ENDBRANCH  14   3
TORSDOF 3
ENDMDL
MODEL 10
REMARK VINA RESULT:      -5.4     24.212     27.554
REMARK  Name = 75367678
REMARK  3 active torsions:
REMARK  status: ('A' for Active; 'I' for Inactive)
REMARK    1  A    between atoms: O_3  and  C_14
REMARK    2  A    between atoms: O_3  and  C_17
REMARK    3  A    between atoms: C_5  and  C_11
REMARK                            x       y       z     vdW  Elec       q    Type
REMARK                         _______ _______ _______ _____ _____    ______ ____
ROOT
ATOM      1  O   UNL     1      14.813   8.676   4.723  0.00  0.00    -0.375 OA
ATOM      2  O   UNL     1      13.035   6.578   0.655  0.00  0.00    -0.275 OA
ATOM      4  N   UNL     1      12.828   6.996   2.940  0.00  0.00    -0.295 N 
ATOM     11  C   UNL     1      12.731   6.201   1.790  0.00  0.00    +0.219 C 
ATOM     12  C   UNL     1      12.441   6.512   4.269  0.00  0.00    +0.154 C 
ATOM     13  C   UNL     1      13.321   8.369   2.809  0.00  0.00    +0.136 C 
ATOM     14  C   UNL     1      12.924   7.322   5.476  0.00  0.00    +0.216 C 
ATOM     15  C   UNL     1      14.754   8.493   3.313  0.00  0.00    +0.179 C 
ATOM     16  C   UNL     1      14.436   7.535   5.486  0.00  0.00    +0.206 C 
ENDROOT
BRANCH  11   5
ATOM      5  C   UNL     1      12.227   4.800   1.986  0.00  0.00    +0.075 C 
ATOM      6  C   UNL     1      13.333   3.793   1.665  0.00  0.00    +0.013 C 
ATOM      7  C   UNL     1      10.952   4.556   1.177  0.00  0.00    +0.013 C 
ATOM      8  C   UNL     1      13.568   3.619   0.166  0.00  0.00    +0.001 C 
ATOM      9  C   UNL     1      11.208   4.356  -0.317  0.00  0.00    +0.001 C 
ATOM     10  C   UNL     1      12.275   3.297  -0.573  0.00  0.00    +0.000 C 
ENDBRANCH  11   5
BRANCH  14   3
ATOM      3  O   UNL     1      12.579   6.594   6.656  0.00  0.00    -0.485 OA
BRANCH   3  17
ATOM     17  C   UNL     1      11.329   6.815   7.165  0.00  0.00    +0.121 A 
ATOM     18  C   UNL     1      10.821   8.112   7.228  0.00  0.00    +0.045 A 
ATOM     19  C   UNL     1      10.564   5.742   7.623  0.00  0.00    +0.045 A 
ATOM     20  C   UNL     1       9.545   8.337   7.748  0.00  0.00    +0.004 A 
ATOM     21  C   UNL     1       9.289   5.967   8.142  0.00  0.00    +0.004 A 
ATOM     22  C   UNL     1       8.780   7.265   8.205  0.00  0.00    +0.000 A 
ENDBRANCH   3  17
ENDBRANCH  14   3
TORSDOF 3
ENDMDL
