MODEL 1
REMARK VINA RESULT:      -7.8      0.000      0.000
REMARK  Name = 45783303
REMARK  4 active torsions:
REMARK  status: ('A' for Active; 'I' for Inactive)
REMARK    1  A    between atoms: N_3  and  C_14
REMARK    2  A    between atoms: C_10  and  C_15
REMARK    3  A    between atoms: C_14  and  C_16
REMARK    4  A    between atoms: C_17  and  C_20
REMARK                            x       y       z     vdW  Elec       q    Type
REMARK                         _______ _______ _______ _____ _____    ______ ____
ROOT
ATOM      1  O   UNL     1      16.284   5.828  18.338  0.00  0.00    -0.336 OA
ATOM      4  N   UNL     1      16.888   6.785  20.272  0.00  0.00    -0.190 NA
ATOM      7  N   UNL     1      17.588   5.388  18.601  0.00  0.00    -0.056 NA
ATOM     15  C   UNL     1      15.949   6.646  19.370  0.00  0.00    +0.245 A 
ATOM     17  C   UNL     1      17.873   5.995  19.756  0.00  0.00    +0.202 A 
ENDROOT
BRANCH  17  20
ATOM      2  O   UNL     1      22.065   9.147  25.039  0.00  0.00    -0.377 OA
ATOM      5  N   UNL     1      21.158   7.485  22.963  0.00  0.00    -0.311 N 
ATOM      9  N   UNL     1      21.589   5.517  21.720  0.00  0.00    -0.240 NA
ATOM     18  C   UNL     1      20.335   7.693  24.158  0.00  0.00    +0.134 C 
ATOM     19  C   UNL     1      22.596   7.731  23.142  0.00  0.00    +0.134 C 
ATOM     20  C   UNL     1      19.134   5.833  20.423  0.00  0.00    +0.027 A 
ATOM     21  C   UNL     1      20.764   6.551  21.998  0.00  0.00    +0.122 A 
ATOM     22  C   UNL     1      20.665   9.044  24.783  0.00  0.00    +0.178 C 
ATOM     23  C   UNL     1      22.805   9.081  23.820  0.00  0.00    +0.178 C 
ATOM     24  C   UNL     1      19.539   6.752  21.384  0.00  0.00    +0.055 A 
ATOM     27  C   UNL     1      19.956   4.757  20.108  0.00  0.00    +0.031 A 
ATOM     28  C   UNL     1      21.162   4.644  20.780  0.00  0.00    +0.113 A 
ENDBRANCH  17  20
BRANCH  15  10
ATOM      3  N   UNL     1      14.431   8.428  20.215  0.00  0.00    -0.284 NA
ATOM     10  C   UNL     1      14.565   7.259  19.322  0.00  0.00    +0.146 C 
ATOM     11  C   UNL     1      14.200   7.793  17.924  0.00  0.00    +0.030 C 
ATOM     12  C   UNL     1      13.816   9.249  18.141  0.00  0.00    +0.017 C 
ATOM     13  C   UNL     1      13.429   9.302  19.605  0.00  0.00    +0.085 C 
BRANCH   3  14
ATOM     14  C   UNL     1      14.085   8.068  21.583  0.00  0.00    +0.159 C 
BRANCH  14  16
ATOM      6  N   UNL     1      12.420   6.204  21.412  0.00  0.00    -0.347 N 
ATOM      8  N   UNL     1      11.602   8.177  22.021  0.00  0.00    -0.239 NA
ATOM     16  C   UNL     1      12.688   7.517  21.683  0.00  0.00    +0.121 A 
ATOM     25  C   UNL     1      11.078   6.013  21.589  0.00  0.00    +0.104 A 
ATOM     26  C   UNL     1      10.595   7.246  21.964  0.00  0.00    +0.130 A 
ATOM     29  H   UNL     1      13.090   5.499  21.134  0.00  0.00    +0.167 HD
ENDBRANCH  14  16
ENDBRANCH   3  14
ENDBRANCH  15  10
TORSDOF 4
ENDMDL
MODEL 2
REMARK VINA RESULT:      -7.6      1.891      2.893
REMARK  Name = 45783303
REMARK  4 active torsions:
REMARK  status: ('A' for Active; 'I' for Inactive)
REMARK    1  A    between atoms: N_3  and  C_14
REMARK    2  A    between atoms: C_10  and  C_15
REMARK    3  A    between atoms: C_14  and  C_16
REMARK    4  A    between atoms: C_17  and  C_20
REMARK                            x       y       z     vdW  Elec       q    Type
REMARK                         _______ _______ _______ _____ _____    ______ ____
ROOT
ATOM      1  O   UNL     1      16.724   5.886  18.935  0.00  0.00    -0.336 OA
ATOM      4  N   UNL     1      16.967   7.246  20.698  0.00  0.00    -0.190 NA
ATOM      7  N   UNL     1      18.033   5.697  19.396  0.00  0.00    -0.056 NA
ATOM     15  C   UNL     1      16.167   6.812  19.757  0.00  0.00    +0.245 A 
ATOM     17  C   UNL     1      18.100   6.533  20.436  0.00  0.00    +0.202 A 
ENDROOT
BRANCH  17  20
ATOM      2  O   UNL     1      24.549   3.112  21.895  0.00  0.00    -0.377 OA
ATOM      5  N   UNL     1      22.381   4.900  21.951  0.00  0.00    -0.311 N 
ATOM      9  N   UNL     1      21.589   6.968  22.787  0.00  0.00    -0.240 NA
ATOM     18  C   UNL     1      23.044   4.578  20.682  0.00  0.00    +0.134 C 
ATOM     19  C   UNL     1      23.196   4.683  23.154  0.00  0.00    +0.134 C 
ATOM     20  C   UNL     1      19.284   6.680  21.234  0.00  0.00    +0.027 A 
ATOM     21  C   UNL     1      21.396   5.892  21.991  0.00  0.00    +0.122 A 
ATOM     22  C   UNL     1      23.677   3.194  20.768  0.00  0.00    +0.178 C 
ATOM     23  C   UNL     1      23.820   3.292  23.109  0.00  0.00    +0.178 C 
ATOM     24  C   UNL     1      20.272   5.703  21.203  0.00  0.00    +0.055 A 
ATOM     27  C   UNL     1      19.446   7.800  22.040  0.00  0.00    +0.031 A 
ATOM     28  C   UNL     1      20.606   7.896  22.791  0.00  0.00    +0.113 A 
ENDBRANCH  17  20
BRANCH  15  10
ATOM      3  N   UNL     1      14.352   8.486  20.076  0.00  0.00    -0.284 NA
ATOM     10  C   UNL     1      14.731   7.196  19.466  0.00  0.00    +0.146 C 
ATOM     11  C   UNL     1      14.459   7.381  17.961  0.00  0.00    +0.030 C 
ATOM     12  C   UNL     1      13.873   8.780  17.831  0.00  0.00    +0.017 C 
ATOM     13  C   UNL     1      13.323   9.066  19.213  0.00  0.00    +0.085 C 
BRANCH   3  14
ATOM     14  C   UNL     1      13.905   8.360  21.456  0.00  0.00    +0.159 C 
BRANCH  14  16
ATOM      6  N   UNL     1      12.535   6.263  21.377  0.00  0.00    -0.347 N 
ATOM      8  N   UNL     1      11.418   8.131  21.815  0.00  0.00    -0.239 NA
ATOM     16  C   UNL     1      12.600   7.617  21.557  0.00  0.00    +0.121 A 
ATOM     25  C   UNL     1      11.230   5.890  21.530  0.00  0.00    +0.104 A 
ATOM     26  C   UNL     1      10.559   7.060  21.799  0.00  0.00    +0.130 A 
ATOM     29  H   UNL     1      13.311   5.647  21.170  0.00  0.00    +0.167 HD
ENDBRANCH  14  16
ENDBRANCH   3  14
ENDBRANCH  15  10
TORSDOF 4
ENDMDL
MODEL 3
REMARK VINA RESULT:      -7.5     16.844     20.859
REMARK  Name = 45783303
REMARK  4 active torsions:
REMARK  status: ('A' for Active; 'I' for Inactive)
REMARK    1  A    between atoms: N_3  and  C_14
REMARK    2  A    between atoms: C_10  and  C_15
REMARK    3  A    between atoms: C_14  and  C_16
REMARK    4  A    between atoms: C_17  and  C_20
REMARK                            x       y       z     vdW  Elec       q    Type
REMARK                         _______ _______ _______ _____ _____    ______ ____
ROOT
ATOM      1  O   UNL     1      10.874   6.946   3.876  0.00  0.00    -0.336 OA
ATOM      4  N   UNL     1      10.667   4.736   3.578  0.00  0.00    -0.190 NA
ATOM      7  N   UNL     1      11.487   6.659   2.649  0.00  0.00    -0.056 NA
ATOM     15  C   UNL     1      10.418   5.760   4.355  0.00  0.00    +0.245 A 
ATOM     17  C   UNL     1      11.323   5.337   2.544  0.00  0.00    +0.202 A 
ENDROOT
BRANCH  17  20
ATOM      2  O   UNL     1       9.481   3.587  -4.453  0.00  0.00    -0.377 OA
ATOM      5  N   UNL     1      10.789   3.713  -1.969  0.00  0.00    -0.311 N 
ATOM      9  N   UNL     1      12.744   3.126  -0.770  0.00  0.00    -0.240 NA
ATOM     18  C   UNL     1      10.450   4.943  -2.691  0.00  0.00    +0.134 C 
ATOM     19  C   UNL     1      10.893   2.507  -2.802  0.00  0.00    +0.134 C 
ATOM     20  C   UNL     1      11.805   4.586   1.420  0.00  0.00    +0.027 A 
ATOM     21  C   UNL     1      11.560   3.777  -0.803  0.00  0.00    +0.122 A 
ATOM     22  C   UNL     1       9.244   4.698  -3.590  0.00  0.00    +0.178 C 
ATOM     23  C   UNL     1       9.662   2.391  -3.695  0.00  0.00    +0.178 C 
ATOM     24  C   UNL     1      11.051   4.514   0.254  0.00  0.00    +0.055 A 
ATOM     27  C   UNL     1      13.027   3.929   1.492  0.00  0.00    +0.031 A 
ATOM     28  C   UNL     1      13.449   3.218   0.380  0.00  0.00    +0.113 A 
ENDBRANCH  17  20
BRANCH  15  10
ATOM      3  N   UNL     1      10.273   6.810   6.606  0.00  0.00    -0.284 NA
ATOM     10  C   UNL     1       9.705   5.801   5.690  0.00  0.00    +0.146 C 
ATOM     11  C   UNL     1       8.219   6.185   5.559  0.00  0.00    +0.030 C 
ATOM     12  C   UNL     1       8.033   7.381   6.482  0.00  0.00    +0.017 C 
ATOM     13  C   UNL     1       9.176   7.250   7.469  0.00  0.00    +0.085 C 
BRANCH   3  14
ATOM     14  C   UNL     1      11.409   6.316   7.373  0.00  0.00    +0.159 C 
BRANCH  14  16
ATOM      6  N   UNL     1      13.895   6.383   7.070  0.00  0.00    -0.347 N 
ATOM      8  N   UNL     1      12.811   8.256   6.576  0.00  0.00    -0.239 NA
ATOM     16  C   UNL     1      12.686   7.018   6.998  0.00  0.00    +0.121 A 
ATOM     25  C   UNL     1      14.852   7.273   6.670  0.00  0.00    +0.104 A 
ATOM     26  C   UNL     1      14.158   8.422   6.370  0.00  0.00    +0.130 A 
ATOM     29  H   UNL     1      14.056   5.428   7.365  0.00  0.00    +0.167 HD
ENDBRANCH  14  16
ENDBRANCH   3  14
ENDBRANCH  15  10
TORSDOF 4
ENDMDL
MODEL 4
REMARK VINA RESULT:      -7.5     27.927     30.114
REMARK  Name = 45783303
REMARK  4 active torsions:
REMARK  status: ('A' for Active; 'I' for Inactive)
REMARK    1  A    between atoms: N_3  and  C_14
REMARK    2  A    between atoms: C_10  and  C_15
REMARK    3  A    between atoms: C_14  and  C_16
REMARK    4  A    between atoms: C_17  and  C_20
REMARK                            x       y       z     vdW  Elec       q    Type
REMARK                         _______ _______ _______ _____ _____    ______ ____
ROOT
ATOM      1  O   UNL     1      -4.454 -12.187  16.732  0.00  0.00    -0.336 OA
ATOM      4  N   UNL     1      -4.730 -10.204  15.728  0.00  0.00    -0.190 NA
ATOM      7  N   UNL     1      -3.813 -12.286  15.491  0.00  0.00    -0.056 NA
ATOM     15  C   UNL     1      -4.967 -10.931  16.791  0.00  0.00    +0.245 A 
ATOM     17  C   UNL     1      -4.019 -11.078  14.959  0.00  0.00    +0.202 A 
ENDROOT
BRANCH  17  20
ATOM      2  O   UNL     1      -6.447  -8.892   8.269  0.00  0.00    -0.377 OA
ATOM      5  N   UNL     1      -4.806  -9.724  10.394  0.00  0.00    -0.311 N 
ATOM      9  N   UNL     1      -2.573  -9.997  11.134  0.00  0.00    -0.240 NA
ATOM     18  C   UNL     1      -5.735  -8.604  10.571  0.00  0.00    +0.134 C 
ATOM     19  C   UNL     1      -4.418 -10.002   9.004  0.00  0.00    +0.134 C 
ATOM     20  C   UNL     1      -3.529 -10.711  13.661  0.00  0.00    +0.027 A 
ATOM     21  C   UNL     1      -3.896 -10.043  11.408  0.00  0.00    +0.122 A 
ATOM     22  C   UNL     1      -6.911  -8.754   9.611  0.00  0.00    +0.178 C 
ATOM     23  C   UNL     1      -5.664 -10.078   8.129  0.00  0.00    +0.178 C 
ATOM     24  C   UNL     1      -4.420 -10.391  12.643  0.00  0.00    +0.055 A 
ATOM     27  C   UNL     1      -2.161 -10.676  13.416  0.00  0.00    +0.031 A 
ATOM     28  C   UNL     1      -1.738 -10.316  12.148  0.00  0.00    +0.113 A 
ENDBRANCH  17  20
BRANCH  15  10
ATOM      3  N   UNL     1      -7.184 -10.579  17.865  0.00  0.00    -0.284 NA
ATOM     10  C   UNL     1      -5.720 -10.568  18.054  0.00  0.00    +0.146 C 
ATOM     11  C   UNL     1      -5.468 -11.562  19.203  0.00  0.00    +0.030 C 
ATOM     12  C   UNL     1      -6.849 -12.033  19.634  0.00  0.00    +0.017 C 
ATOM     13  C   UNL     1      -7.767 -10.923  19.162  0.00  0.00    +0.085 C 
BRANCH   3  14
ATOM     14  C   UNL     1      -7.706  -9.322  17.345  0.00  0.00    +0.159 C 
BRANCH  14  16
ATOM      6  N   UNL     1      -7.603  -9.485  14.847  0.00  0.00    -0.347 N 
ATOM      8  N   UNL     1      -9.626  -9.671  15.745  0.00  0.00    -0.239 NA
ATOM     16  C   UNL     1      -8.347  -9.496  15.995  0.00  0.00    +0.121 A 
ATOM     25  C   UNL     1      -8.462  -9.665  13.799  0.00  0.00    +0.104 A 
ATOM     26  C   UNL     1      -9.704  -9.776  14.379  0.00  0.00    +0.130 A 
ATOM     29  H   UNL     1      -6.600  -9.368  14.782  0.00  0.00    +0.167 HD
ENDBRANCH  14  16
ENDBRANCH   3  14
ENDBRANCH  15  10
TORSDOF 4
ENDMDL
MODEL 5
REMARK VINA RESULT:      -7.4      1.587      3.182
REMARK  Name = 45783303
REMARK  4 active torsions:
REMARK  status: ('A' for Active; 'I' for Inactive)
REMARK    1  A    between atoms: N_3  and  C_14
REMARK    2  A    between atoms: C_10  and  C_15
REMARK    3  A    between atoms: C_14  and  C_16
REMARK    4  A    between atoms: C_17  and  C_20
REMARK                            x       y       z     vdW  Elec       q    Type
REMARK                         _______ _______ _______ _____ _____    ______ ____
ROOT
ATOM      1  O   UNL     1      14.710   6.787  19.349  0.00  0.00    -0.336 OA
ATOM      4  N   UNL     1      15.927   7.550  21.067  0.00  0.00    -0.190 NA
ATOM      7  N   UNL     1      15.981   6.217  19.209  0.00  0.00    -0.056 NA
ATOM     15  C   UNL     1      14.764   7.556  20.467  0.00  0.00    +0.245 A 
ATOM     17  C   UNL     1      16.641   6.714  20.260  0.00  0.00    +0.202 A 
ENDROOT
BRANCH  17  20
ATOM      2  O   UNL     1      22.285   8.753  24.665  0.00  0.00    -0.377 OA
ATOM      5  N   UNL     1      20.746   7.510  22.668  0.00  0.00    -0.311 N 
ATOM      9  N   UNL     1      20.687   5.775  21.058  0.00  0.00    -0.240 NA
ATOM     18  C   UNL     1      20.277   7.533  24.058  0.00  0.00    +0.134 C 
ATOM     19  C   UNL     1      22.196   7.672  22.495  0.00  0.00    +0.134 C 
ATOM     20  C   UNL     1      18.014   6.396  20.530  0.00  0.00    +0.027 A 
ATOM     21  C   UNL     1      20.046   6.773  21.708  0.00  0.00    +0.122 A 
ATOM     22  C   UNL     1      20.862   8.743  24.779  0.00  0.00    +0.178 C 
ATOM     23  C   UNL     1      22.679   8.875  23.298  0.00  0.00    +0.178 C 
ATOM     24  C   UNL     1      18.723   7.119  21.483  0.00  0.00    +0.055 A 
ATOM     27  C   UNL     1      18.640   5.364  19.841  0.00  0.00    +0.031 A 
ATOM     28  C   UNL     1      19.966   5.095  20.139  0.00  0.00    +0.113 A 
ENDBRANCH  17  20
BRANCH  15  10
ATOM      3  N   UNL     1      12.697   8.686  19.662  0.00  0.00    -0.284 NA
ATOM     10  C   UNL     1      13.493   8.291  20.841  0.00  0.00    +0.146 C 
ATOM     11  C   UNL     1      12.537   7.432  21.689  0.00  0.00    +0.030 C 
ATOM     12  C   UNL     1      11.213   7.451  20.938  0.00  0.00    +0.017 C 
ATOM     13  C   UNL     1      11.299   8.707  20.095  0.00  0.00    +0.085 C 
BRANCH   3  14
ATOM     14  C   UNL     1      13.112   9.958  19.087  0.00  0.00    +0.159 C 
BRANCH  14  16
ATOM      6  N   UNL     1      13.707   8.582  17.080  0.00  0.00    -0.347 N 
ATOM      8  N   UNL     1      13.792  10.784  16.802  0.00  0.00    -0.239 NA
ATOM     16  C   UNL     1      13.538   9.813  17.651  0.00  0.00    +0.121 A 
ATOM     25  C   UNL     1      14.092   8.780  15.784  0.00  0.00    +0.104 A 
ATOM     26  C   UNL     1      14.138  10.147  15.636  0.00  0.00    +0.130 A 
ATOM     29  H   UNL     1      13.571   7.686  17.531  0.00  0.00    +0.167 HD
ENDBRANCH  14  16
ENDBRANCH   3  14
ENDBRANCH  15  10
TORSDOF 4
ENDMDL
MODEL 6
REMARK VINA RESULT:      -7.0      3.142      4.180
REMARK  Name = 45783303
REMARK  4 active torsions:
REMARK  status: ('A' for Active; 'I' for Inactive)
REMARK    1  A    between atoms: N_3  and  C_14
REMARK    2  A    between atoms: C_10  and  C_15
REMARK    3  A    between atoms: C_14  and  C_16
REMARK    4  A    between atoms: C_17  and  C_20
REMARK                            x       y       z     vdW  Elec       q    Type
REMARK                         _______ _______ _______ _____ _____    ______ ____
ROOT
ATOM      1  O   UNL     1      13.563   8.827  21.857  0.00  0.00    -0.336 OA
ATOM      4  N   UNL     1      14.675   8.966  19.917  0.00  0.00    -0.190 NA
ATOM      7  N   UNL     1      14.602   7.891  21.935  0.00  0.00    -0.056 NA
ATOM     15  C   UNL     1      13.678   9.415  20.638  0.00  0.00    +0.245 A 
ATOM     17  C   UNL     1      15.212   8.033  20.756  0.00  0.00    +0.202 A 
ENDROOT
BRANCH  17  20
ATOM      2  O   UNL     1      22.334   6.973  22.645  0.00  0.00    -0.377 OA
ATOM      5  N   UNL     1      19.859   6.858  21.319  0.00  0.00    -0.311 N 
ATOM      9  N   UNL     1      18.596   5.746  19.654  0.00  0.00    -0.240 NA
ATOM     18  C   UNL     1      19.936   6.630  22.765  0.00  0.00    +0.134 C 
ATOM     19  C   UNL     1      21.108   6.623  20.581  0.00  0.00    +0.134 C 
ATOM     20  C   UNL     1      16.361   7.257  20.382  0.00  0.00    +0.027 A 
ATOM     21  C   UNL     1      18.649   6.664  20.645  0.00  0.00    +0.122 A 
ATOM     22  C   UNL     1      21.148   7.356  23.339  0.00  0.00    +0.178 C 
ATOM     23  C   UNL     1      22.257   7.351  21.270  0.00  0.00    +0.178 C 
ATOM     24  C   UNL     1      17.570   7.438  21.043  0.00  0.00    +0.055 A 
ATOM     27  C   UNL     1      16.268   6.323  19.357  0.00  0.00    +0.031 A 
ATOM     28  C   UNL     1      17.404   5.599  19.034  0.00  0.00    +0.113 A 
ENDBRANCH  17  20
BRANCH  15  10
ATOM      3  N   UNL     1      12.395  11.392  21.436  0.00  0.00    -0.284 NA
ATOM     10  C   UNL     1      12.656  10.481  20.304  0.00  0.00    +0.146 C 
ATOM     11  C   UNL     1      13.112  11.404  19.158  0.00  0.00    +0.030 C 
ATOM     12  C   UNL     1      13.017  12.815  19.720  0.00  0.00    +0.017 C 
ATOM     13  C   UNL     1      12.020  12.680  20.854  0.00  0.00    +0.085 C 
BRANCH   3  14
ATOM     14  C   UNL     1      11.384  10.891  22.356  0.00  0.00    +0.159 C 
BRANCH  14  16
ATOM      6  N   UNL     1      10.240  12.174  24.179  0.00  0.00    -0.347 N 
ATOM      8  N   UNL     1      12.426  11.879  24.431  0.00  0.00    -0.239 NA
ATOM     16  C   UNL     1      11.388  11.643  23.660  0.00  0.00    +0.121 A 
ATOM     25  C   UNL     1      10.567  12.788  25.355  0.00  0.00    +0.104 A 
ATOM     26  C   UNL     1      11.922  12.593  25.489  0.00  0.00    +0.130 A 
ATOM     29  H   UNL     1       9.315  12.123  23.771  0.00  0.00    +0.167 HD
ENDBRANCH  14  16
ENDBRANCH   3  14
ENDBRANCH  15  10
TORSDOF 4
ENDMDL
MODEL 7
REMARK VINA RESULT:      -7.0      2.365      8.362
REMARK  Name = 45783303
REMARK  4 active torsions:
REMARK  status: ('A' for Active; 'I' for Inactive)
REMARK    1  A    between atoms: N_3  and  C_14
REMARK    2  A    between atoms: C_10  and  C_15
REMARK    3  A    between atoms: C_14  and  C_16
REMARK    4  A    between atoms: C_17  and  C_20
REMARK                            x       y       z     vdW  Elec       q    Type
REMARK                         _______ _______ _______ _____ _____    ______ ____
ROOT
ATOM      1  O   UNL     1      19.848   4.961  20.162  0.00  0.00    -0.336 OA
ATOM      4  N   UNL     1      19.813   6.667  21.613  0.00  0.00    -0.190 NA
ATOM      7  N   UNL     1      18.667   5.669  19.904  0.00  0.00    -0.056 NA
ATOM     15  C   UNL     1      20.462   5.616  21.182  0.00  0.00    +0.245 A 
ATOM     17  C   UNL     1      18.719   6.659  20.799  0.00  0.00    +0.202 A 
ENDROOT
BRANCH  17  20
ATOM      2  O   UNL     1      11.493   7.703  19.341  0.00  0.00    -0.377 OA
ATOM      5  N   UNL     1      14.172   8.112  20.087  0.00  0.00    -0.311 N 
ATOM      9  N   UNL     1      15.696   9.601  21.119  0.00  0.00    -0.240 NA
ATOM     18  C   UNL     1      13.410   6.992  20.648  0.00  0.00    +0.134 C 
ATOM     19  C   UNL     1      13.362   9.231  19.584  0.00  0.00    +0.134 C 
ATOM     20  C   UNL     1      17.693   7.657  20.907  0.00  0.00    +0.027 A 
ATOM     21  C   UNL     1      15.457   8.391  20.565  0.00  0.00    +0.122 A 
ATOM     22  C   UNL     1      12.308   6.581  19.678  0.00  0.00    +0.178 C 
ATOM     23  C   UNL     1      12.264   8.700  18.669  0.00  0.00    +0.178 C 
ATOM     24  C   UNL     1      16.411   7.395  20.437  0.00  0.00    +0.055 A 
ATOM     27  C   UNL     1      17.978   8.891  21.481  0.00  0.00    +0.031 A 
ATOM     28  C   UNL     1      16.954   9.820  21.564  0.00  0.00    +0.113 A 
ENDBRANCH  17  20
BRANCH  15  10
ATOM      3  N   UNL     1      21.910   5.049  23.125  0.00  0.00    -0.284 NA
ATOM     10  C   UNL     1      21.781   5.040  21.654  0.00  0.00    +0.146 C 
ATOM     11  C   UNL     1      21.962   3.564  21.256  0.00  0.00    +0.030 C 
ATOM     12  C   UNL     1      22.248   2.831  22.559  0.00  0.00    +0.017 C 
ATOM     13  C   UNL     1      22.773   3.920  23.473  0.00  0.00    +0.085 C 
BRANCH   3  14
ATOM     14  C   UNL     1      22.418   6.310  23.650  0.00  0.00    +0.159 C 
BRANCH  14  16
ATOM      6  N   UNL     1      22.398   7.285  25.958  0.00  0.00    -0.347 N 
ATOM      8  N   UNL     1      20.437   6.578  25.190  0.00  0.00    -0.239 NA
ATOM     16  C   UNL     1      21.717   6.712  24.919  0.00  0.00    +0.121 A 
ATOM     25  C   UNL     1      21.495   7.532  26.954  0.00  0.00    +0.104 A 
ATOM     26  C   UNL     1      20.293   7.087  26.457  0.00  0.00    +0.130 A 
ATOM     29  H   UNL     1      23.388   7.491  25.986  0.00  0.00    +0.167 HD
ENDBRANCH  14  16
ENDBRANCH   3  14
ENDBRANCH  15  10
TORSDOF 4
ENDMDL
MODEL 8
REMARK VINA RESULT:      -7.0     16.696     20.490
REMARK  Name = 45783303
REMARK  4 active torsions:
REMARK  status: ('A' for Active; 'I' for Inactive)
REMARK    1  A    between atoms: N_3  and  C_14
REMARK    2  A    between atoms: C_10  and  C_15
REMARK    3  A    between atoms: C_14  and  C_16
REMARK    4  A    between atoms: C_17  and  C_20
REMARK                            x       y       z     vdW  Elec       q    Type
REMARK                         _______ _______ _______ _____ _____    ______ ____
ROOT
ATOM      1  O   UNL     1      11.780   6.808   4.198  0.00  0.00    -0.336 OA
ATOM      4  N   UNL     1      10.758   5.022   3.313  0.00  0.00    -0.190 NA
ATOM      7  N   UNL     1      12.537   6.441   3.078  0.00  0.00    -0.056 NA
ATOM     15  C   UNL     1      10.752   5.922   4.263  0.00  0.00    +0.245 A 
ATOM     17  C   UNL     1      11.871   5.381   2.610  0.00  0.00    +0.202 A 
ENDROOT
BRANCH  17  20
ATOM      2  O   UNL     1       9.447   3.387  -4.140  0.00  0.00    -0.377 OA
ATOM      5  N   UNL     1      10.997   3.656  -1.811  0.00  0.00    -0.311 N 
ATOM      9  N   UNL     1      13.112   3.251  -0.827  0.00  0.00    -0.240 NA
ATOM     18  C   UNL     1      10.480   4.844  -2.498  0.00  0.00    +0.134 C 
ATOM     19  C   UNL     1      11.113   2.451  -2.645  0.00  0.00    +0.134 C 
ATOM     20  C   UNL     1      12.291   4.658   1.444  0.00  0.00    +0.027 A 
ATOM     21  C   UNL     1      11.880   3.800  -0.736  0.00  0.00    +0.122 A 
ATOM     22  C   UNL     1       9.209   4.486  -3.261  0.00  0.00    +0.178 C 
ATOM     23  C   UNL     1       9.808   2.221  -3.399  0.00  0.00    +0.178 C 
ATOM     24  C   UNL     1      11.426   4.506   0.367  0.00  0.00    +0.055 A 
ATOM     27  C   UNL     1      13.566   4.106   1.388  0.00  0.00    +0.031 A 
ATOM     28  C   UNL     1      13.925   3.418   0.240  0.00  0.00    +0.113 A 
ENDBRANCH  17  20
BRANCH  15  10
ATOM      3  N   UNL     1      10.265   7.054   6.426  0.00  0.00    -0.284 NA
ATOM     10  C   UNL     1       9.774   6.107   5.404  0.00  0.00    +0.146 C 
ATOM     11  C   UNL     1       8.427   6.695   4.944  0.00  0.00    +0.030 C 
ATOM     12  C   UNL     1       8.218   7.934   5.803  0.00  0.00    +0.017 C 
ATOM     13  C   UNL     1       9.081   7.673   7.021  0.00  0.00    +0.085 C 
BRANCH   3  14
ATOM     14  C   UNL     1      11.118   6.427   7.427  0.00  0.00    +0.159 C 
BRANCH  14  16
ATOM      6  N   UNL     1      10.186   4.203   8.105  0.00  0.00    -0.347 N 
ATOM      8  N   UNL     1       9.724   5.898   9.462  0.00  0.00    -0.239 NA
ATOM     16  C   UNL     1      10.334   5.539   8.355  0.00  0.00    +0.121 A 
ATOM     25  C   UNL     1       9.432   3.676   9.116  0.00  0.00    +0.104 A 
ATOM     26  C   UNL     1       9.159   4.742   9.942  0.00  0.00    +0.130 A 
ATOM     29  H   UNL     1      10.564   3.693   7.317  0.00  0.00    +0.167 HD
ENDBRANCH  14  16
ENDBRANCH   3  14
ENDBRANCH  15  10
TORSDOF 4
ENDMDL
MODEL 9
REMARK VINA RESULT:      -6.9     14.630     16.992
REMARK  Name = 45783303
REMARK  4 active torsions:
REMARK  status: ('A' for Active; 'I' for Inactive)
REMARK    1  A    between atoms: N_3  and  C_14
REMARK    2  A    between atoms: C_10  and  C_15
REMARK    3  A    between atoms: C_14  and  C_16
REMARK    4  A    between atoms: C_17  and  C_20
REMARK                            x       y       z     vdW  Elec       q    Type
REMARK                         _______ _______ _______ _____ _____    ______ ____
ROOT
ATOM      1  O   UNL     1      13.110   6.732   6.900  0.00  0.00    -0.336 OA
ATOM      4  N   UNL     1      13.248   7.311   4.740  0.00  0.00    -0.190 NA
ATOM      7  N   UNL     1      14.444   7.096   6.678  0.00  0.00    -0.056 NA
ATOM     15  C   UNL     1      12.475   6.888   5.709  0.00  0.00    +0.245 A 
ATOM     17  C   UNL     1      14.446   7.424   5.383  0.00  0.00    +0.202 A 
ENDROOT
BRANCH  17  20
ATOM      2  O   UNL     1      21.242  10.132   6.758  0.00  0.00    -0.377 OA
ATOM      5  N   UNL     1      18.906   9.265   5.458  0.00  0.00    -0.311 N 
ATOM      9  N   UNL     1      17.929   8.731   3.370  0.00  0.00    -0.240 NA
ATOM     18  C   UNL     1      19.567   8.406   6.446  0.00  0.00    +0.134 C 
ATOM     19  C   UNL     1      19.767  10.282   4.838  0.00  0.00    +0.134 C 
ATOM     20  C   UNL     1      15.627   7.868   4.700  0.00  0.00    +0.027 A 
ATOM     21  C   UNL     1      17.827   8.774   4.717  0.00  0.00    +0.122 A 
ATOM     22  C   UNL     1      20.340   9.264   7.442  0.00  0.00    +0.178 C 
ATOM     23  C   UNL     1      20.528  11.041   5.919  0.00  0.00    +0.178 C 
ATOM     24  C   UNL     1      16.709   8.358   5.423  0.00  0.00    +0.055 A 
ATOM     27  C   UNL     1      15.694   7.810   3.313  0.00  0.00    +0.031 A 
ATOM     28  C   UNL     1      16.857   8.250   2.701  0.00  0.00    +0.113 A 
ENDBRANCH  17  20
BRANCH  15  10
ATOM      3  N   UNL     1      10.710   5.300   4.962  0.00  0.00    -0.284 NA
ATOM     10  C   UNL     1      10.998   6.556   5.683  0.00  0.00    +0.146 C 
ATOM     11  C   UNL     1      10.413   6.340   7.091  0.00  0.00    +0.030 C 
ATOM     12  C   UNL     1       9.765   4.963   7.048  0.00  0.00    +0.017 C 
ATOM     13  C   UNL     1       9.505   4.739   5.572  0.00  0.00    +0.085 C 
BRANCH   3  14
ATOM     14  C   UNL     1      10.564   5.483   3.525  0.00  0.00    +0.159 C 
BRANCH  14  16
ATOM      6  N   UNL     1      12.811   5.319   2.428  0.00  0.00    -0.347 N 
ATOM      8  N   UNL     1      11.544   3.499   2.313  0.00  0.00    -0.239 NA
ATOM     16  C   UNL     1      11.618   4.735   2.753  0.00  0.00    +0.121 A 
ATOM     25  C   UNL     1      13.545   4.396   1.737  0.00  0.00    +0.104 A 
ATOM     26  C   UNL     1      12.742   3.281   1.678  0.00  0.00    +0.130 A 
ATOM     29  H   UNL     1      13.101   6.261   2.657  0.00  0.00    +0.167 HD
ENDBRANCH  14  16
ENDBRANCH   3  14
ENDBRANCH  15  10
TORSDOF 4
ENDMDL
MODEL 10
REMARK VINA RESULT:      -6.8     26.917     29.872
REMARK  Name = 45783303
REMARK  4 active torsions:
REMARK  status: ('A' for Active; 'I' for Inactive)
REMARK    1  A    between atoms: N_3  and  C_14
REMARK    2  A    between atoms: C_10  and  C_15
REMARK    3  A    between atoms: C_14  and  C_16
REMARK    4  A    between atoms: C_17  and  C_20
REMARK                            x       y       z     vdW  Elec       q    Type
REMARK                         _______ _______ _______ _____ _____    ______ ____
ROOT
ATOM      1  O   UNL     1      -2.987 -10.245  10.509  0.00  0.00    -0.336 OA
ATOM      4  N   UNL     1      -4.488 -10.642  12.124  0.00  0.00    -0.190 NA
ATOM      7  N   UNL     1      -2.266 -10.288  11.709  0.00  0.00    -0.056 NA
ATOM     15  C   UNL     1      -4.286 -10.463  10.843  0.00  0.00    +0.245 A 
ATOM     17  C   UNL     1      -3.220 -10.526  12.614  0.00  0.00    +0.202 A 
ENDROOT
BRANCH  17  20
ATOM      2  O   UNL     1      -6.458 -12.589  18.992  0.00  0.00    -0.377 OA
ATOM      5  N   UNL     1      -4.624 -11.603  17.104  0.00  0.00    -0.311 N 
ATOM      9  N   UNL     1      -2.392 -10.900  16.746  0.00  0.00    -0.240 NA
ATOM     18  C   UNL     1      -5.249 -12.916  16.914  0.00  0.00    +0.134 C 
ATOM     19  C   UNL     1      -4.593 -11.119  18.491  0.00  0.00    +0.134 C 
ATOM     20  C   UNL     1      -2.940 -10.652  14.016  0.00  0.00    +0.027 A 
ATOM     21  C   UNL     1      -3.613 -11.179  16.235  0.00  0.00    +0.122 A 
ATOM     22  C   UNL     1      -6.601 -12.951  17.619  0.00  0.00    +0.178 C 
ATOM     23  C   UNL     1      -5.980 -11.249  19.112  0.00  0.00    +0.178 C 
ATOM     24  C   UNL     1      -3.934 -11.073  14.892  0.00  0.00    +0.055 A 
ATOM     27  C   UNL     1      -1.672 -10.354  14.503  0.00  0.00    +0.031 A 
ATOM     28  C   UNL     1      -1.452 -10.493  15.864  0.00  0.00    +0.113 A 
ENDBRANCH  17  20
BRANCH  15  10
ATOM      3  N   UNL     1      -5.180  -9.264   8.854  0.00  0.00    -0.284 NA
ATOM     10  C   UNL     1      -5.283 -10.467   9.704  0.00  0.00    +0.146 C 
ATOM     11  C   UNL     1      -5.078 -11.647   8.737  0.00  0.00    +0.030 C 
ATOM     12  C   UNL     1      -4.927 -11.014   7.361  0.00  0.00    +0.017 C 
ATOM     13  C   UNL     1      -5.604  -9.666   7.513  0.00  0.00    +0.085 C 
BRANCH   3  14
ATOM     14  C   UNL     1      -5.951  -8.136   9.358  0.00  0.00    +0.159 C 
BRANCH  14  16
ATOM      6  N   UNL     1      -7.450  -6.990   7.709  0.00  0.00    -0.347 N 
ATOM      8  N   UNL     1      -8.332  -8.729   8.772  0.00  0.00    -0.239 NA
ATOM     16  C   UNL     1      -7.260  -7.982   8.631  0.00  0.00    +0.121 A 
ATOM     25  C   UNL     1      -8.725  -7.113   7.232  0.00  0.00    +0.104 A 
ATOM     26  C   UNL     1      -9.250  -8.193   7.903  0.00  0.00    +0.130 A 
ATOM     29  H   UNL     1      -6.773  -6.293   7.428  0.00  0.00    +0.167 HD
ENDBRANCH  14  16
ENDBRANCH   3  14
ENDBRANCH  15  10
TORSDOF 4
ENDMDL
