REMARK  Name = 7134432
REMARK  12 active torsions:
REMARK  status: ('A' for Active; 'I' for Inactive)
REMARK    1  A    between atoms: S_1  and  N_10
REMARK    2  A    between atoms: S_1  and  C_22
REMARK    3  A    between atoms: O_3  and  C_13
REMARK    4  A    between atoms: O_4  and  C_15
REMARK    5  A    between atoms: O_9  and  C_32
REMARK    6  A    between atoms: O_9  and  C_33
REMARK    7  A    between atoms: N_10  and  C_14
REMARK    8  A    between atoms: N_11  and  C_20
REMARK    9  A    between atoms: C_17  and  C_19
REMARK   10  A    between atoms: C_20  and  C_21
REMARK   11  A    between atoms: C_20  and  C_24
REMARK   12  A    between atoms: C_21  and  C_23
REMARK                            x       y       z     vdW  Elec       q    Type
REMARK                         _______ _______ _______ _____ _____    ______ ____
ROOT
ATOM     13  C   UNL     1      -2.555   2.085   0.837  0.00  0.00    +0.166 C 
ATOM     14  C   UNL     1      -1.835   0.790   0.416  0.00  0.00    +0.131 C 
ATOM     15  C   UNL     1      -1.832   3.326   0.299  0.00  0.00    +0.149 C 
ATOM     16  C   UNL     1      -0.357   3.371   0.733  0.00  0.00    +0.074 C 
ATOM     17  C   UNL     1       0.308   2.024   0.727  0.00  0.00    +0.015 C 
ATOM     18  C   UNL     1      -0.341   0.859   0.578  0.00  0.00    +0.004 C 
ENDROOT
BRANCH  17  19
ATOM      5  O   UNL     1       2.316   2.414   1.882  0.00  0.00    -0.271 OA
ATOM     11  N   UNL     1       2.398   1.395  -0.212  0.00  0.00    -0.300 N 
ATOM     19  C   UNL     1       1.766   1.972   0.875  0.00  0.00    +0.241 C 
ATOM     37  H   UNL     1       1.848   1.145  -1.029  0.00  0.00    +0.150 HD
BRANCH  11  20
ATOM     20  C   UNL     1       3.832   1.235  -0.298  0.00  0.00    +0.163 C 
BRANCH  20  24
ATOM      8  O   UNL     1       3.813   3.202  -1.726  0.00  0.00    -0.274 OA
ATOM     12  N   UNL     1       5.599   2.884  -0.316  0.00  0.00    -0.328 N 
ATOM     24  C   UNL     1       4.392   2.525  -0.879  0.00  0.00    +0.231 C 
ATOM     38  H   UNL     1       6.074   3.733  -0.603  0.00  0.00    +0.145 HD
ATOM     39  H   UNL     1       6.064   2.318   0.386  0.00  0.00    +0.145 HD
ENDBRANCH  20  24
BRANCH  20  21
ATOM     21  C   UNL     1       4.231   0.040  -1.171  0.00  0.00    +0.067 C 
BRANCH  21  23
ATOM     23  C   UNL     1       3.678  -1.268  -0.659  0.00  0.00    -0.045 A 
ATOM     26  C   UNL     1       2.429  -1.714  -1.092  0.00  0.00    +0.007 A 
ATOM     27  C   UNL     1       4.415  -2.030   0.248  0.00  0.00    +0.007 A 
ATOM     30  C   UNL     1       1.917  -2.922  -0.619  0.00  0.00    +0.046 A 
ATOM     31  C   UNL     1       3.903  -3.238   0.722  0.00  0.00    +0.046 A 
ATOM     32  C   UNL     1       2.654  -3.684   0.288  0.00  0.00    +0.120 A 
BRANCH  32   9
ATOM      9  O   UNL     1       2.155  -4.862   0.750  0.00  0.00    -0.495 OA
ATOM     33  C   UNL     1       0.872  -5.259   0.266  0.00  0.00    +0.277 C 
ENDBRANCH  32   9
ENDBRANCH  21  23
ENDBRANCH  20  21
ENDBRANCH  11  20
ENDBRANCH  17  19
BRANCH  13   3
ATOM      3  O   UNL     1      -2.607   2.168   2.263  0.00  0.00    -0.387 OA
ATOM     35  H   UNL     1      -3.092   2.979   2.491  0.00  0.00    +0.210 HD
ENDBRANCH  13   3
BRANCH  15   4
ATOM      4  O   UNL     1      -1.925   3.371  -1.124  0.00  0.00    -0.389 OA
ATOM     36  H   UNL     1      -1.495   4.191  -1.421  0.00  0.00    +0.210 HD
ENDBRANCH  15   4
BRANCH  14  10
ATOM     10  N   UNL     1      -2.361  -0.354   1.201  0.00  0.00    -0.180 NA
ATOM     34  H   UNL     1      -2.721  -0.119   2.134  0.00  0.00    +0.149 HD
BRANCH  10   1
ATOM      1  S   UNL     1      -3.112  -1.628   0.343  0.00  0.00    +0.065 S 
ATOM      6  O   UNL     1      -3.682  -2.574   1.284  0.00  0.00    -0.153 OA
ATOM      7  O   UNL     1      -2.225  -2.062  -0.718  0.00  0.00    -0.153 OA
BRANCH   1  22
ATOM      2  S   UNL     1      -5.810  -0.435   0.464  0.00  0.00    -0.077 S 
ATOM     22  C   UNL     1      -4.509  -0.926  -0.534  0.00  0.00    +0.142 A 
ATOM     25  C   UNL     1      -4.764  -0.693  -1.868  0.00  0.00    +0.036 A 
ATOM     28  C   UNL     1      -6.044  -0.103  -2.072  0.00  0.00    +0.010 A 
ATOM     29  C   UNL     1      -6.719   0.092  -0.888  0.00  0.00    +0.047 A 
ENDBRANCH   1  22
ENDBRANCH  10   1
ENDBRANCH  14  10
TORSDOF 11
