REMARK  Name = 26743424
REMARK  11 active torsions:
REMARK  status: ('A' for Active; 'I' for Inactive)
REMARK    1  A    between atoms: O_5  and  C_30
REMARK    2  A    between atoms: N_7  and  C_12
REMARK    3  A    between atoms: N_8  and  C_21
REMARK    4  A    between atoms: C_10  and  C_13
REMARK    5  A    between atoms: C_16  and  C_18
REMARK    6  A    between atoms: C_17  and  C_20
REMARK    7  A    between atoms: C_19  and  C_22
REMARK    8  A    between atoms: C_22  and  C_23
REMARK    9  A    between atoms: C_23  and  C_26
REMARK   10  A    between atoms: C_26  and  C_30
REMARK   11  A    between atoms: C_29  and  C_31
REMARK                            x       y       z     vdW  Elec       q    Type
REMARK                         _______ _______ _______ _____ _____    ______ ____
ROOT
ATOM      8  N   UNL     1      -2.638  -0.945  -0.349  0.00  0.00    -0.236 N 
ATOM      9  N   UNL     1      -2.408  -2.015  -1.128  0.00  0.00    -0.171 NA
ATOM     13  C   UNL     1      -0.523  -1.371  -0.010  0.00  0.00    +0.003 A 
ATOM     16  C   UNL     1      -1.541  -0.520   0.342  0.00  0.00    +0.046 A 
ATOM     17  C   UNL     1      -1.114  -2.271  -0.917  0.00  0.00    +0.064 A 
ATOM     18  C   UNL     1      -1.559   0.639   1.258  0.00  0.00    +0.066 C 
ATOM     20  C   UNL     1      -0.476  -3.401  -1.615  0.00  0.00    +0.068 C 
ENDROOT
BRANCH   8  21
ATOM     21  C   UNL     1      -3.914  -0.381  -0.307  0.00  0.00    +0.066 A 
ATOM     24  C   UNL     1      -5.002  -1.145   0.114  0.00  0.00    +0.028 A 
ATOM     25  C   UNL     1      -4.101   0.947  -0.691  0.00  0.00    +0.028 A 
ATOM     27  C   UNL     1      -6.277  -0.581   0.151  0.00  0.00    +0.014 A 
ATOM     28  C   UNL     1      -5.376   1.511  -0.653  0.00  0.00    +0.014 A 
ATOM     29  C   UNL     1      -6.464   0.747  -0.233  0.00  0.00    +0.055 A 
BRANCH  29  31
ATOM      1  F   UNL     1      -7.925   2.430   0.636  0.00  0.00    -0.166 F 
ATOM      2  F   UNL     1      -8.778   0.469   0.240  0.00  0.00    -0.166 F 
ATOM      3  F   UNL     1      -8.266   1.792  -1.409  0.00  0.00    -0.166 F 
ATOM     31  C   UNL     1      -7.828   1.349  -0.193  0.00  0.00    +0.417 C 
ENDBRANCH  29  31
ENDBRANCH   8  21
BRANCH  13  10
ATOM     10  C   UNL     1       0.910  -1.345   0.469  0.00  0.00    +0.047 C 
ATOM     11  C   UNL     1       1.629  -0.013   0.169  0.00  0.00    +0.039 C 
ATOM     12  C   UNL     1       2.585   0.222   1.345  0.00  0.00    +0.097 C 
ATOM     14  C   UNL     1       1.077  -1.473   1.956  0.00  0.00    -0.021 C 
ATOM     15  C   UNL     1       1.994  -0.621   2.427  0.00  0.00    -0.009 C 
BRANCH  12   7
ATOM      4  O   UNL     1       4.744   1.802   0.313  0.00  0.00    -0.276 OA
ATOM      7  N   UNL     1       3.923  -0.232   1.072  0.00  0.00    -0.309 N 
ATOM     19  C   UNL     1       4.904   0.612   0.571  0.00  0.00    +0.213 C 
ATOM     32  H   UNL     1       4.146  -1.214   1.213  0.00  0.00    +0.149 HD
BRANCH  19  22
ATOM     22  C   UNL     1       6.215  -0.123   0.346  0.00  0.00    +0.096 C 
BRANCH  22  23
ATOM     23  C   UNL     1       7.329   0.764  -0.206  0.00  0.00    +0.020 C 
BRANCH  23  26
ATOM     26  C   UNL     1       8.637  -0.003  -0.410  0.00  0.00    +0.121 C 
BRANCH  26  30
ATOM      6  O   UNL     1       9.628   2.083  -1.181  0.00  0.00    -0.251 OA
ATOM     30  C   UNL     1       9.733   0.886  -0.951  0.00  0.00    +0.305 C 
BRANCH  30   5
ATOM      5  O   UNL     1      10.882   0.190  -1.156  0.00  0.00    -0.481 OA
ATOM     33  H   UNL     1      11.598   0.761  -1.506  0.00  0.00    +0.295 HD
ENDBRANCH  30   5
ENDBRANCH  26  30
ENDBRANCH  23  26
ENDBRANCH  22  23
ENDBRANCH  19  22
ENDBRANCH  12   7
ENDBRANCH  13  10
TORSDOF 9
