MODEL 1
REMARK VINA RESULT:      -7.0      0.000      0.000
REMARK  Name = 56775661
REMARK  8 active torsions:
REMARK  status: ('A' for Active; 'I' for Inactive)
REMARK    1  A    between atoms: O_5  and  C_22
REMARK    2  A    between atoms: O_5  and  C_24
REMARK    3  A    between atoms: N_6  and  C_8
REMARK    4  A    between atoms: N_6  and  C_12
REMARK    5  A    between atoms: C_8  and  C_11
REMARK    6  A    between atoms: C_11  and  C_13
REMARK    7  A    between atoms: C_12  and  C_14
REMARK    8  A    between atoms: C_16  and  C_22
REMARK                            x       y       z     vdW  Elec       q    Type
REMARK                         _______ _______ _______ _____ _____    ______ ____
ROOT
ATOM      1  O   UNL     1      10.551  13.081  25.320  0.00  0.00    -0.376 OA
ATOM      8  C   UNL     1      11.950  12.044  24.085  0.00  0.00    +0.072 C 
ATOM      9  C   UNL     1      10.984  11.705  25.215  0.00  0.00    +0.184 C 
ATOM     10  C   UNL     1      11.513  13.486  24.319  0.00  0.00    +0.184 C 
ENDROOT
BRANCH   8   6
ATOM      6  N   UNL     1      11.376  11.577  22.821  0.00  0.00    -0.302 NA
ATOM     30  H   UNL     1      12.041  11.477  22.054  0.00  0.00    +0.123 HD
BRANCH   6  12
ATOM     12  C   UNL     1      10.688  10.304  23.046  0.00  0.00    +0.117 C 
BRANCH  12  14
ATOM      3  O   UNL     1      12.400   8.855  18.646  0.00  0.00    -0.453 OA
ATOM      4  O   UNL     1      12.153   6.521  19.191  0.00  0.00    -0.453 OA
ATOM     14  C   UNL     1      11.070   9.269  22.041  0.00  0.00    -0.030 A 
ATOM     17  C   UNL     1      11.567   9.660  20.796  0.00  0.00    +0.054 A 
ATOM     18  C   UNL     1      10.926   7.906  22.358  0.00  0.00    +0.009 A 
ATOM     19  C   UNL     1      11.905   8.666  19.900  0.00  0.00    +0.167 A 
ATOM     20  C   UNL     1      11.277   6.920  21.434  0.00  0.00    +0.050 A 
ATOM     21  C   UNL     1      11.764   7.333  20.211  0.00  0.00    +0.166 A 
ATOM     23  C   UNL     1      12.555   7.491  18.203  0.00  0.00    +0.466 C 
ENDBRANCH  12  14
ENDBRANCH   6  12
ENDBRANCH   8   6
BRANCH   8  11
ATOM     11  C   UNL     1      13.397  11.689  24.236  0.00  0.00    +0.085 C 
BRANCH  11  13
ATOM      2  O   UNL     1      14.763  11.860  20.896  0.00  0.00    -0.356 OA
ATOM      7  N   UNL     1      14.148  12.429  22.005  0.00  0.00    -0.083 NA
ATOM     13  C   UNL     1      14.031  11.432  22.886  0.00  0.00    +0.086 A 
ATOM     15  C   UNL     1      14.552  10.222  22.394  0.00  0.00    +0.074 A 
ATOM     16  C   UNL     1      14.998  10.546  21.140  0.00  0.00    +0.175 A 
BRANCH  16  22
ATOM     22  C   UNL     1      15.649   9.786  20.066  0.00  0.00    +0.306 C 
BRANCH  22   5
ATOM      5  O   UNL     1      15.386   8.388  20.218  0.00  0.00    -0.484 OA
BRANCH   5  24
ATOM     24  C   UNL     1      16.472   7.559  20.196  0.00  0.00    +0.121 A 
ATOM     25  C   UNL     1      16.539   6.521  19.267  0.00  0.00    +0.045 A 
ATOM     26  C   UNL     1      17.513   7.749  21.104  0.00  0.00    +0.045 A 
ATOM     27  C   UNL     1      17.646   5.674  19.245  0.00  0.00    +0.004 A 
ATOM     28  C   UNL     1      18.622   6.902  21.083  0.00  0.00    +0.004 A 
ATOM     29  C   UNL     1      18.688   5.864  20.153  0.00  0.00    +0.000 A 
ENDBRANCH   5  24
ENDBRANCH  22   5
ENDBRANCH  16  22
ENDBRANCH  11  13
ENDBRANCH   8  11
TORSDOF 8
ENDMDL
MODEL 2
REMARK VINA RESULT:      -6.4      2.345      5.649
REMARK  Name = 56775661
REMARK  8 active torsions:
REMARK  status: ('A' for Active; 'I' for Inactive)
REMARK    1  A    between atoms: O_5  and  C_22
REMARK    2  A    between atoms: O_5  and  C_24
REMARK    3  A    between atoms: N_6  and  C_8
REMARK    4  A    between atoms: N_6  and  C_12
REMARK    5  A    between atoms: C_8  and  C_11
REMARK    6  A    between atoms: C_11  and  C_13
REMARK    7  A    between atoms: C_12  and  C_14
REMARK    8  A    between atoms: C_16  and  C_22
REMARK                            x       y       z     vdW  Elec       q    Type
REMARK                         _______ _______ _______ _____ _____    ______ ____
ROOT
ATOM      1  O   UNL     1      13.236   7.712  17.082  0.00  0.00    -0.376 OA
ATOM      8  C   UNL     1      13.256   7.921  19.207  0.00  0.00    +0.072 C 
ATOM      9  C   UNL     1      14.192   8.220  18.041  0.00  0.00    +0.184 C 
ATOM     10  C   UNL     1      12.342   7.316  18.147  0.00  0.00    +0.184 C 
ENDROOT
BRANCH   8   6
ATOM      6  N   UNL     1      12.670   9.179  19.675  0.00  0.00    -0.302 NA
ATOM     30  H   UNL     1      12.178   9.718  18.963  0.00  0.00    +0.123 HD
BRANCH   6  12
ATOM     12  C   UNL     1      11.768   8.902  20.795  0.00  0.00    +0.117 C 
BRANCH  12  14
ATOM      3  O   UNL     1      10.885  11.005  25.174  0.00  0.00    -0.453 OA
ATOM      4  O   UNL     1      11.142  13.231  24.285  0.00  0.00    -0.453 OA
ATOM     14  C   UNL     1      11.608  10.079  21.697  0.00  0.00    -0.030 A 
ATOM     17  C   UNL     1      11.312   9.882  23.048  0.00  0.00    +0.054 A 
ATOM     18  C   UNL     1      11.758  11.378  21.180  0.00  0.00    +0.009 A 
ATOM     19  C   UNL     1      11.173  11.002  23.843  0.00  0.00    +0.167 A 
ATOM     20  C   UNL     1      11.613  12.494  22.006  0.00  0.00    +0.050 A 
ATOM     21  C   UNL     1      11.319  12.272  23.336  0.00  0.00    +0.166 A 
ATOM     23  C   UNL     1      10.867  12.422  25.447  0.00  0.00    +0.466 C 
ENDBRANCH  12  14
ENDBRANCH   6  12
ENDBRANCH   8   6
BRANCH   8  11
ATOM     11  C   UNL     1      13.745   7.053  20.325  0.00  0.00    +0.085 C 
BRANCH  11  13
ATOM      2  O   UNL     1      16.649   8.654  21.760  0.00  0.00    -0.356 OA
ATOM      7  N   UNL     1      15.279   8.554  21.544  0.00  0.00    -0.083 NA
ATOM     13  C   UNL     1      15.130   7.476  20.769  0.00  0.00    +0.086 A 
ATOM     15  C   UNL     1      16.357   6.860  20.469  0.00  0.00    +0.074 A 
ATOM     16  C   UNL     1      17.279   7.640  21.115  0.00  0.00    +0.175 A 
BRANCH  16  22
ATOM     22  C   UNL     1      18.741   7.593  21.240  0.00  0.00    +0.306 C 
BRANCH  22   5
ATOM      5  O   UNL     1      19.262   6.464  20.533  0.00  0.00    -0.484 OA
BRANCH   5  24
ATOM     24  C   UNL     1      20.267   5.772  21.148  0.00  0.00    +0.121 A 
ATOM     25  C   UNL     1      20.731   6.179  22.399  0.00  0.00    +0.045 A 
ATOM     26  C   UNL     1      20.829   4.657  20.525  0.00  0.00    +0.045 A 
ATOM     27  C   UNL     1      21.757   5.473  23.027  0.00  0.00    +0.004 A 
ATOM     28  C   UNL     1      21.856   3.950  21.153  0.00  0.00    +0.004 A 
ATOM     29  C   UNL     1      22.319   4.358  22.404  0.00  0.00    +0.000 A 
ENDBRANCH   5  24
ENDBRANCH  22   5
ENDBRANCH  16  22
ENDBRANCH  11  13
ENDBRANCH   8  11
TORSDOF 8
ENDMDL
MODEL 3
REMARK VINA RESULT:      -6.2      3.450      6.589
REMARK  Name = 56775661
REMARK  8 active torsions:
REMARK  status: ('A' for Active; 'I' for Inactive)
REMARK    1  A    between atoms: O_5  and  C_22
REMARK    2  A    between atoms: O_5  and  C_24
REMARK    3  A    between atoms: N_6  and  C_8
REMARK    4  A    between atoms: N_6  and  C_12
REMARK    5  A    between atoms: C_8  and  C_11
REMARK    6  A    between atoms: C_11  and  C_13
REMARK    7  A    between atoms: C_12  and  C_14
REMARK    8  A    between atoms: C_16  and  C_22
REMARK                            x       y       z     vdW  Elec       q    Type
REMARK                         _______ _______ _______ _____ _____    ______ ____
ROOT
ATOM      1  O   UNL     1      10.526   7.718  21.485  0.00  0.00    -0.376 OA
ATOM      8  C   UNL     1      12.345   7.196  20.499  0.00  0.00    +0.072 C 
ATOM      9  C   UNL     1      11.405   8.395  20.558  0.00  0.00    +0.184 C 
ATOM     10  C   UNL     1      11.322   6.514  21.401  0.00  0.00    +0.184 C 
ENDROOT
BRANCH   8   6
ATOM      6  N   UNL     1      13.543   7.497  21.287  0.00  0.00    -0.302 NA
ATOM     30  H   UNL     1      13.460   7.317  22.287  0.00  0.00    +0.123 HD
BRANCH   6  12
ATOM     12  C   UNL     1      14.677   6.747  20.744  0.00  0.00    +0.117 C 
BRANCH  12  14
ATOM      3  O   UNL     1      19.537   6.971  21.586  0.00  0.00    -0.453 OA
ATOM      4  O   UNL     1      19.581   9.370  21.366  0.00  0.00    -0.453 OA
ATOM     14  C   UNL     1      15.968   7.479  20.903  0.00  0.00    -0.030 A 
ATOM     17  C   UNL     1      17.138   6.768  21.178  0.00  0.00    +0.054 A 
ATOM     18  C   UNL     1      15.994   8.879  20.774  0.00  0.00    +0.009 A 
ATOM     19  C   UNL     1      18.307   7.489  21.318  0.00  0.00    +0.167 A 
ATOM     20  C   UNL     1      17.191   9.584  20.920  0.00  0.00    +0.050 A 
ATOM     21  C   UNL     1      18.332   8.858  21.192  0.00  0.00    +0.166 A 
ATOM     23  C   UNL     1      20.340   8.169  21.615  0.00  0.00    +0.466 C 
ENDBRANCH  12  14
ENDBRANCH   6  12
ENDBRANCH   8   6
BRANCH   8  11
ATOM     11  C   UNL     1      12.661   6.586  19.168  0.00  0.00    +0.085 C 
BRANCH  11  13
ATOM      2  O   UNL     1      11.956   8.709  16.330  0.00  0.00    -0.356 OA
ATOM      7  N   UNL     1      11.674   7.631  17.161  0.00  0.00    -0.083 NA
ATOM     13  C   UNL     1      12.646   7.637  18.078  0.00  0.00    +0.086 A 
ATOM     15  C   UNL     1      13.559   8.687  17.880  0.00  0.00    +0.074 A 
ATOM     16  C   UNL     1      13.081   9.329  16.768  0.00  0.00    +0.175 A 
BRANCH  16  22
ATOM     22  C   UNL     1      13.525  10.498  16.001  0.00  0.00    +0.306 C 
BRANCH  22   5
ATOM      5  O   UNL     1      14.304  11.368  16.828  0.00  0.00    -0.484 OA
BRANCH   5  24
ATOM     24  C   UNL     1      15.517  11.755  16.333  0.00  0.00    +0.121 A 
ATOM     25  C   UNL     1      16.328  12.620  17.068  0.00  0.00    +0.045 A 
ATOM     26  C   UNL     1      15.945  11.286  15.090  0.00  0.00    +0.045 A 
ATOM     27  C   UNL     1      17.565  13.015  16.563  0.00  0.00    +0.004 A 
ATOM     28  C   UNL     1      17.183  11.682  14.584  0.00  0.00    +0.004 A 
ATOM     29  C   UNL     1      17.994  12.546  15.321  0.00  0.00    +0.000 A 
ENDBRANCH   5  24
ENDBRANCH  22   5
ENDBRANCH  16  22
ENDBRANCH  11  13
ENDBRANCH   8  11
TORSDOF 8
ENDMDL
MODEL 4
REMARK VINA RESULT:      -6.0     27.431     29.244
REMARK  Name = 56775661
REMARK  8 active torsions:
REMARK  status: ('A' for Active; 'I' for Inactive)
REMARK    1  A    between atoms: O_5  and  C_22
REMARK    2  A    between atoms: O_5  and  C_24
REMARK    3  A    between atoms: N_6  and  C_8
REMARK    4  A    between atoms: N_6  and  C_12
REMARK    5  A    between atoms: C_8  and  C_11
REMARK    6  A    between atoms: C_11  and  C_13
REMARK    7  A    between atoms: C_12  and  C_14
REMARK    8  A    between atoms: C_16  and  C_22
REMARK                            x       y       z     vdW  Elec       q    Type
REMARK                         _______ _______ _______ _____ _____    ______ ____
ROOT
ATOM      1  O   UNL     1      -1.850 -14.261  12.624  0.00  0.00    -0.376 OA
ATOM      8  C   UNL     1      -2.318 -12.359  13.475  0.00  0.00    +0.072 C 
ATOM      9  C   UNL     1      -2.863 -13.260  12.372  0.00  0.00    +0.184 C 
ATOM     10  C   UNL     1      -1.227 -13.415  13.617  0.00  0.00    +0.184 C 
ENDROOT
BRANCH   8   6
ATOM      6  N   UNL     1      -3.210 -12.443  14.634  0.00  0.00    -0.302 NA
ATOM     30  H   UNL     1      -3.184 -13.329  15.137  0.00  0.00    +0.123 HD
BRANCH   6  12
ATOM     12  C   UNL     1      -2.907 -11.345  15.554  0.00  0.00    +0.117 C 
BRANCH  12  14
ATOM      3  O   UNL     1      -7.317  -9.288  16.392  0.00  0.00    -0.453 OA
ATOM      4  O   UNL     1      -7.325  -9.973  18.703  0.00  0.00    -0.453 OA
ATOM     14  C   UNL     1      -4.069 -10.996  16.422  0.00  0.00    -0.030 A 
ATOM     17  C   UNL     1      -5.142 -10.278  15.889  0.00  0.00    +0.054 A 
ATOM     18  C   UNL     1      -4.075 -11.396  17.770  0.00  0.00    +0.009 A 
ATOM     19  C   UNL     1      -6.194  -9.978  16.732  0.00  0.00    +0.167 A 
ATOM     20  C   UNL     1      -5.152 -11.081  18.601  0.00  0.00    +0.050 A 
ATOM     21  C   UNL     1      -6.198 -10.369  18.051  0.00  0.00    +0.166 A 
ATOM     23  C   UNL     1      -8.030  -9.289  17.647  0.00  0.00    +0.466 C 
ENDBRANCH  12  14
ENDBRANCH   6  12
ENDBRANCH   8   6
BRANCH   8  11
ATOM     11  C   UNL     1      -1.930 -10.953  13.138  0.00  0.00    +0.085 C 
BRANCH  11  13
ATOM      2  O   UNL     1      -4.787  -9.631  11.367  0.00  0.00    -0.356 OA
ATOM      7  N   UNL     1      -4.189 -10.207  12.481  0.00  0.00    -0.083 NA
ATOM     13  C   UNL     1      -2.903 -10.349  12.148  0.00  0.00    +0.086 A 
ATOM     15  C   UNL     1      -2.633  -9.882  10.849  0.00  0.00    +0.074 A 
ATOM     16  C   UNL     1      -3.851  -9.443  10.402  0.00  0.00    +0.175 A 
BRANCH  16  22
ATOM     22  C   UNL     1      -4.315  -8.837   9.148  0.00  0.00    +0.306 C 
BRANCH  22   5
ATOM      5  O   UNL     1      -5.551  -9.430   8.739  0.00  0.00    -0.484 OA
BRANCH   5  24
ATOM     24  C   UNL     1      -5.556 -10.048   7.521  0.00  0.00    +0.121 A 
ATOM     25  C   UNL     1      -6.410  -9.599   6.513  0.00  0.00    +0.045 A 
ATOM     26  C   UNL     1      -4.707 -11.129   7.284  0.00  0.00    +0.045 A 
ATOM     27  C   UNL     1      -6.416 -10.230   5.270  0.00  0.00    +0.004 A 
ATOM     28  C   UNL     1      -4.712 -11.762   6.040  0.00  0.00    +0.004 A 
ATOM     29  C   UNL     1      -5.567 -11.311   5.033  0.00  0.00    +0.000 A 
ENDBRANCH   5  24
ENDBRANCH  22   5
ENDBRANCH  16  22
ENDBRANCH  11  13
ENDBRANCH   8  11
TORSDOF 8
ENDMDL
MODEL 5
REMARK VINA RESULT:      -6.0      2.292      7.766
REMARK  Name = 56775661
REMARK  8 active torsions:
REMARK  status: ('A' for Active; 'I' for Inactive)
REMARK    1  A    between atoms: O_5  and  C_22
REMARK    2  A    between atoms: O_5  and  C_24
REMARK    3  A    between atoms: N_6  and  C_8
REMARK    4  A    between atoms: N_6  and  C_12
REMARK    5  A    between atoms: C_8  and  C_11
REMARK    6  A    between atoms: C_11  and  C_13
REMARK    7  A    between atoms: C_12  and  C_14
REMARK    8  A    between atoms: C_16  and  C_22
REMARK                            x       y       z     vdW  Elec       q    Type
REMARK                         _______ _______ _______ _____ _____    ______ ____
ROOT
ATOM      1  O   UNL     1      12.395   8.454  16.999  0.00  0.00    -0.376 OA
ATOM      8  C   UNL     1      13.188   7.896  18.901  0.00  0.00    +0.072 C 
ATOM      9  C   UNL     1      12.850   7.211  17.582  0.00  0.00    +0.184 C 
ATOM     10  C   UNL     1      12.604   9.146  18.251  0.00  0.00    +0.184 C 
ENDROOT
BRANCH   8   6
ATOM      6  N   UNL     1      14.642   8.048  18.994  0.00  0.00    -0.302 NA
ATOM     30  H   UNL     1      14.961   8.860  19.521  0.00  0.00    +0.123 HD
BRANCH   6  12
ATOM     12  C   UNL     1      15.217   6.830  19.569  0.00  0.00    +0.117 C 
BRANCH  12  14
ATOM      3  O   UNL     1      19.942   5.626  20.348  0.00  0.00    -0.453 OA
ATOM      4  O   UNL     1      20.339   7.586  21.692  0.00  0.00    -0.453 OA
ATOM     14  C   UNL     1      16.571   7.063  20.150  0.00  0.00    -0.030 A 
ATOM     17  C   UNL     1      17.596   6.145  19.910  0.00  0.00    +0.054 A 
ATOM     18  C   UNL     1      16.804   8.207  20.934  0.00  0.00    +0.009 A 
ATOM     19  C   UNL     1      18.832   6.404  20.470  0.00  0.00    +0.167 A 
ATOM     20  C   UNL     1      18.064   8.445  21.489  0.00  0.00    +0.050 A 
ATOM     21  C   UNL     1      19.058   7.522  21.238  0.00  0.00    +0.166 A 
ATOM     23  C   UNL     1      20.894   6.382  21.124  0.00  0.00    +0.466 C 
ENDBRANCH  12  14
ENDBRANCH   6  12
ENDBRANCH   8   6
BRANCH   8  11
ATOM     11  C   UNL     1      12.574   7.380  20.166  0.00  0.00    +0.085 C 
BRANCH  11  13
ATOM      2  O   UNL     1      12.868  10.182  22.427  0.00  0.00    -0.356 OA
ATOM      7  N   UNL     1      13.398   9.269  21.523  0.00  0.00    -0.083 NA
ATOM     13  C   UNL     1      12.366   8.502  21.160  0.00  0.00    +0.086 A 
ATOM     15  C   UNL     1      11.171   8.881  21.795  0.00  0.00    +0.074 A 
ATOM     16  C   UNL     1      11.541   9.940  22.580  0.00  0.00    +0.175 A 
BRANCH  16  22
ATOM     22  C   UNL     1      10.818  10.820  23.506  0.00  0.00    +0.306 C 
BRANCH  22   5
ATOM      5  O   UNL     1      11.623  11.100  24.655  0.00  0.00    -0.484 OA
BRANCH   5  24
ATOM     24  C   UNL     1      11.602  12.386  25.115  0.00  0.00    +0.121 A 
ATOM     25  C   UNL     1      10.481  13.187  24.898  0.00  0.00    +0.045 A 
ATOM     26  C   UNL     1      12.702  12.900  25.803  0.00  0.00    +0.045 A 
ATOM     27  C   UNL     1      10.459  14.500  25.366  0.00  0.00    +0.004 A 
ATOM     28  C   UNL     1      12.681  14.213  26.272  0.00  0.00    +0.004 A 
ATOM     29  C   UNL     1      11.559  15.013  26.054  0.00  0.00    +0.000 A 
ENDBRANCH   5  24
ENDBRANCH  22   5
ENDBRANCH  16  22
ENDBRANCH  11  13
ENDBRANCH   8  11
TORSDOF 8
ENDMDL
MODEL 6
REMARK VINA RESULT:      -5.9     27.282     29.458
REMARK  Name = 56775661
REMARK  8 active torsions:
REMARK  status: ('A' for Active; 'I' for Inactive)
REMARK    1  A    between atoms: O_5  and  C_22
REMARK    2  A    between atoms: O_5  and  C_24
REMARK    3  A    between atoms: N_6  and  C_8
REMARK    4  A    between atoms: N_6  and  C_12
REMARK    5  A    between atoms: C_8  and  C_11
REMARK    6  A    between atoms: C_11  and  C_13
REMARK    7  A    between atoms: C_12  and  C_14
REMARK    8  A    between atoms: C_16  and  C_22
REMARK                            x       y       z     vdW  Elec       q    Type
REMARK                         _______ _______ _______ _____ _____    ______ ____
ROOT
ATOM      1  O   UNL     1      -2.073 -14.211  14.129  0.00  0.00    -0.376 OA
ATOM      8  C   UNL     1      -2.661 -12.159  14.110  0.00  0.00    +0.072 C 
ATOM      9  C   UNL     1      -1.460 -12.986  13.664  0.00  0.00    +0.184 C 
ATOM     10  C   UNL     1      -3.199 -13.476  14.659  0.00  0.00    +0.184 C 
ENDROOT
BRANCH   8   6
ATOM      6  N   UNL     1      -3.441 -11.788  12.927  0.00  0.00    -0.302 NA
ATOM     30  H   UNL     1      -4.446 -11.705  13.079  0.00  0.00    +0.123 HD
BRANCH   6  12
ATOM     12  C   UNL     1      -2.919 -10.534  12.381  0.00  0.00    +0.117 C 
BRANCH  12  14
ATOM      3  O   UNL     1      -7.382  -9.071  10.857  0.00  0.00    -0.453 OA
ATOM      4  O   UNL     1      -6.520  -8.233   8.768  0.00  0.00    -0.453 OA
ATOM     14  C   UNL     1      -3.851  -9.914  11.395  0.00  0.00    -0.030 A 
ATOM     17  C   UNL     1      -5.214  -9.824  11.690  0.00  0.00    +0.054 A 
ATOM     18  C   UNL     1      -3.349  -9.424  10.176  0.00  0.00    +0.009 A 
ATOM     19  C   UNL     1      -6.036  -9.243  10.746  0.00  0.00    +0.167 A 
ATOM     20  C   UNL     1      -4.204  -8.841   9.238  0.00  0.00    +0.050 A 
ATOM     21  C   UNL     1      -5.544  -8.765   9.553  0.00  0.00    +0.166 A 
ATOM     23  C   UNL     1      -7.682  -8.430   9.599  0.00  0.00    +0.466 C 
ENDBRANCH  12  14
ENDBRANCH   6  12
ENDBRANCH   8   6
BRANCH   8  11
ATOM     11  C   UNL     1      -2.445 -11.014  15.050  0.00  0.00    +0.085 C 
BRANCH  11  13
ATOM      2  O   UNL     1      -5.683 -10.349  16.507  0.00  0.00    -0.356 OA
ATOM      7  N   UNL     1      -4.811 -10.420  15.427  0.00  0.00    -0.083 NA
ATOM     13  C   UNL     1      -3.648 -10.822  15.949  0.00  0.00    +0.086 A 
ATOM     15  C   UNL     1      -3.726 -11.020  17.338  0.00  0.00    +0.074 A 
ATOM     16  C   UNL     1      -5.026 -10.708  17.639  0.00  0.00    +0.175 A 
BRANCH  16  22
ATOM     22  C   UNL     1      -5.805 -10.690  18.882  0.00  0.00    +0.306 C 
BRANCH  22   5
ATOM      5  O   UNL     1      -7.183 -10.433  18.600  0.00  0.00    -0.484 OA
BRANCH   5  24
ATOM     24  C   UNL     1      -8.091 -11.267  19.188  0.00  0.00    +0.121 A 
ATOM     25  C   UNL     1      -9.373 -10.805  19.488  0.00  0.00    +0.045 A 
ATOM     26  C   UNL     1      -7.737 -12.583  19.489  0.00  0.00    +0.045 A 
ATOM     27  C   UNL     1     -10.300 -11.656  20.088  0.00  0.00    +0.004 A 
ATOM     28  C   UNL     1      -8.664 -13.435  20.090  0.00  0.00    +0.004 A 
ATOM     29  C   UNL     1      -9.946 -12.972  20.389  0.00  0.00    +0.000 A 
ENDBRANCH   5  24
ENDBRANCH  22   5
ENDBRANCH  16  22
ENDBRANCH  11  13
ENDBRANCH   8  11
TORSDOF 8
ENDMDL
MODEL 7
REMARK VINA RESULT:      -5.9     27.301     30.282
REMARK  Name = 56775661
REMARK  8 active torsions:
REMARK  status: ('A' for Active; 'I' for Inactive)
REMARK    1  A    between atoms: O_5  and  C_22
REMARK    2  A    between atoms: O_5  and  C_24
REMARK    3  A    between atoms: N_6  and  C_8
REMARK    4  A    between atoms: N_6  and  C_12
REMARK    5  A    between atoms: C_8  and  C_11
REMARK    6  A    between atoms: C_11  and  C_13
REMARK    7  A    between atoms: C_12  and  C_14
REMARK    8  A    between atoms: C_16  and  C_22
REMARK                            x       y       z     vdW  Elec       q    Type
REMARK                         _______ _______ _______ _____ _____    ______ ____
ROOT
ATOM      1  O   UNL     1     -18.691   5.214  28.231  0.00  0.00    -0.376 OA
ATOM      8  C   UNL     1     -17.363   4.019  27.063  0.00  0.00    +0.072 C 
ATOM      9  C   UNL     1     -17.707   5.497  27.210  0.00  0.00    +0.184 C 
ATOM     10  C   UNL     1     -18.482   3.792  28.074  0.00  0.00    +0.184 C 
ENDROOT
BRANCH   8   6
ATOM      6  N   UNL     1     -16.077   3.767  27.717  0.00  0.00    -0.302 NA
ATOM     30  H   UNL     1     -15.950   4.232  28.616  0.00  0.00    +0.123 HD
BRANCH   6  12
ATOM     12  C   UNL     1     -15.893   2.324  27.879  0.00  0.00    +0.117 C 
BRANCH  12  14
ATOM      3  O   UNL     1     -15.134   3.350  32.648  0.00  0.00    -0.453 OA
ATOM      4  O   UNL     1     -14.669   1.048  33.188  0.00  0.00    -0.453 OA
ATOM     14  C   UNL     1     -15.564   1.948  29.284  0.00  0.00    -0.030 A 
ATOM     17  C   UNL     1     -15.528   2.933  30.275  0.00  0.00    +0.054 A 
ATOM     18  C   UNL     1     -15.294   0.605  29.600  0.00  0.00    +0.009 A 
ATOM     19  C   UNL     1     -15.217   2.536  31.561  0.00  0.00    +0.167 A 
ATOM     20  C   UNL     1     -14.982   0.231  30.909  0.00  0.00    +0.050 A 
ATOM     21  C   UNL     1     -14.952   1.222  31.869  0.00  0.00    +0.166 A 
ATOM     23  C   UNL     1     -14.786   2.399  33.677  0.00  0.00    +0.466 C 
ENDBRANCH  12  14
ENDBRANCH   6  12
ENDBRANCH   8   6
BRANCH   8  11
ATOM     11  C   UNL     1     -17.465   3.381  25.711  0.00  0.00    +0.085 C 
BRANCH  11  13
ATOM      2  O   UNL     1     -14.712   4.630  23.732  0.00  0.00    -0.356 OA
ATOM      7  N   UNL     1     -15.237   3.855  24.760  0.00  0.00    -0.083 NA
ATOM     13  C   UNL     1     -16.555   4.074  24.720  0.00  0.00    +0.086 A 
ATOM     15  C   UNL     1     -16.916   4.967  23.696  0.00  0.00    +0.074 A 
ATOM     16  C   UNL     1     -15.722   5.287  23.107  0.00  0.00    +0.175 A 
BRANCH  16  22
ATOM     22  C   UNL     1     -15.342   6.156  21.986  0.00  0.00    +0.306 C 
BRANCH  22   5
ATOM      5  O   UNL     1     -14.518   7.229  22.449  0.00  0.00    -0.484 OA
BRANCH   5  24
ATOM     24  C   UNL     1     -13.468   7.579  21.648  0.00  0.00    +0.121 A 
ATOM     25  C   UNL     1     -13.219   8.924  21.370  0.00  0.00    +0.045 A 
ATOM     26  C   UNL     1     -12.643   6.592  21.108  0.00  0.00    +0.045 A 
ATOM     27  C   UNL     1     -12.148   9.281  20.552  0.00  0.00    +0.004 A 
ATOM     28  C   UNL     1     -11.570   6.949  20.290  0.00  0.00    +0.004 A 
ATOM     29  C   UNL     1     -11.323   8.294  20.013  0.00  0.00    +0.000 A 
ENDBRANCH   5  24
ENDBRANCH  22   5
ENDBRANCH  16  22
ENDBRANCH  11  13
ENDBRANCH   8  11
TORSDOF 8
ENDMDL
MODEL 8
REMARK VINA RESULT:      -5.9     27.195     30.065
REMARK  Name = 56775661
REMARK  8 active torsions:
REMARK  status: ('A' for Active; 'I' for Inactive)
REMARK    1  A    between atoms: O_5  and  C_22
REMARK    2  A    between atoms: O_5  and  C_24
REMARK    3  A    between atoms: N_6  and  C_8
REMARK    4  A    between atoms: N_6  and  C_12
REMARK    5  A    between atoms: C_8  and  C_11
REMARK    6  A    between atoms: C_11  and  C_13
REMARK    7  A    between atoms: C_12  and  C_14
REMARK    8  A    between atoms: C_16  and  C_22
REMARK                            x       y       z     vdW  Elec       q    Type
REMARK                         _______ _______ _______ _____ _____    ______ ____
ROOT
ATOM      1  O   UNL     1     -18.614   6.506  27.553  0.00  0.00    -0.376 OA
ATOM      8  C   UNL     1     -17.717   5.196  26.126  0.00  0.00    +0.072 C 
ATOM      9  C   UNL     1     -17.663   6.679  26.477  0.00  0.00    +0.184 C 
ATOM     10  C   UNL     1     -18.783   5.112  27.212  0.00  0.00    +0.184 C 
ENDROOT
BRANCH   8   6
ATOM      6  N   UNL     1     -16.495   4.553  26.613  0.00  0.00    -0.302 NA
ATOM     30  H   UNL     1     -16.109   4.948  27.470  0.00  0.00    +0.123 HD
BRANCH   6  12
ATOM     12  C   UNL     1     -16.745   3.122  26.800  0.00  0.00    +0.117 C 
BRANCH  12  14
ATOM      3  O   UNL     1     -15.768  -0.449  30.066  0.00  0.00    -0.453 OA
ATOM      4  O   UNL     1     -14.547   1.047  31.509  0.00  0.00    -0.453 OA
ATOM     14  C   UNL     1     -16.146   2.602  28.063  0.00  0.00    -0.030 A 
ATOM     17  C   UNL     1     -16.296   1.254  28.399  0.00  0.00    +0.054 A 
ATOM     18  C   UNL     1     -15.433   3.474  28.905  0.00  0.00    +0.009 A 
ATOM     19  C   UNL     1     -15.724   0.821  29.578  0.00  0.00    +0.167 A 
ATOM     20  C   UNL     1     -14.864   3.009  30.093  0.00  0.00    +0.050 A 
ATOM     21  C   UNL     1     -15.027   1.675  30.402  0.00  0.00    +0.166 A 
ATOM     23  C   UNL     1     -15.019  -0.299  31.291  0.00  0.00    +0.466 C 
ENDBRANCH  12  14
ENDBRANCH   6  12
ENDBRANCH   8   6
BRANCH   8  11
ATOM     11  C   UNL     1     -18.071   4.793  24.727  0.00  0.00    +0.085 C 
BRANCH  11  13
ATOM      2  O   UNL     1     -15.254   3.981  22.616  0.00  0.00    -0.356 OA
ATOM      7  N   UNL     1     -16.360   3.630  23.381  0.00  0.00    -0.083 NA
ATOM     13  C   UNL     1     -16.842   4.788  23.842  0.00  0.00    +0.086 A 
ATOM     15  C   UNL     1     -16.091   5.892  23.404  0.00  0.00    +0.074 A 
ATOM     16  C   UNL     1     -15.104   5.330  22.638  0.00  0.00    +0.175 A 
BRANCH  16  22
ATOM     22  C   UNL     1     -13.976   5.876  21.874  0.00  0.00    +0.306 C 
BRANCH  22   5
ATOM      5  O   UNL     1     -13.964   7.304  21.960  0.00  0.00    -0.484 OA
BRANCH   5  24
ATOM     24  C   UNL     1     -12.994   7.948  21.245  0.00  0.00    +0.121 A 
ATOM     25  C   UNL     1     -12.119   7.219  20.439  0.00  0.00    +0.045 A 
ATOM     26  C   UNL     1     -12.878   9.337  21.321  0.00  0.00    +0.045 A 
ATOM     27  C   UNL     1     -11.129   7.877  19.710  0.00  0.00    +0.004 A 
ATOM     28  C   UNL     1     -11.888   9.996  20.591  0.00  0.00    +0.004 A 
ATOM     29  C   UNL     1     -11.014   9.265  19.786  0.00  0.00    +0.000 A 
ENDBRANCH   5  24
ENDBRANCH  22   5
ENDBRANCH  16  22
ENDBRANCH  11  13
ENDBRANCH   8  11
TORSDOF 8
ENDMDL
MODEL 9
REMARK VINA RESULT:      -5.8      3.456      5.440
REMARK  Name = 56775661
REMARK  8 active torsions:
REMARK  status: ('A' for Active; 'I' for Inactive)
REMARK    1  A    between atoms: O_5  and  C_22
REMARK    2  A    between atoms: O_5  and  C_24
REMARK    3  A    between atoms: N_6  and  C_8
REMARK    4  A    between atoms: N_6  and  C_12
REMARK    5  A    between atoms: C_8  and  C_11
REMARK    6  A    between atoms: C_11  and  C_13
REMARK    7  A    between atoms: C_12  and  C_14
REMARK    8  A    between atoms: C_16  and  C_22
REMARK                            x       y       z     vdW  Elec       q    Type
REMARK                         _______ _______ _______ _____ _____    ______ ____
ROOT
ATOM      1  O   UNL     1      10.777   8.903  21.706  0.00  0.00    -0.376 OA
ATOM      8  C   UNL     1      12.410   8.196  20.527  0.00  0.00    +0.072 C 
ATOM      9  C   UNL     1      10.914   8.428  20.347  0.00  0.00    +0.184 C 
ATOM     10  C   UNL     1      12.168   8.618  21.972  0.00  0.00    +0.184 C 
ENDROOT
BRANCH   8   6
ATOM      6  N   UNL     1      13.138   9.265  19.839  0.00  0.00    -0.302 NA
ATOM     30  H   UNL     1      14.153   9.220  19.920  0.00  0.00    +0.123 HD
BRANCH   6  12
ATOM     12  C   UNL     1      12.756   9.275  18.426  0.00  0.00    +0.117 C 
BRANCH  12  14
ATOM      3  O   UNL     1      14.991  10.401  14.170  0.00  0.00    -0.453 OA
ATOM      4  O   UNL     1      16.268  12.179  15.178  0.00  0.00    -0.453 OA
ATOM     14  C   UNL     1      13.701  10.070  17.589  0.00  0.00    -0.030 A 
ATOM     17  C   UNL     1      13.838   9.778  16.230  0.00  0.00    +0.054 A 
ATOM     18  C   UNL     1      14.446  11.108  18.176  0.00  0.00    +0.009 A 
ATOM     19  C   UNL     1      14.726  10.541  15.497  0.00  0.00    +0.167 A 
ATOM     20  C   UNL     1      15.337  11.865  17.412  0.00  0.00    +0.050 A 
ATOM     21  C   UNL     1      15.455  11.556  16.073  0.00  0.00    +0.166 A 
ATOM     23  C   UNL     1      15.969  11.444  13.974  0.00  0.00    +0.466 C 
ENDBRANCH  12  14
ENDBRANCH   6  12
ENDBRANCH   8   6
BRANCH   8  11
ATOM     11  C   UNL     1      12.972   6.836  20.251  0.00  0.00    +0.085 C 
BRANCH  11  13
ATOM      2  O   UNL     1      16.428   6.926  19.203  0.00  0.00    -0.356 OA
ATOM      7  N   UNL     1      15.064   6.863  18.942  0.00  0.00    -0.083 NA
ATOM     13  C   UNL     1      14.481   6.889  20.144  0.00  0.00    +0.086 A 
ATOM     15  C   UNL     1      15.417   6.970  21.190  0.00  0.00    +0.074 A 
ATOM     16  C   UNL     1      16.625   6.990  20.545  0.00  0.00    +0.175 A 
BRANCH  16  22
ATOM     22  C   UNL     1      18.018   7.064  21.000  0.00  0.00    +0.306 C 
BRANCH  22   5
ATOM      5  O   UNL     1      18.798   6.040  20.377  0.00  0.00    -0.484 OA
BRANCH   5  24
ATOM     24  C   UNL     1      19.934   5.656  21.033  0.00  0.00    +0.121 A 
ATOM     25  C   UNL     1      20.247   6.214  22.273  0.00  0.00    +0.045 A 
ATOM     26  C   UNL     1      20.781   4.705  20.464  0.00  0.00    +0.045 A 
ATOM     27  C   UNL     1      21.406   5.823  22.942  0.00  0.00    +0.004 A 
ATOM     28  C   UNL     1      21.941   4.313  21.133  0.00  0.00    +0.004 A 
ATOM     29  C   UNL     1      22.253   4.872  22.373  0.00  0.00    +0.000 A 
ENDBRANCH   5  24
ENDBRANCH  22   5
ENDBRANCH  16  22
ENDBRANCH  11  13
ENDBRANCH   8  11
TORSDOF 8
ENDMDL
MODEL 10
REMARK VINA RESULT:      -5.8      2.486      7.637
REMARK  Name = 56775661
REMARK  8 active torsions:
REMARK  status: ('A' for Active; 'I' for Inactive)
REMARK    1  A    between atoms: O_5  and  C_22
REMARK    2  A    between atoms: O_5  and  C_24
REMARK    3  A    between atoms: N_6  and  C_8
REMARK    4  A    between atoms: N_6  and  C_12
REMARK    5  A    between atoms: C_8  and  C_11
REMARK    6  A    between atoms: C_11  and  C_13
REMARK    7  A    between atoms: C_12  and  C_14
REMARK    8  A    between atoms: C_16  and  C_22
REMARK                            x       y       z     vdW  Elec       q    Type
REMARK                         _______ _______ _______ _____ _____    ______ ____
ROOT
ATOM      1  O   UNL     1      11.765   6.675  20.526  0.00  0.00    -0.376 OA
ATOM      8  C   UNL     1      13.677   7.296  19.807  0.00  0.00    +0.072 C 
ATOM      9  C   UNL     1      12.881   7.391  21.103  0.00  0.00    +0.184 C 
ATOM     10  C   UNL     1      12.427   6.632  19.241  0.00  0.00    +0.184 C 
ENDROOT
BRANCH   8   6
ATOM      6  N   UNL     1      14.719   6.279  19.969  0.00  0.00    -0.302 NA
ATOM     30  H   UNL     1      14.431   5.325  19.751  0.00  0.00    +0.123 HD
BRANCH   6  12
ATOM     12  C   UNL     1      15.878   6.643  19.151  0.00  0.00    +0.117 C 
BRANCH  12  14
ATOM      3  O   UNL     1      20.372   4.966  20.323  0.00  0.00    -0.453 OA
ATOM      4  O   UNL     1      20.669   6.628  22.043  0.00  0.00    -0.453 OA
ATOM     14  C   UNL     1      17.143   6.668  19.941  0.00  0.00    -0.030 A 
ATOM     17  C   UNL     1      18.144   5.730  19.677  0.00  0.00    +0.054 A 
ATOM     18  C   UNL     1      17.318   7.638  20.945  0.00  0.00    +0.009 A 
ATOM     19  C   UNL     1      19.296   5.793  20.435  0.00  0.00    +0.167 A 
ATOM     20  C   UNL     1      18.494   7.680  21.697  0.00  0.00    +0.050 A 
ATOM     21  C   UNL     1      19.466   6.742  21.417  0.00  0.00    +0.166 A 
ATOM     23  C   UNL     1      21.238   5.501  21.344  0.00  0.00    +0.466 C 
ENDBRANCH  12  14
ENDBRANCH   6  12
ENDBRANCH   8   6
BRANCH   8  11
ATOM     11  C   UNL     1      14.183   8.554  19.172  0.00  0.00    +0.085 C 
BRANCH  11  13
ATOM      2  O   UNL     1      12.731  11.479  20.717  0.00  0.00    -0.356 OA
ATOM      7  N   UNL     1      12.738  10.464  19.767  0.00  0.00    -0.083 NA
ATOM     13  C   UNL     1      13.845   9.760  20.022  0.00  0.00    +0.086 A 
ATOM     15  C   UNL     1      14.567  10.277  21.111  0.00  0.00    +0.074 A 
ATOM     16  C   UNL     1      13.825  11.357  21.511  0.00  0.00    +0.175 A 
BRANCH  16  22
ATOM     22  C   UNL     1      13.976  12.354  22.577  0.00  0.00    +0.306 C 
BRANCH  22   5
ATOM      5  O   UNL     1      12.939  13.336  22.487  0.00  0.00    -0.484 OA
BRANCH   5  24
ATOM     24  C   UNL     1      12.146  13.487  23.589  0.00  0.00    +0.121 A 
ATOM     25  C   UNL     1      11.648  12.364  24.250  0.00  0.00    +0.045 A 
ATOM     26  C   UNL     1      11.834  14.764  24.055  0.00  0.00    +0.045 A 
ATOM     27  C   UNL     1      10.838  12.517  25.375  0.00  0.00    +0.004 A 
ATOM     28  C   UNL     1      11.024  14.919  25.180  0.00  0.00    +0.004 A 
ATOM     29  C   UNL     1      10.526  13.795  25.840  0.00  0.00    +0.000 A 
ENDBRANCH   5  24
ENDBRANCH  22   5
ENDBRANCH  16  22
ENDBRANCH  11  13
ENDBRANCH   8  11
TORSDOF 8
ENDMDL
