MODEL 1
REMARK VINA RESULT:      -6.6      0.000      0.000
REMARK  Name = 38027871
REMARK  13 active torsions:
REMARK  status: ('A' for Active; 'I' for Inactive)
REMARK    1  A    between atoms: O_3  and  C_31
REMARK    2  A    between atoms: O_3  and  C_32
REMARK    3  A    between atoms: N_4  and  C_13
REMARK    4  A    between atoms: N_5  and  C_25
REMARK    5  A    between atoms: C_6  and  C_10
REMARK    6  A    between atoms: C_7  and  C_13
REMARK    7  A    between atoms: C_9  and  C_14
REMARK    8  A    between atoms: C_10  and  C_16
REMARK    9  A    between atoms: C_10  and  C_17
REMARK   10  A    between atoms: C_11  and  C_20
REMARK   11  A    between atoms: C_14  and  C_24
REMARK   12  A    between atoms: C_15  and  C_23
REMARK   13  A    between atoms: C_25  and  C_26
REMARK                            x       y       z     vdW  Elec       q    Type
REMARK                         _______ _______ _______ _____ _____    ______ ____
ROOT
ATOM      6  C   UNL     1      -5.896 -10.553  15.219  0.00  0.00    +0.000 C 
ATOM      7  C   UNL     1      -6.754 -10.607  16.508  0.00  0.00    +0.032 C 
ATOM      8  C   UNL     1      -4.898 -11.721  15.191  0.00  0.00    +0.012 C 
ATOM      9  C   UNL     1      -3.953 -11.710  16.407  0.00  0.00    +0.023 C 
ATOM     11  C   UNL     1      -4.707 -11.495  17.704  0.00  0.00    -0.073 C 
ATOM     12  C   UNL     1      -5.963 -11.015  17.729  0.00  0.00    -0.022 C 
ATOM     20  C   UNL     1      -4.001 -11.889  18.971  0.00  0.00    +0.039 C 
ENDROOT
BRANCH   6  10
ATOM     10  C   UNL     1      -6.763 -10.583  13.956  0.00  0.00    -0.013 C 
ATOM     16  C   UNL     1      -6.241  -9.583  12.929  0.00  0.00    +0.007 C 
ATOM     17  C   UNL     1      -6.802 -11.990  13.370  0.00  0.00    +0.007 C 
ENDBRANCH   6  10
BRANCH   7  13
ATOM     13  C   UNL     1      -7.442  -9.263  16.771  0.00  0.00    +0.112 C 
BRANCH  13   4
ATOM      1  O   UNL     1     -10.187 -10.207  16.696  0.00  0.00    -0.276 OA
ATOM      4  N   UNL     1      -8.355  -9.365  17.865  0.00  0.00    -0.315 N 
ATOM     23  C   UNL     1      -9.663  -9.831  17.741  0.00  0.00    +0.216 C 
ATOM     33  H   UNL     1      -8.007  -9.146  18.794  0.00  0.00    +0.149 HD
BRANCH  23  15
ATOM     15  C   UNL     1     -10.395  -9.859  19.047  0.00  0.00    +0.075 C 
ATOM     18  C   UNL     1      -9.947 -11.063  19.883  0.00  0.00    +0.013 C 
ATOM     19  C   UNL     1     -11.898 -10.032  18.820  0.00  0.00    +0.013 C 
ATOM     21  C   UNL     1     -11.216 -11.845  20.202  0.00  0.00    +0.001 C 
ATOM     22  C   UNL     1     -12.153 -11.514  19.055  0.00  0.00    +0.001 C 
ENDBRANCH  23  15
ENDBRANCH  13   4
ENDBRANCH   7  13
BRANCH   9  14
ATOM     14  C   UNL     1      -2.846 -10.663  16.237  0.00  0.00    +0.103 C 
BRANCH  14  24
ATOM      2  O   UNL     1      -1.053 -11.754  15.034  0.00  0.00    -0.276 OA
ATOM      5  N   UNL     1      -2.367 -10.175  13.946  0.00  0.00    -0.311 N 
ATOM     24  C   UNL     1      -1.977 -10.946  15.032  0.00  0.00    +0.214 C 
ATOM     34  H   UNL     1      -3.149  -9.534  14.041  0.00  0.00    +0.149 HD
BRANCH   5  25
ATOM     25  C   UNL     1      -1.711 -10.236  12.660  0.00  0.00    +0.139 C 
BRANCH  25  26
ATOM     26  C   UNL     1      -2.691 -10.430  11.539  0.00  0.00    -0.030 A 
ATOM     27  C   UNL     1      -2.891  -9.415  10.605  0.00  0.00    +0.009 A 
ATOM     28  C   UNL     1      -3.400 -11.626  11.432  0.00  0.00    +0.009 A 
ATOM     29  C   UNL     1      -3.802  -9.595   9.563  0.00  0.00    +0.046 A 
ATOM     30  C   UNL     1      -4.310 -11.807  10.391  0.00  0.00    +0.046 A 
ATOM     31  C   UNL     1      -4.511 -10.791   9.456  0.00  0.00    +0.120 A 
BRANCH  31   3
ATOM      3  O   UNL     1      -5.398 -10.968   8.439  0.00  0.00    -0.495 OA
ATOM     32  C   UNL     1      -5.399  -9.991   7.400  0.00  0.00    +0.277 C 
ENDBRANCH  31   3
ENDBRANCH  25  26
ENDBRANCH   5  25
ENDBRANCH  14  24
ENDBRANCH   9  14
TORSDOF 9
ENDMDL
MODEL 2
REMARK VINA RESULT:      -6.5     27.377     30.427
REMARK  Name = 38027871
REMARK  13 active torsions:
REMARK  status: ('A' for Active; 'I' for Inactive)
REMARK    1  A    between atoms: O_3  and  C_31
REMARK    2  A    between atoms: O_3  and  C_32
REMARK    3  A    between atoms: N_4  and  C_13
REMARK    4  A    between atoms: N_5  and  C_25
REMARK    5  A    between atoms: C_6  and  C_10
REMARK    6  A    between atoms: C_7  and  C_13
REMARK    7  A    between atoms: C_9  and  C_14
REMARK    8  A    between atoms: C_10  and  C_16
REMARK    9  A    between atoms: C_10  and  C_17
REMARK   10  A    between atoms: C_11  and  C_20
REMARK   11  A    between atoms: C_14  and  C_24
REMARK   12  A    between atoms: C_15  and  C_23
REMARK   13  A    between atoms: C_25  and  C_26
REMARK                            x       y       z     vdW  Elec       q    Type
REMARK                         _______ _______ _______ _____ _____    ______ ____
ROOT
ATOM      6  C   UNL     1      14.187   8.220  20.857  0.00  0.00    +0.000 C 
ATOM      7  C   UNL     1      12.728   8.086  21.359  0.00  0.00    +0.032 C 
ATOM      8  C   UNL     1      15.080   8.818  21.954  0.00  0.00    +0.012 C 
ATOM      9  C   UNL     1      14.593  10.206  22.410  0.00  0.00    +0.023 C 
ATOM     11  C   UNL     1      13.099  10.221  22.668  0.00  0.00    -0.073 C 
ATOM     12  C   UNL     1      12.284   9.259  22.203  0.00  0.00    -0.022 C 
ATOM     20  C   UNL     1      12.570  11.346  23.514  0.00  0.00    +0.039 C 
ENDROOT
BRANCH   6  10
ATOM     10  C   UNL     1      14.758   6.872  20.403  0.00  0.00    -0.013 C 
ATOM     16  C   UNL     1      15.279   6.969  18.972  0.00  0.00    +0.007 C 
ATOM     17  C   UNL     1      15.863   6.415  21.350  0.00  0.00    +0.007 C 
ENDBRANCH   6  10
BRANCH   7  13
ATOM     13  C   UNL     1      11.755   7.901  20.190  0.00  0.00    +0.112 C 
BRANCH  13   4
ATOM      1  O   UNL     1      11.872   7.282  17.356  0.00  0.00    -0.276 OA
ATOM      4  N   UNL     1      12.073   8.792  19.119  0.00  0.00    -0.315 N 
ATOM     23  C   UNL     1      12.107   8.411  17.779  0.00  0.00    +0.216 C 
ATOM     33  H   UNL     1      12.217   9.772  19.346  0.00  0.00    +0.149 HD
BRANCH  23  15
ATOM     15  C   UNL     1      12.443   9.545  16.861  0.00  0.00    +0.075 C 
ATOM     18  C   UNL     1      13.368   9.064  15.737  0.00  0.00    +0.013 C 
ATOM     19  C   UNL     1      13.212  10.635  17.610  0.00  0.00    +0.013 C 
ATOM     21  C   UNL     1      14.602   9.955  15.802  0.00  0.00    +0.001 C 
ATOM     22  C   UNL     1      14.672  10.387  17.255  0.00  0.00    +0.001 C 
ENDBRANCH  23  15
ENDBRANCH  13   4
ENDBRANCH   7  13
BRANCH   9  14
ATOM     14  C   UNL     1      14.985  11.289  21.398  0.00  0.00    +0.103 C 
BRANCH  14  24
ATOM      2  O   UNL     1      16.835  11.127  19.847  0.00  0.00    -0.276 OA
ATOM      5  N   UNL     1      17.260  11.213  22.130  0.00  0.00    -0.311 N 
ATOM     24  C   UNL     1      16.443  11.200  21.008  0.00  0.00    +0.214 C 
ATOM     34  H   UNL     1      16.841  11.280  23.054  0.00  0.00    +0.149 HD
BRANCH   5  25
ATOM     25  C   UNL     1      18.701  11.138  22.058  0.00  0.00    +0.139 C 
BRANCH  25  26
ATOM     26  C   UNL     1      19.207   9.759  22.369  0.00  0.00    -0.030 A 
ATOM     27  C   UNL     1      18.826   8.680  21.573  0.00  0.00    +0.009 A 
ATOM     28  C   UNL     1      20.060   9.558  23.455  0.00  0.00    +0.009 A 
ATOM     29  C   UNL     1      19.297   7.399  21.862  0.00  0.00    +0.046 A 
ATOM     30  C   UNL     1      20.530   8.278  23.744  0.00  0.00    +0.046 A 
ATOM     31  C   UNL     1      20.149   7.197  22.947  0.00  0.00    +0.120 A 
BRANCH  31   3
ATOM      3  O   UNL     1      20.610   5.948  23.229  0.00  0.00    -0.495 OA
ATOM     32  C   UNL     1      21.357   5.286  22.210  0.00  0.00    +0.277 C 
ENDBRANCH  31   3
ENDBRANCH  25  26
ENDBRANCH   5  25
ENDBRANCH  14  24
ENDBRANCH   9  14
TORSDOF 9
ENDMDL
MODEL 3
REMARK VINA RESULT:      -6.5      2.454      8.788
REMARK  Name = 38027871
REMARK  13 active torsions:
REMARK  status: ('A' for Active; 'I' for Inactive)
REMARK    1  A    between atoms: O_3  and  C_31
REMARK    2  A    between atoms: O_3  and  C_32
REMARK    3  A    between atoms: N_4  and  C_13
REMARK    4  A    between atoms: N_5  and  C_25
REMARK    5  A    between atoms: C_6  and  C_10
REMARK    6  A    between atoms: C_7  and  C_13
REMARK    7  A    between atoms: C_9  and  C_14
REMARK    8  A    between atoms: C_10  and  C_16
REMARK    9  A    between atoms: C_10  and  C_17
REMARK   10  A    between atoms: C_11  and  C_20
REMARK   11  A    between atoms: C_14  and  C_24
REMARK   12  A    between atoms: C_15  and  C_23
REMARK   13  A    between atoms: C_25  and  C_26
REMARK                            x       y       z     vdW  Elec       q    Type
REMARK                         _______ _______ _______ _____ _____    ______ ____
ROOT
ATOM      6  C   UNL     1      -5.173 -10.576  10.769  0.00  0.00    +0.000 C 
ATOM      7  C   UNL     1      -4.631  -9.657   9.645  0.00  0.00    +0.032 C 
ATOM      8  C   UNL     1      -4.621 -10.139  12.134  0.00  0.00    +0.012 C 
ATOM      9  C   UNL     1      -3.082 -10.171  12.177  0.00  0.00    +0.023 C 
ATOM     11  C   UNL     1      -2.470  -9.514  10.956  0.00  0.00    -0.073 C 
ATOM     12  C   UNL     1      -3.181  -9.279   9.840  0.00  0.00    -0.022 C 
ATOM     20  C   UNL     1      -1.032  -9.089  11.066  0.00  0.00    +0.039 C 
ENDROOT
BRANCH   6  10
ATOM     10  C   UNL     1      -6.705 -10.584  10.808  0.00  0.00    -0.013 C 
ATOM     16  C   UNL     1      -7.203 -11.369  12.017  0.00  0.00    +0.007 C 
ATOM     17  C   UNL     1      -7.244  -9.157  10.831  0.00  0.00    +0.007 C 
ENDBRANCH   6  10
BRANCH   7  13
ATOM     13  C   UNL     1      -4.810 -10.302   8.268  0.00  0.00    +0.112 C 
BRANCH  13   4
ATOM      1  O   UNL     1      -5.736 -10.904   5.582  0.00  0.00    -0.276 OA
ATOM      4  N   UNL     1      -5.618  -9.480   7.423  0.00  0.00    -0.315 N 
ATOM     23  C   UNL     1      -6.020  -9.847   6.140  0.00  0.00    +0.216 C 
ATOM     33  H   UNL     1      -5.971  -8.608   7.808  0.00  0.00    +0.149 HD
BRANCH  23  15
ATOM     15  C   UNL     1      -6.880  -8.812   5.483  0.00  0.00    +0.075 C 
ATOM     18  C   UNL     1      -7.853  -8.206   6.500  0.00  0.00    +0.013 C 
ATOM     19  C   UNL     1      -7.743  -9.443   4.389  0.00  0.00    +0.013 C 
ATOM     21  C   UNL     1      -9.247  -8.412   5.918  0.00  0.00    +0.001 C 
ATOM     22  C   UNL     1      -9.104  -9.643   5.042  0.00  0.00    +0.001 C 
ENDBRANCH  23  15
ENDBRANCH  13   4
ENDBRANCH   7  13
BRANCH   9  14
ATOM     14  C   UNL     1      -2.564 -11.605  12.345  0.00  0.00    +0.103 C 
BRANCH  14  24
ATOM      2  O   UNL     1      -2.253 -13.146  14.184  0.00  0.00    -0.276 OA
ATOM      5  N   UNL     1      -2.524 -10.880  14.623  0.00  0.00    -0.311 N 
ATOM     24  C   UNL     1      -2.427 -11.992  13.800  0.00  0.00    +0.214 C 
ATOM     34  H   UNL     1      -2.666  -9.962  14.210  0.00  0.00    +0.149 HD
BRANCH   5  25
ATOM     25  C   UNL     1      -2.431 -10.953  16.063  0.00  0.00    +0.139 C 
BRANCH  25  26
ATOM     26  C   UNL     1      -3.771 -10.788  16.721  0.00  0.00    -0.030 A 
ATOM     27  C   UNL     1      -4.793 -10.107  16.061  0.00  0.00    +0.009 A 
ATOM     28  C   UNL     1      -3.993 -11.319  17.992  0.00  0.00    +0.009 A 
ATOM     29  C   UNL     1      -6.038  -9.954  16.673  0.00  0.00    +0.046 A 
ATOM     30  C   UNL     1      -5.237 -11.166  18.603  0.00  0.00    +0.046 A 
ATOM     31  C   UNL     1      -6.260 -10.484  17.944  0.00  0.00    +0.120 A 
BRANCH  31   3
ATOM      3  O   UNL     1      -7.474 -10.336  18.540  0.00  0.00    -0.495 OA
ATOM     32  C   UNL     1      -8.016 -11.478  19.201  0.00  0.00    +0.277 C 
ENDBRANCH  31   3
ENDBRANCH  25  26
ENDBRANCH   5  25
ENDBRANCH  14  24
ENDBRANCH   9  14
TORSDOF 9
ENDMDL
MODEL 4
REMARK VINA RESULT:      -6.5     27.359     30.132
REMARK  Name = 38027871
REMARK  13 active torsions:
REMARK  status: ('A' for Active; 'I' for Inactive)
REMARK    1  A    between atoms: O_3  and  C_31
REMARK    2  A    between atoms: O_3  and  C_32
REMARK    3  A    between atoms: N_4  and  C_13
REMARK    4  A    between atoms: N_5  and  C_25
REMARK    5  A    between atoms: C_6  and  C_10
REMARK    6  A    between atoms: C_7  and  C_13
REMARK    7  A    between atoms: C_9  and  C_14
REMARK    8  A    between atoms: C_10  and  C_16
REMARK    9  A    between atoms: C_10  and  C_17
REMARK   10  A    between atoms: C_11  and  C_20
REMARK   11  A    between atoms: C_14  and  C_24
REMARK   12  A    between atoms: C_15  and  C_23
REMARK   13  A    between atoms: C_25  and  C_26
REMARK                            x       y       z     vdW  Elec       q    Type
REMARK                         _______ _______ _______ _____ _____    ______ ____
ROOT
ATOM      6  C   UNL     1      13.667   9.749  19.187  0.00  0.00    +0.000 C 
ATOM      7  C   UNL     1      12.929   8.389  19.116  0.00  0.00    +0.032 C 
ATOM      8  C   UNL     1      15.185   9.543  19.060  0.00  0.00    +0.012 C 
ATOM      9  C   UNL     1      15.743   8.627  20.165  0.00  0.00    +0.023 C 
ATOM     11  C   UNL     1      14.902   7.378  20.339  0.00  0.00    -0.073 C 
ATOM     12  C   UNL     1      13.653   7.285  19.852  0.00  0.00    -0.022 C 
ATOM     20  C   UNL     1      15.549   6.221  21.048  0.00  0.00    +0.039 C 
ENDROOT
BRANCH   6  10
ATOM     10  C   UNL     1      13.184  10.716  18.101  0.00  0.00    -0.013 C 
ATOM     16  C   UNL     1      13.678  12.130  18.389  0.00  0.00    +0.007 C 
ATOM     17  C   UNL     1      13.651  10.250  16.726  0.00  0.00    +0.007 C 
ENDBRANCH   6  10
BRANCH   7  13
ATOM     13  C   UNL     1      11.499   8.507  19.652  0.00  0.00    +0.112 C 
BRANCH  13   4
ATOM      1  O   UNL     1      11.566   8.506  22.555  0.00  0.00    -0.276 OA
ATOM      4  N   UNL     1      11.374   9.632  20.523  0.00  0.00    -0.315 N 
ATOM     23  C   UNL     1      11.418   9.543  21.913  0.00  0.00    +0.216 C 
ATOM     33  H   UNL     1      11.317  10.554  20.100  0.00  0.00    +0.149 HD
BRANCH  23  15
ATOM     15  C   UNL     1      11.287  10.876  22.585  0.00  0.00    +0.075 C 
ATOM     18  C   UNL     1      11.423  12.004  21.556  0.00  0.00    +0.013 C 
ATOM     19  C   UNL     1      12.415  11.083  23.597  0.00  0.00    +0.013 C 
ATOM     21  C   UNL     1      12.558  12.890  22.056  0.00  0.00    +0.001 C 
ATOM     22  C   UNL     1      13.431  11.951  22.869  0.00  0.00    +0.001 C 
ENDBRANCH  23  15
ENDBRANCH  13   4
ENDBRANCH   7  13
BRANCH   9  14
ATOM     14  C   UNL     1      15.882   9.383  21.492  0.00  0.00    +0.103 C 
BRANCH  14  24
ATOM      2  O   UNL     1      17.811  10.755  21.992  0.00  0.00    -0.276 OA
ATOM      5  N   UNL     1      18.018   8.440  22.004  0.00  0.00    -0.311 N 
ATOM     24  C   UNL     1      17.328   9.634  21.854  0.00  0.00    +0.214 C 
ATOM     34  H   UNL     1      17.530   7.559  21.872  0.00  0.00    +0.149 HD
BRANCH   5  25
ATOM     25  C   UNL     1      19.420   8.377  22.347  0.00  0.00    +0.139 C 
BRANCH  25  26
ATOM     26  C   UNL     1      20.031   7.057  21.971  0.00  0.00    -0.030 A 
ATOM     27  C   UNL     1      21.003   6.481  22.788  0.00  0.00    +0.009 A 
ATOM     28  C   UNL     1      19.625   6.409  20.805  0.00  0.00    +0.009 A 
ATOM     29  C   UNL     1      21.570   5.255  22.438  0.00  0.00    +0.046 A 
ATOM     30  C   UNL     1      20.192   5.183  20.456  0.00  0.00    +0.046 A 
ATOM     31  C   UNL     1      21.165   4.606  21.272  0.00  0.00    +0.120 A 
BRANCH  31   3
ATOM      3  O   UNL     1      21.717   3.410  20.932  0.00  0.00    -0.495 OA
ATOM     32  C   UNL     1      23.096   3.218  21.243  0.00  0.00    +0.277 C 
ENDBRANCH  31   3
ENDBRANCH  25  26
ENDBRANCH   5  25
ENDBRANCH  14  24
ENDBRANCH   9  14
TORSDOF 9
ENDMDL
MODEL 5
REMARK VINA RESULT:      -6.4      2.125      8.503
REMARK  Name = 38027871
REMARK  13 active torsions:
REMARK  status: ('A' for Active; 'I' for Inactive)
REMARK    1  A    between atoms: O_3  and  C_31
REMARK    2  A    between atoms: O_3  and  C_32
REMARK    3  A    between atoms: N_4  and  C_13
REMARK    4  A    between atoms: N_5  and  C_25
REMARK    5  A    between atoms: C_6  and  C_10
REMARK    6  A    between atoms: C_7  and  C_13
REMARK    7  A    between atoms: C_9  and  C_14
REMARK    8  A    between atoms: C_10  and  C_16
REMARK    9  A    between atoms: C_10  and  C_17
REMARK   10  A    between atoms: C_11  and  C_20
REMARK   11  A    between atoms: C_14  and  C_24
REMARK   12  A    between atoms: C_15  and  C_23
REMARK   13  A    between atoms: C_25  and  C_26
REMARK                            x       y       z     vdW  Elec       q    Type
REMARK                         _______ _______ _______ _____ _____    ______ ____
ROOT
ATOM      6  C   UNL     1      -7.270 -10.379  16.169  0.00  0.00    +0.000 C 
ATOM      7  C   UNL     1      -6.353 -10.081  14.956  0.00  0.00    +0.032 C 
ATOM      8  C   UNL     1      -6.615  -9.887  17.469  0.00  0.00    +0.012 C 
ATOM      9  C   UNL     1      -5.246 -10.547  17.719  0.00  0.00    +0.023 C 
ATOM     11  C   UNL     1      -4.379 -10.531  16.476  0.00  0.00    -0.073 C 
ATOM     12  C   UNL     1      -4.889 -10.308  15.252  0.00  0.00    -0.022 C 
ATOM     20  C   UNL     1      -2.903 -10.733  16.678  0.00  0.00    +0.039 C 
ENDROOT
BRANCH   6  10
ATOM     10  C   UNL     1      -8.652  -9.736  16.009  0.00  0.00    -0.013 C 
ATOM     16  C   UNL     1      -9.746 -10.793  16.118  0.00  0.00    +0.007 C 
ATOM     17  C   UNL     1      -8.852  -8.641  17.051  0.00  0.00    +0.007 C 
ENDBRANCH   6  10
BRANCH   7  13
ATOM     13  C   UNL     1      -6.762 -10.913  13.736  0.00  0.00    +0.112 C 
BRANCH  13   4
ATOM      1  O   UNL     1      -5.929 -10.005  11.106  0.00  0.00    -0.276 OA
ATOM      4  N   UNL     1      -5.612 -11.330  12.997  0.00  0.00    -0.315 N 
ATOM     23  C   UNL     1      -5.285 -10.841  11.734  0.00  0.00    +0.216 C 
ATOM     33  H   UNL     1      -4.966 -11.970  13.450  0.00  0.00    +0.149 HD
BRANCH  23  15
ATOM     15  C   UNL     1      -4.015 -11.427  11.196  0.00  0.00    +0.075 C 
ATOM     18  C   UNL     1      -3.404 -12.396  12.215  0.00  0.00    +0.013 C 
ATOM     19  C   UNL     1      -2.971 -10.334  10.966  0.00  0.00    +0.013 C 
ATOM     21  C   UNL     1      -1.987 -11.895  12.469  0.00  0.00    +0.001 C 
ATOM     22  C   UNL     1      -2.065 -10.406  12.187  0.00  0.00    +0.001 C 
ENDBRANCH  23  15
ENDBRANCH  13   4
ENDBRANCH   7  13
BRANCH   9  14
ATOM     14  C   UNL     1      -5.411 -11.974  18.254  0.00  0.00    +0.103 C 
BRANCH  14  24
ATOM      2  O   UNL     1      -6.266 -11.423  20.449  0.00  0.00    -0.276 OA
ATOM      5  N   UNL     1      -7.455 -12.888  19.092  0.00  0.00    -0.311 N 
ATOM     24  C   UNL     1      -6.398 -12.042  19.397  0.00  0.00    +0.214 C 
ATOM     34  H   UNL     1      -7.479 -13.355  18.190  0.00  0.00    +0.149 HD
BRANCH   5  25
ATOM     25  C   UNL     1      -8.548 -13.145  20.002  0.00  0.00    +0.139 C 
BRANCH  25  26
ATOM     26  C   UNL     1      -9.749 -12.299  19.691  0.00  0.00    -0.030 A 
ATOM     27  C   UNL     1      -9.742 -10.939  19.999  0.00  0.00    +0.009 A 
ATOM     28  C   UNL     1     -10.870 -12.873  19.092  0.00  0.00    +0.009 A 
ATOM     29  C   UNL     1     -10.858 -10.153  19.710  0.00  0.00    +0.046 A 
ATOM     30  C   UNL     1     -11.985 -12.087  18.804  0.00  0.00    +0.046 A 
ATOM     31  C   UNL     1     -11.979 -10.727  19.112  0.00  0.00    +0.120 A 
BRANCH  31   3
ATOM      3  O   UNL     1     -13.067  -9.960  18.828  0.00  0.00    -0.495 OA
ATOM     32  C   UNL     1     -13.319  -9.673  17.454  0.00  0.00    +0.277 C 
ENDBRANCH  31   3
ENDBRANCH  25  26
ENDBRANCH   5  25
ENDBRANCH  14  24
ENDBRANCH   9  14
TORSDOF 9
ENDMDL
MODEL 6
REMARK VINA RESULT:      -6.4     27.775     30.763
REMARK  Name = 38027871
REMARK  13 active torsions:
REMARK  status: ('A' for Active; 'I' for Inactive)
REMARK    1  A    between atoms: O_3  and  C_31
REMARK    2  A    between atoms: O_3  and  C_32
REMARK    3  A    between atoms: N_4  and  C_13
REMARK    4  A    between atoms: N_5  and  C_25
REMARK    5  A    between atoms: C_6  and  C_10
REMARK    6  A    between atoms: C_7  and  C_13
REMARK    7  A    between atoms: C_9  and  C_14
REMARK    8  A    between atoms: C_10  and  C_16
REMARK    9  A    between atoms: C_10  and  C_17
REMARK   10  A    between atoms: C_11  and  C_20
REMARK   11  A    between atoms: C_14  and  C_24
REMARK   12  A    between atoms: C_15  and  C_23
REMARK   13  A    between atoms: C_25  and  C_26
REMARK                            x       y       z     vdW  Elec       q    Type
REMARK                         _______ _______ _______ _____ _____    ______ ____
ROOT
ATOM      6  C   UNL     1      16.648   8.167  21.012  0.00  0.00    +0.000 C 
ATOM      7  C   UNL     1      16.193   7.267  19.835  0.00  0.00    +0.032 C 
ATOM      8  C   UNL     1      18.166   8.401  20.953  0.00  0.00    +0.012 C 
ATOM      9  C   UNL     1      18.961   7.083  21.011  0.00  0.00    +0.023 C 
ATOM     11  C   UNL     1      18.398   6.044  20.062  0.00  0.00    -0.073 C 
ATOM     12  C   UNL     1      17.166   6.150  19.537  0.00  0.00    -0.022 C 
ATOM     20  C   UNL     1      19.304   4.902  19.696  0.00  0.00    +0.039 C 
ENDROOT
BRANCH   6  10
ATOM     10  C   UNL     1      15.917   9.514  21.014  0.00  0.00    -0.013 C 
ATOM     16  C   UNL     1      15.302   9.783  22.383  0.00  0.00    +0.007 C 
ATOM     17  C   UNL     1      16.869  10.638  20.619  0.00  0.00    +0.007 C 
ENDBRANCH   6  10
BRANCH   7  13
ATOM     13  C   UNL     1      14.803   6.679  20.095  0.00  0.00    +0.112 C 
BRANCH  13   4
ATOM      1  O   UNL     1      12.006   6.324  19.402  0.00  0.00    -0.276 OA
ATOM      4  N   UNL     1      13.797   7.689  19.999  0.00  0.00    -0.315 N 
ATOM     23  C   UNL     1      12.471   7.431  19.658  0.00  0.00    +0.216 C 
ATOM     33  H   UNL     1      14.054   8.638  20.258  0.00  0.00    +0.149 HD
BRANCH  23  15
ATOM     15  C   UNL     1      11.622   8.665  19.654  0.00  0.00    +0.075 C 
ATOM     18  C   UNL     1      12.506   9.918  19.658  0.00  0.00    +0.013 C 
ATOM     19  C   UNL     1      10.770   8.739  20.921  0.00  0.00    +0.013 C 
ATOM     21  C   UNL     1      12.070  10.731  20.872  0.00  0.00    +0.001 C 
ATOM     22  C   UNL     1      11.524   9.694  21.836  0.00  0.00    +0.001 C 
ENDBRANCH  23  15
ENDBRANCH  13   4
ENDBRANCH   7  13
BRANCH   9  14
ATOM     14  C   UNL     1      19.026   6.540  22.443  0.00  0.00    +0.103 C 
BRANCH  14  24
ATOM      2  O   UNL     1      20.753   6.541  24.137  0.00  0.00    -0.276 OA
ATOM      5  N   UNL     1      21.338   6.249  21.907  0.00  0.00    -0.311 N 
ATOM     24  C   UNL     1      20.447   6.448  22.952  0.00  0.00    +0.214 C 
ATOM     34  H   UNL     1      20.988   6.182  20.956  0.00  0.00    +0.149 HD
BRANCH   5  25
ATOM     25  C   UNL     1      22.765   6.126  22.099  0.00  0.00    +0.139 C 
BRANCH  25  26
ATOM     26  C   UNL     1      23.244   4.723  21.863  0.00  0.00    -0.030 A 
ATOM     27  C   UNL     1      23.855   4.389  20.655  0.00  0.00    +0.009 A 
ATOM     28  C   UNL     1      23.079   3.754  22.853  0.00  0.00    +0.009 A 
ATOM     29  C   UNL     1      24.301   3.085  20.435  0.00  0.00    +0.046 A 
ATOM     30  C   UNL     1      23.524   2.451  22.633  0.00  0.00    +0.046 A 
ATOM     31  C   UNL     1      24.136   2.116  21.424  0.00  0.00    +0.120 A 
BRANCH  31   3
ATOM      3  O   UNL     1      24.571   0.844  21.211  0.00  0.00    -0.495 OA
ATOM     32  C   UNL     1      25.467   0.295  22.176  0.00  0.00    +0.277 C 
ENDBRANCH  31   3
ENDBRANCH  25  26
ENDBRANCH   5  25
ENDBRANCH  14  24
ENDBRANCH   9  14
TORSDOF 9
ENDMDL
MODEL 7
REMARK VINA RESULT:      -6.3      3.369      8.699
REMARK  Name = 38027871
REMARK  13 active torsions:
REMARK  status: ('A' for Active; 'I' for Inactive)
REMARK    1  A    between atoms: O_3  and  C_31
REMARK    2  A    between atoms: O_3  and  C_32
REMARK    3  A    between atoms: N_4  and  C_13
REMARK    4  A    between atoms: N_5  and  C_25
REMARK    5  A    between atoms: C_6  and  C_10
REMARK    6  A    between atoms: C_7  and  C_13
REMARK    7  A    between atoms: C_9  and  C_14
REMARK    8  A    between atoms: C_10  and  C_16
REMARK    9  A    between atoms: C_10  and  C_17
REMARK   10  A    between atoms: C_11  and  C_20
REMARK   11  A    between atoms: C_14  and  C_24
REMARK   12  A    between atoms: C_15  and  C_23
REMARK   13  A    between atoms: C_25  and  C_26
REMARK                            x       y       z     vdW  Elec       q    Type
REMARK                         _______ _______ _______ _____ _____    ______ ____
ROOT
ATOM      6  C   UNL     1      -4.723 -11.170   7.678  0.00  0.00    +0.000 C 
ATOM      7  C   UNL     1      -6.138 -10.543   7.616  0.00  0.00    +0.032 C 
ATOM      8  C   UNL     1      -4.383 -11.589   9.117  0.00  0.00    +0.012 C 
ATOM      9  C   UNL     1      -4.434 -10.401  10.096  0.00  0.00    +0.023 C 
ATOM     11  C   UNL     1      -5.688  -9.571   9.910  0.00  0.00    -0.073 C 
ATOM     12  C   UNL     1      -6.444  -9.658   8.802  0.00  0.00    -0.022 C 
ATOM     20  C   UNL     1      -6.079  -8.671  11.049  0.00  0.00    +0.039 C 
ENDROOT
BRANCH   6  10
ATOM     10  C   UNL     1      -4.594 -12.378   6.743  0.00  0.00    -0.013 C 
ATOM     16  C   UNL     1      -3.691 -12.042   5.561  0.00  0.00    +0.007 C 
ATOM     17  C   UNL     1      -4.061 -13.586   7.505  0.00  0.00    +0.007 C 
ENDBRANCH   6  10
BRANCH   7  13
ATOM     13  C   UNL     1      -6.336  -9.748   6.321  0.00  0.00    +0.112 C 
BRANCH  13   4
ATOM      1  O   UNL     1      -8.816  -8.874   5.090  0.00  0.00    -0.276 OA
ATOM      4  N   UNL     1      -7.050  -8.537   6.573  0.00  0.00    -0.315 N 
ATOM     23  C   UNL     1      -8.240  -8.193   5.934  0.00  0.00    +0.216 C 
ATOM     33  H   UNL     1      -6.702  -7.926   7.307  0.00  0.00    +0.149 HD
BRANCH  23  15
ATOM     15  C   UNL     1      -8.792  -6.881   6.402  0.00  0.00    +0.075 C 
ATOM     18  C   UNL     1      -8.222  -6.526   7.780  0.00  0.00    +0.013 C 
ATOM     19  C   UNL     1     -10.309  -6.964   6.575  0.00  0.00    +0.013 C 
ATOM     21  C   UNL     1      -9.428  -6.313   8.688  0.00  0.00    +0.001 C 
ATOM     22  C   UNL     1     -10.514  -7.174   8.069  0.00  0.00    +0.001 C 
ENDBRANCH  23  15
ENDBRANCH  13   4
ENDBRANCH   7  13
BRANCH   9  14
ATOM     14  C   UNL     1      -3.178  -9.531   9.974  0.00  0.00    +0.103 C 
BRANCH  14  24
ATOM      2  O   UNL     1      -1.111  -9.253  11.201  0.00  0.00    -0.276 OA
ATOM      5  N   UNL     1      -2.875 -10.407  12.179  0.00  0.00    -0.311 N 
ATOM     24  C   UNL     1      -2.255  -9.696  11.161  0.00  0.00    +0.214 C 
ATOM     34  H   UNL     1      -3.830 -10.731  12.054  0.00  0.00    +0.149 HD
BRANCH   5  25
ATOM     25  C   UNL     1      -2.228 -10.716  13.433  0.00  0.00    +0.139 C 
BRANCH  25  26
ATOM     26  C   UNL     1      -3.192 -10.688  14.584  0.00  0.00    -0.030 A 
ATOM     27  C   UNL     1      -2.733 -10.899  15.883  0.00  0.00    +0.009 A 
ATOM     28  C   UNL     1      -4.547 -10.449  14.353  0.00  0.00    +0.009 A 
ATOM     29  C   UNL     1      -3.629 -10.872  16.953  0.00  0.00    +0.046 A 
ATOM     30  C   UNL     1      -5.442 -10.423  15.421  0.00  0.00    +0.046 A 
ATOM     31  C   UNL     1      -4.983 -10.634  16.722  0.00  0.00    +0.120 A 
BRANCH  31   3
ATOM      3  O   UNL     1      -5.857 -10.607  17.765  0.00  0.00    -0.495 OA
ATOM     32  C   UNL     1      -6.745 -11.715  17.898  0.00  0.00    +0.277 C 
ENDBRANCH  31   3
ENDBRANCH  25  26
ENDBRANCH   5  25
ENDBRANCH  14  24
ENDBRANCH   9  14
TORSDOF 9
ENDMDL
MODEL 8
REMARK VINA RESULT:      -6.2     28.579     32.170
REMARK  Name = 38027871
REMARK  13 active torsions:
REMARK  status: ('A' for Active; 'I' for Inactive)
REMARK    1  A    between atoms: O_3  and  C_31
REMARK    2  A    between atoms: O_3  and  C_32
REMARK    3  A    between atoms: N_4  and  C_13
REMARK    4  A    between atoms: N_5  and  C_25
REMARK    5  A    between atoms: C_6  and  C_10
REMARK    6  A    between atoms: C_7  and  C_13
REMARK    7  A    between atoms: C_9  and  C_14
REMARK    8  A    between atoms: C_10  and  C_16
REMARK    9  A    between atoms: C_10  and  C_17
REMARK   10  A    between atoms: C_11  and  C_20
REMARK   11  A    between atoms: C_14  and  C_24
REMARK   12  A    between atoms: C_15  and  C_23
REMARK   13  A    between atoms: C_25  and  C_26
REMARK                            x       y       z     vdW  Elec       q    Type
REMARK                         _______ _______ _______ _____ _____    ______ ____
ROOT
ATOM      6  C   UNL     1      21.284   7.353  22.217  0.00  0.00    +0.000 C 
ATOM      7  C   UNL     1      21.332   6.062  21.361  0.00  0.00    +0.032 C 
ATOM      8  C   UNL     1      19.885   7.544  22.822  0.00  0.00    +0.012 C 
ATOM      9  C   UNL     1      18.790   7.634  21.742  0.00  0.00    +0.023 C 
ATOM     11  C   UNL     1      18.935   6.541  20.702  0.00  0.00    -0.073 C 
ATOM     12  C   UNL     1      20.073   5.840  20.556  0.00  0.00    -0.022 C 
ATOM     20  C   UNL     1      17.724   6.241  19.864  0.00  0.00    +0.039 C 
ENDROOT
BRANCH   6  10
ATOM     10  C   UNL     1      22.334   7.334  23.333  0.00  0.00    -0.013 C 
ATOM     16  C   UNL     1      22.179   8.559  24.229  0.00  0.00    +0.007 C 
ATOM     17  C   UNL     1      22.221   6.050  24.149  0.00  0.00    +0.007 C 
ENDBRANCH   6  10
BRANCH   7  13
ATOM     13  C   UNL     1      22.544   6.063  20.424  0.00  0.00    +0.112 C 
BRANCH  13   4
ATOM      1  O   UNL     1      25.304   5.174  20.577  0.00  0.00    -0.276 OA
ATOM      4  N   UNL     1      23.041   4.737  20.234  0.00  0.00    -0.315 N 
ATOM     23  C   UNL     1      24.389   4.395  20.326  0.00  0.00    +0.216 C 
ATOM     33  H   UNL     1      22.363   3.994  20.088  0.00  0.00    +0.149 HD
BRANCH  23  15
ATOM     15  C   UNL     1      24.632   2.933  20.107  0.00  0.00    +0.075 C 
ATOM     18  C   UNL     1      23.544   2.104  20.797  0.00  0.00    +0.013 C 
ATOM     19  C   UNL     1      25.959   2.507  20.737  0.00  0.00    +0.013 C 
ATOM     21  C   UNL     1      24.278   1.150  21.733  0.00  0.00    +0.001 C 
ATOM     22  C   UNL     1      25.568   1.876  22.066  0.00  0.00    +0.001 C 
ENDBRANCH  23  15
ENDBRANCH  13   4
ENDBRANCH   7  13
BRANCH   9  14
ATOM     14  C   UNL     1      18.776   9.018  21.084  0.00  0.00    +0.103 C 
BRANCH  14  24
ATOM      2  O   UNL     1      17.494  10.684  22.282  0.00  0.00    -0.276 OA
ATOM      5  N   UNL     1      16.449   9.379  20.668  0.00  0.00    -0.311 N 
ATOM     24  C   UNL     1      17.529   9.799  21.432  0.00  0.00    +0.214 C 
ATOM     34  H   UNL     1      16.577   8.639  19.984  0.00  0.00    +0.149 HD
BRANCH   5  25
ATOM     25  C   UNL     1      15.127   9.949  20.789  0.00  0.00    +0.139 C 
BRANCH  25  26
ATOM     26  C   UNL     1      14.157   9.327  19.826  0.00  0.00    -0.030 A 
ATOM     27  C   UNL     1      12.787   9.529  19.989  0.00  0.00    +0.009 A 
ATOM     28  C   UNL     1      14.627   8.548  18.769  0.00  0.00    +0.009 A 
ATOM     29  C   UNL     1      11.886   8.952  19.094  0.00  0.00    +0.046 A 
ATOM     30  C   UNL     1      13.726   7.970  17.876  0.00  0.00    +0.046 A 
ATOM     31  C   UNL     1      12.355   8.172  18.037  0.00  0.00    +0.120 A 
BRANCH  31   3
ATOM      3  O   UNL     1      11.477   7.609  17.164  0.00  0.00    -0.495 OA
ATOM     32  C   UNL     1      10.526   8.476  16.549  0.00  0.00    +0.277 C 
ENDBRANCH  31   3
ENDBRANCH  25  26
ENDBRANCH   5  25
ENDBRANCH  14  24
ENDBRANCH   9  14
TORSDOF 9
ENDMDL
MODEL 9
REMARK VINA RESULT:      -6.2      3.127      6.378
REMARK  Name = 38027871
REMARK  13 active torsions:
REMARK  status: ('A' for Active; 'I' for Inactive)
REMARK    1  A    between atoms: O_3  and  C_31
REMARK    2  A    between atoms: O_3  and  C_32
REMARK    3  A    between atoms: N_4  and  C_13
REMARK    4  A    between atoms: N_5  and  C_25
REMARK    5  A    between atoms: C_6  and  C_10
REMARK    6  A    between atoms: C_7  and  C_13
REMARK    7  A    between atoms: C_9  and  C_14
REMARK    8  A    between atoms: C_10  and  C_16
REMARK    9  A    between atoms: C_10  and  C_17
REMARK   10  A    between atoms: C_11  and  C_20
REMARK   11  A    between atoms: C_14  and  C_24
REMARK   12  A    between atoms: C_15  and  C_23
REMARK   13  A    between atoms: C_25  and  C_26
REMARK                            x       y       z     vdW  Elec       q    Type
REMARK                         _______ _______ _______ _____ _____    ______ ____
ROOT
ATOM      6  C   UNL     1      -3.023 -12.253  12.742  0.00  0.00    +0.000 C 
ATOM      7  C   UNL     1      -1.957 -11.130  12.697  0.00  0.00    +0.032 C 
ATOM      8  C   UNL     1      -3.477 -12.619  11.320  0.00  0.00    +0.012 C 
ATOM      9  C   UNL     1      -4.072 -11.412  10.570  0.00  0.00    +0.023 C 
ATOM     11  C   UNL     1      -3.201 -10.179  10.707  0.00  0.00    -0.073 C 
ATOM     12  C   UNL     1      -2.253 -10.077  11.655  0.00  0.00    -0.022 C 
ATOM     20  C   UNL     1      -3.416  -9.084   9.700  0.00  0.00    +0.039 C 
ENDROOT
BRANCH   6  10
ATOM     10  C   UNL     1      -2.501 -13.505  13.456  0.00  0.00    -0.013 C 
ATOM     16  C   UNL     1      -3.509 -13.983  14.496  0.00  0.00    +0.007 C 
ATOM     17  C   UNL     1      -2.201 -14.608  12.446  0.00  0.00    +0.007 C 
ENDBRANCH   6  10
BRANCH   7  13
ATOM     13  C   UNL     1      -1.800 -10.462  14.067  0.00  0.00    +0.112 C 
BRANCH  13   4
ATOM      1  O   UNL     1      -2.497 -10.990  16.836  0.00  0.00    -0.276 OA
ATOM      4  N   UNL     1      -3.072 -10.280  14.692  0.00  0.00    -0.315 N 
ATOM     23  C   UNL     1      -3.322 -10.560  16.035  0.00  0.00    +0.216 C 
ATOM     33  H   UNL     1      -3.815  -9.861  14.140  0.00  0.00    +0.149 HD
BRANCH  23  15
ATOM     15  C   UNL     1      -4.732 -10.256  16.438  0.00  0.00    +0.075 C 
ATOM     18  C   UNL     1      -5.035 -10.863  17.813  0.00  0.00    +0.013 C 
ATOM     19  C   UNL     1      -5.722 -10.894  15.462  0.00  0.00    +0.013 C 
ATOM     21  C   UNL     1      -6.254 -11.756  17.615  0.00  0.00    +0.001 C 
ATOM     22  C   UNL     1      -6.178 -12.170  16.157  0.00  0.00    +0.001 C 
ENDBRANCH  23  15
ENDBRANCH  13   4
ENDBRANCH   7  13
BRANCH   9  14
ATOM     14  C   UNL     1      -5.505 -11.125  11.034  0.00  0.00    +0.103 C 
BRANCH  14  24
ATOM      2  O   UNL     1      -7.729 -11.290  10.095  0.00  0.00    -0.276 OA
ATOM      5  N   UNL     1      -5.881 -11.596   8.720  0.00  0.00    -0.311 N 
ATOM     24  C   UNL     1      -6.513 -11.339   9.928  0.00  0.00    +0.214 C 
ATOM     34  H   UNL     1      -4.866 -11.613   8.680  0.00  0.00    +0.149 HD
BRANCH   5  25
ATOM     25  C   UNL     1      -6.598 -11.841   7.490  0.00  0.00    +0.139 C 
BRANCH  25  26
ATOM     26  C   UNL     1      -5.669 -11.990   6.319  0.00  0.00    -0.030 A 
ATOM     27  C   UNL     1      -4.306 -12.187   6.531  0.00  0.00    +0.009 A 
ATOM     28  C   UNL     1      -6.173 -11.931   5.019  0.00  0.00    +0.009 A 
ATOM     29  C   UNL     1      -3.443 -12.325   5.442  0.00  0.00    +0.046 A 
ATOM     30  C   UNL     1      -5.311 -12.068   3.931  0.00  0.00    +0.046 A 
ATOM     31  C   UNL     1      -3.946 -12.266   4.143  0.00  0.00    +0.120 A 
BRANCH  31   3
ATOM      3  O   UNL     1      -3.105 -12.401   3.081  0.00  0.00    -0.495 OA
ATOM     32  C   UNL     1      -2.266 -13.555   3.060  0.00  0.00    +0.277 C 
ENDBRANCH  31   3
ENDBRANCH  25  26
ENDBRANCH   5  25
ENDBRANCH  14  24
ENDBRANCH   9  14
TORSDOF 9
ENDMDL
MODEL 10
REMARK VINA RESULT:      -6.1     25.177     29.589
REMARK  Name = 38027871
REMARK  13 active torsions:
REMARK  status: ('A' for Active; 'I' for Inactive)
REMARK    1  A    between atoms: O_3  and  C_31
REMARK    2  A    between atoms: O_3  and  C_32
REMARK    3  A    between atoms: N_4  and  C_13
REMARK    4  A    between atoms: N_5  and  C_25
REMARK    5  A    between atoms: C_6  and  C_10
REMARK    6  A    between atoms: C_7  and  C_13
REMARK    7  A    between atoms: C_9  and  C_14
REMARK    8  A    between atoms: C_10  and  C_16
REMARK    9  A    between atoms: C_10  and  C_17
REMARK   10  A    between atoms: C_11  and  C_20
REMARK   11  A    between atoms: C_14  and  C_24
REMARK   12  A    between atoms: C_15  and  C_23
REMARK   13  A    between atoms: C_25  and  C_26
REMARK                            x       y       z     vdW  Elec       q    Type
REMARK                         _______ _______ _______ _____ _____    ______ ____
ROOT
ATOM      6  C   UNL     1      10.892   6.274   5.718  0.00  0.00    +0.000 C 
ATOM      7  C   UNL     1      10.515   5.992   4.242  0.00  0.00    +0.032 C 
ATOM      8  C   UNL     1      11.260   7.754   5.905  0.00  0.00    +0.012 C 
ATOM      9  C   UNL     1      12.440   8.178   5.011  0.00  0.00    +0.023 C 
ATOM     11  C   UNL     1      12.266   7.698   3.584  0.00  0.00    -0.073 C 
ATOM     12  C   UNL     1      11.392   6.731   3.258  0.00  0.00    -0.022 C 
ATOM     20  C   UNL     1      13.090   8.389   2.533  0.00  0.00    +0.039 C 
ENDROOT
BRANCH   6  10
ATOM     10  C   UNL     1       9.757   5.898   6.677  0.00  0.00    -0.013 C 
ATOM     16  C   UNL     1      10.295   5.711   8.092  0.00  0.00    +0.007 C 
ATOM     17  C   UNL     1       8.664   6.962   6.651  0.00  0.00    +0.007 C 
ENDBRANCH   6  10
BRANCH   7  13
ATOM     13  C   UNL     1      10.557   4.492   3.938  0.00  0.00    +0.112 C 
BRANCH  13   4
ATOM      1  O   UNL     1      10.025   3.989   1.127  0.00  0.00    -0.276 OA
ATOM      4  N   UNL     1      11.509   4.208   2.911  0.00  0.00    -0.315 N 
ATOM     23  C   UNL     1      11.167   3.978   1.579  0.00  0.00    +0.216 C 
ATOM     33  H   UNL     1      12.495   4.242   3.157  0.00  0.00    +0.149 HD
BRANCH  23  15
ATOM     15  C   UNL     1      12.360   3.730   0.708  0.00  0.00    +0.075 C 
ATOM     18  C   UNL     1      13.563   3.311   1.561  0.00  0.00    +0.013 C 
ATOM     19  C   UNL     1      12.775   5.011  -0.017  0.00  0.00    +0.013 C 
ATOM     21  C   UNL     1      14.674   4.301   1.229  0.00  0.00    +0.001 C 
ATOM     22  C   UNL     1      13.935   5.557   0.803  0.00  0.00    +0.001 C 
ENDBRANCH  23  15
ENDBRANCH  13   4
ENDBRANCH   7  13
BRANCH   9  14
ATOM     14  C   UNL     1      13.774   7.697   5.592  0.00  0.00    +0.103 C 
BRANCH  14  24
ATOM      2  O   UNL     1      14.356  10.009   6.003  0.00  0.00    -0.276 OA
ATOM      5  N   UNL     1      16.031   8.399   5.958  0.00  0.00    -0.311 N 
ATOM     24  C   UNL     1      14.719   8.844   5.872  0.00  0.00    +0.214 C 
ATOM     34  H   UNL     1      16.233   7.410   5.838  0.00  0.00    +0.149 HD
BRANCH   5  25
ATOM     25  C   UNL     1      17.147   9.279   6.216  0.00  0.00    +0.139 C 
BRANCH  25  26
ATOM     26  C   UNL     1      18.457   8.652   5.832  0.00  0.00    -0.030 A 
ATOM     27  C   UNL     1      19.473   8.527   6.777  0.00  0.00    +0.009 A 
ATOM     28  C   UNL     1      18.654   8.194   4.529  0.00  0.00    +0.009 A 
ATOM     29  C   UNL     1      20.690   7.944   6.420  0.00  0.00    +0.046 A 
ATOM     30  C   UNL     1      19.870   7.612   4.172  0.00  0.00    +0.046 A 
ATOM     31  C   UNL     1      20.888   7.486   5.118  0.00  0.00    +0.120 A 
BRANCH  31   3
ATOM      3  O   UNL     1      22.074   6.917   4.769  0.00  0.00    -0.495 OA
ATOM     32  C   UNL     1      23.168   7.796   4.516  0.00  0.00    +0.277 C 
ENDBRANCH  31   3
ENDBRANCH  25  26
ENDBRANCH   5  25
ENDBRANCH  14  24
ENDBRANCH   9  14
TORSDOF 9
ENDMDL
