MODEL 1
REMARK VINA RESULT:      -7.4      0.000      0.000
REMARK  Name = 45783676
REMARK  7 active torsions:
REMARK  status: ('A' for Active; 'I' for Inactive)
REMARK    1  A    between atoms: N_3  and  C_14
REMARK    2  A    between atoms: N_6  and  C_22
REMARK    3  A    between atoms: N_8  and  C_27
REMARK    4  A    between atoms: C_10  and  C_15
REMARK    5  A    between atoms: C_14  and  C_16
REMARK    6  A    between atoms: C_19  and  C_23
REMARK    7  A    between atoms: C_28  and  C_29
REMARK                            x       y       z     vdW  Elec       q    Type
REMARK                         _______ _______ _______ _____ _____    ______ ____
ROOT
ATOM      3  N   UNL     1      -2.898 -10.428  13.974  0.00  0.00    -0.287 NA
ATOM     10  C   UNL     1      -3.128 -11.133  15.251  0.00  0.00    +0.146 C 
ATOM     11  C   UNL     1      -1.977 -10.672  16.165  0.00  0.00    +0.030 C 
ATOM     12  C   UNL     1      -1.121  -9.761  15.297  0.00  0.00    +0.017 C 
ATOM     13  C   UNL     1      -1.457 -10.194  13.884  0.00  0.00    +0.085 C 
ENDROOT
BRANCH  10  15
ATOM      1  O   UNL     1      -4.793 -11.466  17.009  0.00  0.00    -0.336 OA
ATOM      4  N   UNL     1      -5.447 -10.071  15.383  0.00  0.00    -0.190 NA
ATOM      5  N   UNL     1      -6.086 -11.049  17.350  0.00  0.00    -0.056 NA
ATOM     15  C   UNL     1      -4.493 -10.843  15.839  0.00  0.00    +0.245 A 
ATOM     19  C   UNL     1      -6.403 -10.229  16.343  0.00  0.00    +0.204 A 
BRANCH  19  23
ATOM      7  N   UNL     1      -9.567  -8.874  14.936  0.00  0.00    -0.237 NA
ATOM     23  C   UNL     1      -7.666  -9.553  16.266  0.00  0.00    +0.041 A 
ATOM     24  C   UNL     1      -8.217  -8.934  17.383  0.00  0.00    +0.017 A 
ATOM     25  C   UNL     1      -8.375  -9.496  15.076  0.00  0.00    +0.124 A 
ATOM     26  C   UNL     1      -9.442  -8.286  17.277  0.00  0.00    +0.047 A 
ATOM     27  C   UNL     1     -10.071  -8.284  16.042  0.00  0.00    +0.139 A 
BRANCH  27   8
ATOM      8  N   UNL     1     -11.293  -7.639  15.933  0.00  0.00    -0.290 N 
ATOM      9  N   UNL     1     -13.491  -7.319  15.999  0.00  0.00    -0.244 NA
ATOM     30  C   UNL     1     -11.495  -6.347  15.539  0.00  0.00    +0.114 A 
ATOM     31  C   UNL     1     -12.520  -8.183  16.198  0.00  0.00    +0.205 A 
ATOM     32  C   UNL     1     -12.858  -6.172  15.587  0.00  0.00    +0.130 A 
ENDBRANCH  27   8
ENDBRANCH  19  23
ENDBRANCH  10  15
BRANCH   3  14
ATOM     14  C   UNL     1      -3.409 -11.153  12.818  0.00  0.00    +0.120 C 
BRANCH  14  16
ATOM     16  C   UNL     1      -4.139 -10.244  11.864  0.00  0.00    -0.033 A 
ATOM     17  C   UNL     1      -3.552  -9.891  10.650  0.00  0.00    +0.007 A 
ATOM     18  C   UNL     1      -5.404  -9.757  12.195  0.00  0.00    +0.007 A 
ATOM     20  C   UNL     1      -4.227  -9.050   9.766  0.00  0.00    +0.023 A 
ATOM     21  C   UNL     1      -6.080  -8.916  11.312  0.00  0.00    +0.023 A 
ATOM     22  C   UNL     1      -5.492  -8.563  10.097  0.00  0.00    +0.033 A 
BRANCH  22   6
ATOM      2  O   UNL     1      -8.250  -8.785   8.913  0.00  0.00    -0.276 OA
ATOM      6  N   UNL     1      -6.169  -7.721   9.213  0.00  0.00    -0.286 N 
ATOM     28  C   UNL     1      -7.459  -7.875   8.690  0.00  0.00    +0.214 C 
ATOM     29  C   UNL     1      -7.826  -6.742   7.765  0.00  0.00    +0.109 C 
ATOM     33  H   UNL     1      -5.652  -6.895   8.918  0.00  0.00    +0.155 HD
ENDBRANCH  22   6
ENDBRANCH  14  16
ENDBRANCH   3  14
TORSDOF 6
ENDMDL
MODEL 2
REMARK VINA RESULT:      -7.2     18.437     20.251
REMARK  Name = 45783676
REMARK  7 active torsions:
REMARK  status: ('A' for Active; 'I' for Inactive)
REMARK    1  A    between atoms: N_3  and  C_14
REMARK    2  A    between atoms: N_6  and  C_22
REMARK    3  A    between atoms: N_8  and  C_27
REMARK    4  A    between atoms: C_10  and  C_15
REMARK    5  A    between atoms: C_14  and  C_16
REMARK    6  A    between atoms: C_19  and  C_23
REMARK    7  A    between atoms: C_28  and  C_29
REMARK                            x       y       z     vdW  Elec       q    Type
REMARK                         _______ _______ _______ _____ _____    ______ ____
ROOT
ATOM      3  N   UNL     1     -16.289   5.176  22.238  0.00  0.00    -0.287 NA
ATOM     10  C   UNL     1     -17.423   4.674  23.038  0.00  0.00    +0.146 C 
ATOM     11  C   UNL     1     -18.353   3.996  22.015  0.00  0.00    +0.030 C 
ATOM     12  C   UNL     1     -17.689   4.222  20.664  0.00  0.00    +0.017 C 
ATOM     13  C   UNL     1     -16.810   5.434  20.896  0.00  0.00    +0.085 C 
ENDROOT
BRANCH  10  15
ATOM      1  O   UNL     1     -16.687   2.463  23.772  0.00  0.00    -0.336 OA
ATOM      4  N   UNL     1     -16.853   3.966  25.424  0.00  0.00    -0.190 NA
ATOM      5  N   UNL     1     -16.317   1.794  24.946  0.00  0.00    -0.056 NA
ATOM     15  C   UNL     1     -16.987   3.736  24.143  0.00  0.00    +0.245 A 
ATOM     19  C   UNL     1     -16.440   2.747  25.875  0.00  0.00    +0.204 A 
BRANCH  19  23
ATOM      7  N   UNL     1     -15.439   3.389  29.399  0.00  0.00    -0.237 NA
ATOM     23  C   UNL     1     -16.158   2.514  27.263  0.00  0.00    +0.041 A 
ATOM     24  C   UNL     1     -16.311   1.251  27.823  0.00  0.00    +0.017 A 
ATOM     25  C   UNL     1     -15.723   3.541  28.086  0.00  0.00    +0.124 A 
ATOM     26  C   UNL     1     -16.029   1.055  29.170  0.00  0.00    +0.047 A 
ATOM     27  C   UNL     1     -15.599   2.147  29.908  0.00  0.00    +0.139 A 
BRANCH  27   8
ATOM      8  N   UNL     1     -15.317   1.957  31.252  0.00  0.00    -0.290 N 
ATOM      9  N   UNL     1     -14.721   0.927  33.128  0.00  0.00    -0.244 NA
ATOM     30  C   UNL     1     -15.402   2.898  32.238  0.00  0.00    +0.114 A 
ATOM     31  C   UNL     1     -14.905   0.790  31.834  0.00  0.00    +0.205 A 
ATOM     32  C   UNL     1     -15.030   2.240  33.387  0.00  0.00    +0.130 A 
ENDBRANCH  27   8
ENDBRANCH  19  23
ENDBRANCH  10  15
BRANCH   3  14
ATOM     14  C   UNL     1     -15.656   6.355  22.815  0.00  0.00    +0.120 C 
BRANCH  14  16
ATOM     16  C   UNL     1     -14.530   6.866  21.956  0.00  0.00    -0.033 A 
ATOM     17  C   UNL     1     -14.628   8.117  21.349  0.00  0.00    +0.007 A 
ATOM     18  C   UNL     1     -13.388   6.087  21.768  0.00  0.00    +0.007 A 
ATOM     20  C   UNL     1     -13.586   8.591  20.552  0.00  0.00    +0.023 A 
ATOM     21  C   UNL     1     -12.345   6.559  20.971  0.00  0.00    +0.023 A 
ATOM     22  C   UNL     1     -12.444   7.811  20.364  0.00  0.00    +0.033 A 
BRANCH  22   6
ATOM      2  O   UNL     1     -12.253   8.130  17.377  0.00  0.00    -0.276 OA
ATOM      6  N   UNL     1     -11.399   8.284  19.568  0.00  0.00    -0.286 N 
ATOM     28  C   UNL     1     -11.364   8.410  18.173  0.00  0.00    +0.214 C 
ATOM     29  C   UNL     1     -10.046   8.966  17.695  0.00  0.00    +0.109 C 
ATOM     33  H   UNL     1     -10.564   8.571  20.073  0.00  0.00    +0.155 HD
ENDBRANCH  22   6
ENDBRANCH  14  16
ENDBRANCH   3  14
TORSDOF 6
ENDMDL
MODEL 3
REMARK VINA RESULT:      -7.1      3.768      7.574
REMARK  Name = 45783676
REMARK  7 active torsions:
REMARK  status: ('A' for Active; 'I' for Inactive)
REMARK    1  A    between atoms: N_3  and  C_14
REMARK    2  A    between atoms: N_6  and  C_22
REMARK    3  A    between atoms: N_8  and  C_27
REMARK    4  A    between atoms: C_10  and  C_15
REMARK    5  A    between atoms: C_14  and  C_16
REMARK    6  A    between atoms: C_19  and  C_23
REMARK    7  A    between atoms: C_28  and  C_29
REMARK                            x       y       z     vdW  Elec       q    Type
REMARK                         _______ _______ _______ _____ _____    ______ ____
ROOT
ATOM      3  N   UNL     1      -5.682 -10.049   8.328  0.00  0.00    -0.287 NA
ATOM     10  C   UNL     1      -6.189  -9.621   7.009  0.00  0.00    +0.146 C 
ATOM     11  C   UNL     1      -6.671 -10.918   6.335  0.00  0.00    +0.030 C 
ATOM     12  C   UNL     1      -6.339 -12.027   7.324  0.00  0.00    +0.017 C 
ATOM     13  C   UNL     1      -5.231 -11.432   8.169  0.00  0.00    +0.085 C 
ENDROOT
BRANCH  10  15
ATOM      1  O   UNL     1      -7.672  -7.991   5.954  0.00  0.00    -0.336 OA
ATOM      4  N   UNL     1      -7.913  -8.142   8.176  0.00  0.00    -0.190 NA
ATOM      5  N   UNL     1      -8.674  -7.075   6.300  0.00  0.00    -0.056 NA
ATOM     15  C   UNL     1      -7.279  -8.577   7.115  0.00  0.00    +0.245 A 
ATOM     19  C   UNL     1      -8.758  -7.223   7.626  0.00  0.00    +0.204 A 
BRANCH  19  23
ATOM      7  N   UNL     1     -11.523  -6.452   9.990  0.00  0.00    -0.237 NA
ATOM     23  C   UNL     1      -9.675  -6.468   8.430  0.00  0.00    +0.041 A 
ATOM     24  C   UNL     1      -9.637  -5.078   8.451  0.00  0.00    +0.017 A 
ATOM     25  C   UNL     1     -10.629  -7.102   9.211  0.00  0.00    +0.124 A 
ATOM     26  C   UNL     1     -10.540  -4.375   9.239  0.00  0.00    +0.047 A 
ATOM     27  C   UNL     1     -11.455  -5.102   9.983  0.00  0.00    +0.139 A 
BRANCH  27   8
ATOM      8  N   UNL     1     -12.357  -4.404  10.771  0.00  0.00    -0.290 N 
ATOM      9  N   UNL     1     -13.150  -3.220  12.475  0.00  0.00    -0.244 NA
ATOM     30  C   UNL     1     -13.678  -4.194  10.497  0.00  0.00    +0.114 A 
ATOM     31  C   UNL     1     -12.086  -3.802  11.969  0.00  0.00    +0.205 A 
ATOM     32  C   UNL     1     -14.147  -3.461  11.562  0.00  0.00    +0.130 A 
ENDBRANCH  27   8
ENDBRANCH  19  23
ENDBRANCH  10  15
BRANCH   3  14
ATOM     14  C   UNL     1      -4.629  -9.186   8.847  0.00  0.00    +0.120 C 
BRANCH  14  16
ATOM     16  C   UNL     1      -4.185  -9.607  10.223  0.00  0.00    -0.033 A 
ATOM     17  C   UNL     1      -2.833  -9.829  10.483  0.00  0.00    +0.007 A 
ATOM     18  C   UNL     1      -5.127  -9.775  11.238  0.00  0.00    +0.007 A 
ATOM     20  C   UNL     1      -2.421 -10.219  11.756  0.00  0.00    +0.023 A 
ATOM     21  C   UNL     1      -4.716 -10.165  12.513  0.00  0.00    +0.023 A 
ATOM     22  C   UNL     1      -3.364 -10.387  12.772  0.00  0.00    +0.033 A 
BRANCH  22   6
ATOM      2  O   UNL     1      -1.061  -9.434  14.461  0.00  0.00    -0.276 OA
ATOM      6  N   UNL     1      -2.953 -10.777  14.047  0.00  0.00    -0.286 N 
ATOM     28  C   UNL     1      -1.866 -10.298  14.790  0.00  0.00    +0.214 C 
ATOM     29  C   UNL     1      -1.761 -10.980  16.132  0.00  0.00    +0.109 C 
ATOM     33  H   UNL     1      -3.521 -11.500  14.484  0.00  0.00    +0.155 HD
ENDBRANCH  22   6
ENDBRANCH  14  16
ENDBRANCH   3  14
TORSDOF 6
ENDMDL
MODEL 4
REMARK VINA RESULT:      -7.0     25.133     28.393
REMARK  Name = 45783676
REMARK  7 active torsions:
REMARK  status: ('A' for Active; 'I' for Inactive)
REMARK    1  A    between atoms: N_3  and  C_14
REMARK    2  A    between atoms: N_6  and  C_22
REMARK    3  A    between atoms: N_8  and  C_27
REMARK    4  A    between atoms: C_10  and  C_15
REMARK    5  A    between atoms: C_14  and  C_16
REMARK    6  A    between atoms: C_19  and  C_23
REMARK    7  A    between atoms: C_28  and  C_29
REMARK                            x       y       z     vdW  Elec       q    Type
REMARK                         _______ _______ _______ _____ _____    ______ ____
ROOT
ATOM      3  N   UNL     1      10.174   5.304   6.211  0.00  0.00    -0.287 NA
ATOM     10  C   UNL     1       9.917   6.435   7.125  0.00  0.00    +0.146 C 
ATOM     11  C   UNL     1       9.780   5.790   8.517  0.00  0.00    +0.030 C 
ATOM     12  C   UNL     1       9.913   4.293   8.276  0.00  0.00    +0.017 C 
ATOM     13  C   UNL     1       9.542   4.131   6.815  0.00  0.00    +0.085 C 
ENDROOT
BRANCH  10  15
ATOM      1  O   UNL     1      10.653   8.742   7.451  0.00  0.00    -0.336 OA
ATOM      4  N   UNL     1      12.258   7.367   6.710  0.00  0.00    -0.190 NA
ATOM      5  N   UNL     1      11.806   9.525   7.320  0.00  0.00    -0.056 NA
ATOM     15  C   UNL     1      11.005   7.485   7.072  0.00  0.00    +0.245 A 
ATOM     19  C   UNL     1      12.708   8.643   6.878  0.00  0.00    +0.204 A 
BRANCH  19  23
ATOM      7  N   UNL     1      15.751  10.732   6.419  0.00  0.00    -0.237 NA
ATOM     23  C   UNL     1      14.068   9.005   6.596  0.00  0.00    +0.041 A 
ATOM     24  C   UNL     1      15.007   8.044   6.238  0.00  0.00    +0.017 A 
ATOM     25  C   UNL     1      14.487  10.324   6.672  0.00  0.00    +0.124 A 
ATOM     26  C   UNL     1      16.317   8.425   5.970  0.00  0.00    +0.047 A 
ATOM     27  C   UNL     1      16.635   9.770   6.073  0.00  0.00    +0.139 A 
BRANCH  27   8
ATOM      8  N   UNL     1      17.939  10.155   5.808  0.00  0.00    -0.290 N 
ATOM      9  N   UNL     1      20.155  10.237   5.951  0.00  0.00    -0.244 NA
ATOM     30  C   UNL     1      18.339  11.083   4.889  0.00  0.00    +0.114 A 
ATOM     31  C   UNL     1      19.064   9.675   6.421  0.00  0.00    +0.205 A 
ATOM     32  C   UNL     1      19.709  11.117   4.995  0.00  0.00    +0.130 A 
ENDBRANCH  27   8
ENDBRANCH  19  23
ENDBRANCH  10  15
BRANCH   3  14
ATOM     14  C   UNL     1       9.702   5.543   4.854  0.00  0.00    +0.120 C 
BRANCH  14  16
ATOM     16  C   UNL     1      10.795   5.349   3.836  0.00  0.00    -0.033 A 
ATOM     17  C   UNL     1      11.681   6.389   3.558  0.00  0.00    +0.007 A 
ATOM     18  C   UNL     1      10.921   4.129   3.173  0.00  0.00    +0.007 A 
ATOM     20  C   UNL     1      12.693   6.211   2.616  0.00  0.00    +0.023 A 
ATOM     21  C   UNL     1      11.934   3.949   2.230  0.00  0.00    +0.023 A 
ATOM     22  C   UNL     1      12.819   4.990   1.952  0.00  0.00    +0.033 A 
BRANCH  22   6
ATOM      2  O   UNL     1      15.202   3.150   1.970  0.00  0.00    -0.276 OA
ATOM      6  N   UNL     1      13.833   4.810   1.009  0.00  0.00    -0.286 N 
ATOM     28  C   UNL     1      14.925   3.935   1.069  0.00  0.00    +0.214 C 
ATOM     29  C   UNL     1      15.796   4.042  -0.157  0.00  0.00    +0.109 C 
ATOM     33  H   UNL     1      13.759   5.391   0.176  0.00  0.00    +0.155 HD
ENDBRANCH  22   6
ENDBRANCH  14  16
ENDBRANCH   3  14
TORSDOF 6
ENDMDL
MODEL 5
REMARK VINA RESULT:      -6.9      3.013      8.083
REMARK  Name = 45783676
REMARK  7 active torsions:
REMARK  status: ('A' for Active; 'I' for Inactive)
REMARK    1  A    between atoms: N_3  and  C_14
REMARK    2  A    between atoms: N_6  and  C_22
REMARK    3  A    between atoms: N_8  and  C_27
REMARK    4  A    between atoms: C_10  and  C_15
REMARK    5  A    between atoms: C_14  and  C_16
REMARK    6  A    between atoms: C_19  and  C_23
REMARK    7  A    between atoms: C_28  and  C_29
REMARK                            x       y       z     vdW  Elec       q    Type
REMARK                         _______ _______ _______ _____ _____    ______ ____
ROOT
ATOM      3  N   UNL     1     -10.165 -11.670  19.256  0.00  0.00    -0.287 NA
ATOM     10  C   UNL     1      -8.933 -12.076  19.962  0.00  0.00    +0.146 C 
ATOM     11  C   UNL     1      -9.014 -13.611  20.038  0.00  0.00    +0.030 C 
ATOM     12  C   UNL     1     -10.351 -13.971  19.406  0.00  0.00    +0.017 C 
ATOM     13  C   UNL     1     -11.164 -12.699  19.541  0.00  0.00    +0.085 C 
ENDROOT
BRANCH  10  15
ATOM      1  O   UNL     1      -6.743 -10.996  20.056  0.00  0.00    -0.336 OA
ATOM      4  N   UNL     1      -7.350 -11.654  18.003  0.00  0.00    -0.190 NA
ATOM      5  N   UNL     1      -5.691 -10.636  19.204  0.00  0.00    -0.056 NA
ATOM     15  C   UNL     1      -7.678 -11.590  19.268  0.00  0.00    +0.245 A 
ATOM     19  C   UNL     1      -6.124 -11.057  18.012  0.00  0.00    +0.204 A 
BRANCH  19  23
ATOM      7  N   UNL     1      -5.308 -10.461  14.433  0.00  0.00    -0.237 NA
ATOM     23  C   UNL     1      -5.355 -10.897  16.811  0.00  0.00    +0.041 A 
ATOM     24  C   UNL     1      -3.970 -11.014  16.824  0.00  0.00    +0.017 A 
ATOM     25  C   UNL     1      -5.971 -10.622  15.600  0.00  0.00    +0.124 A 
ATOM     26  C   UNL     1      -3.253 -10.854  15.644  0.00  0.00    +0.047 A 
ATOM     27  C   UNL     1      -3.962 -10.582  14.486  0.00  0.00    +0.139 A 
BRANCH  27   8
ATOM      8  N   UNL     1      -3.251 -10.421  13.307  0.00  0.00    -0.290 N 
ATOM      9  N   UNL     1      -2.849 -10.169  11.137  0.00  0.00    -0.244 NA
ATOM     30  C   UNL     1      -1.893 -10.348  13.184  0.00  0.00    +0.114 A 
ATOM     31  C   UNL     1      -3.782 -10.309  12.051  0.00  0.00    +0.205 A 
ATOM     32  C   UNL     1      -1.668 -10.192  11.837  0.00  0.00    +0.130 A 
ENDBRANCH  27   8
ENDBRANCH  19  23
ENDBRANCH  10  15
BRANCH   3  14
ATOM     14  C   UNL     1     -10.628 -10.339  19.627  0.00  0.00    +0.120 C 
BRANCH  14  16
ATOM     16  C   UNL     1     -10.793  -9.446  18.426  0.00  0.00    -0.033 A 
ATOM     17  C   UNL     1      -9.691  -8.772  17.902  0.00  0.00    +0.007 A 
ATOM     18  C   UNL     1     -12.048  -9.295  17.837  0.00  0.00    +0.007 A 
ATOM     20  C   UNL     1      -9.842  -7.945  16.789  0.00  0.00    +0.023 A 
ATOM     21  C   UNL     1     -12.201  -8.467  16.724  0.00  0.00    +0.023 A 
ATOM     22  C   UNL     1     -11.098  -7.793  16.200  0.00  0.00    +0.033 A 
BRANCH  22   6
ATOM      2  O   UNL     1     -13.329  -5.915  15.452  0.00  0.00    -0.276 OA
ATOM      6  N   UNL     1     -11.251  -6.966  15.087  0.00  0.00    -0.286 N 
ATOM     28  C   UNL     1     -12.317  -6.108  14.787  0.00  0.00    +0.214 C 
ATOM     29  C   UNL     1     -12.102  -5.382  13.482  0.00  0.00    +0.109 C 
ATOM     33  H   UNL     1     -10.487  -6.997  14.414  0.00  0.00    +0.155 HD
ENDBRANCH  22   6
ENDBRANCH  14  16
ENDBRANCH   3  14
TORSDOF 6
ENDMDL
MODEL 6
REMARK VINA RESULT:      -6.9     23.583     26.343
REMARK  Name = 45783676
REMARK  7 active torsions:
REMARK  status: ('A' for Active; 'I' for Inactive)
REMARK    1  A    between atoms: N_3  and  C_14
REMARK    2  A    between atoms: N_6  and  C_22
REMARK    3  A    between atoms: N_8  and  C_27
REMARK    4  A    between atoms: C_10  and  C_15
REMARK    5  A    between atoms: C_14  and  C_16
REMARK    6  A    between atoms: C_19  and  C_23
REMARK    7  A    between atoms: C_28  and  C_29
REMARK                            x       y       z     vdW  Elec       q    Type
REMARK                         _______ _______ _______ _____ _____    ______ ____
ROOT
ATOM      3  N   UNL     1       9.482   7.684   6.429  0.00  0.00    -0.287 NA
ATOM     10  C   UNL     1      10.546   6.672   6.578  0.00  0.00    +0.146 C 
ATOM     11  C   UNL     1      10.239   5.977   7.918  0.00  0.00    +0.030 C 
ATOM     12  C   UNL     1       9.024   6.706   8.474  0.00  0.00    +0.017 C 
ATOM     13  C   UNL     1       9.067   8.053   7.782  0.00  0.00    +0.085 C 
ENDROOT
BRANCH  10  15
ATOM      1  O   UNL     1      10.011   4.494   5.610  0.00  0.00    -0.336 OA
ATOM      4  N   UNL     1      11.131   5.857   4.230  0.00  0.00    -0.190 NA
ATOM      5  N   UNL     1      10.183   3.783   4.415  0.00  0.00    -0.056 NA
ATOM     15  C   UNL     1      10.597   5.704   5.416  0.00  0.00    +0.245 A 
ATOM     19  C   UNL     1      10.852   4.653   3.653  0.00  0.00    +0.204 A 
BRANCH  19  23
ATOM      7  N   UNL     1      10.656   4.098  -0.020  0.00  0.00    -0.237 NA
ATOM     23  C   UNL     1      11.256   4.351   2.309  0.00  0.00    +0.041 A 
ATOM     24  C   UNL     1      12.575   4.027   2.012  0.00  0.00    +0.017 A 
ATOM     25  C   UNL     1      10.343   4.373   1.267  0.00  0.00    +0.124 A 
ATOM     26  C   UNL     1      12.936   3.738   0.701  0.00  0.00    +0.047 A 
ATOM     27  C   UNL     1      11.947   3.786  -0.269  0.00  0.00    +0.139 A 
BRANCH  27   8
ATOM      8  N   UNL     1      12.303   3.500  -1.578  0.00  0.00    -0.290 N 
ATOM      9  N   UNL     1      13.326   3.672  -3.542  0.00  0.00    -0.244 NA
ATOM     30  C   UNL     1      11.813   2.482  -2.346  0.00  0.00    +0.114 A 
ATOM     31  C   UNL     1      13.207   4.187  -2.339  0.00  0.00    +0.205 A 
ATOM     32  C   UNL     1      12.459   2.608  -3.553  0.00  0.00    +0.130 A 
ENDBRANCH  27   8
ENDBRANCH  19  23
ENDBRANCH  10  15
BRANCH   3  14
ATOM     14  C   UNL     1       9.896   8.842   5.648  0.00  0.00    +0.120 C 
BRANCH  14  16
ATOM     16  C   UNL     1       8.919   9.155   4.545  0.00  0.00    -0.033 A 
ATOM     17  C   UNL     1       8.896   8.373   3.391  0.00  0.00    +0.007 A 
ATOM     18  C   UNL     1       8.037  10.227   4.679  0.00  0.00    +0.007 A 
ATOM     20  C   UNL     1       7.992   8.662   2.370  0.00  0.00    +0.023 A 
ATOM     21  C   UNL     1       7.132  10.517   3.658  0.00  0.00    +0.023 A 
ATOM     22  C   UNL     1       7.110   9.735   2.504  0.00  0.00    +0.033 A 
BRANCH  22   6
ATOM      2  O   UNL     1       4.099   9.738   2.503  0.00  0.00    -0.276 OA
ATOM      6  N   UNL     1       6.204  10.025   1.482  0.00  0.00    -0.286 N 
ATOM     28  C   UNL     1       4.804  10.009   1.537  0.00  0.00    +0.214 C 
ATOM     29  C   UNL     1       4.188  10.386   0.213  0.00  0.00    +0.109 C 
ATOM     33  H   UNL     1       6.623  10.279   0.590  0.00  0.00    +0.155 HD
ENDBRANCH  22   6
ENDBRANCH  14  16
ENDBRANCH   3  14
TORSDOF 6
ENDMDL
MODEL 7
REMARK VINA RESULT:      -6.9      3.307      7.778
REMARK  Name = 45783676
REMARK  7 active torsions:
REMARK  status: ('A' for Active; 'I' for Inactive)
REMARK    1  A    between atoms: N_3  and  C_14
REMARK    2  A    between atoms: N_6  and  C_22
REMARK    3  A    between atoms: N_8  and  C_27
REMARK    4  A    between atoms: C_10  and  C_15
REMARK    5  A    between atoms: C_14  and  C_16
REMARK    6  A    between atoms: C_19  and  C_23
REMARK    7  A    between atoms: C_28  and  C_29
REMARK                            x       y       z     vdW  Elec       q    Type
REMARK                         _______ _______ _______ _____ _____    ______ ____
ROOT
ATOM      3  N   UNL     1      -3.485 -11.762  14.505  0.00  0.00    -0.287 NA
ATOM     10  C   UNL     1      -2.461 -11.761  13.441  0.00  0.00    +0.146 C 
ATOM     11  C   UNL     1      -2.260 -13.246  13.090  0.00  0.00    +0.030 C 
ATOM     12  C   UNL     1      -3.166 -14.007  14.049  0.00  0.00    +0.017 C 
ATOM     13  C   UNL     1      -3.358 -13.042  15.201  0.00  0.00    +0.085 C 
ENDROOT
BRANCH  10  15
ATOM      1  O   UNL     1      -1.894 -10.159  11.685  0.00  0.00    -0.336 OA
ATOM      4  N   UNL     1      -4.031 -10.829  11.656  0.00  0.00    -0.190 NA
ATOM      5  N   UNL     1      -2.498  -9.489  10.613  0.00  0.00    -0.056 NA
ATOM     15  C   UNL     1      -2.866 -10.927  12.244  0.00  0.00    +0.245 A 
ATOM     19  C   UNL     1      -3.756  -9.937  10.662  0.00  0.00    +0.204 A 
BRANCH  19  23
ATOM      7  N   UNL     1      -5.747  -9.693   7.530  0.00  0.00    -0.237 NA
ATOM     23  C   UNL     1      -4.763  -9.513   9.731  0.00  0.00    +0.041 A 
ATOM     24  C   UNL     1      -5.704  -8.551  10.081  0.00  0.00    +0.017 A 
ATOM     25  C   UNL     1      -4.826 -10.048   8.454  0.00  0.00    +0.124 A 
ATOM     26  C   UNL     1      -6.667  -8.160   9.157  0.00  0.00    +0.047 A 
ATOM     27  C   UNL     1      -6.645  -8.755   7.906  0.00  0.00    +0.139 A 
BRANCH  27   8
ATOM      8  N   UNL     1      -7.603  -8.369   6.982  0.00  0.00    -0.290 N 
ATOM      9  N   UNL     1      -8.981  -8.479   5.244  0.00  0.00    -0.244 NA
ATOM     30  C   UNL     1      -8.245  -7.164   6.937  0.00  0.00    +0.114 A 
ATOM     31  C   UNL     1      -8.077  -9.125   5.946  0.00  0.00    +0.205 A 
ATOM     32  C   UNL     1      -9.090  -7.255   5.857  0.00  0.00    +0.130 A 
ENDBRANCH  27   8
ENDBRANCH  19  23
ENDBRANCH  10  15
BRANCH   3  14
ATOM     14  C   UNL     1      -3.369 -10.630  15.415  0.00  0.00    +0.120 C 
BRANCH  14  16
ATOM     16  C   UNL     1      -4.576 -10.499  16.306  0.00  0.00    -0.033 A 
ATOM     17  C   UNL     1      -4.493 -10.858  17.650  0.00  0.00    +0.007 A 
ATOM     18  C   UNL     1      -5.778 -10.018  15.785  0.00  0.00    +0.007 A 
ATOM     20  C   UNL     1      -5.610 -10.738  18.476  0.00  0.00    +0.023 A 
ATOM     21  C   UNL     1      -6.896  -9.897  16.610  0.00  0.00    +0.023 A 
ATOM     22  C   UNL     1      -6.812 -10.257  17.955  0.00  0.00    +0.033 A 
BRANCH  22   6
ATOM      2  O   UNL     1      -8.980 -12.239  18.613  0.00  0.00    -0.276 OA
ATOM      6  N   UNL     1      -7.931 -10.136  18.780  0.00  0.00    -0.286 N 
ATOM     28  C   UNL     1      -8.915 -11.096  19.051  0.00  0.00    +0.214 C 
ATOM     29  C   UNL     1      -9.963 -10.571  19.999  0.00  0.00    +0.109 C 
ATOM     33  H   UNL     1      -8.037  -9.233  19.238  0.00  0.00    +0.155 HD
ENDBRANCH  22   6
ENDBRANCH  14  16
ENDBRANCH   3  14
TORSDOF 6
ENDMDL
MODEL 8
REMARK VINA RESULT:      -6.9     28.299     32.307
REMARK  Name = 45783676
REMARK  7 active torsions:
REMARK  status: ('A' for Active; 'I' for Inactive)
REMARK    1  A    between atoms: N_3  and  C_14
REMARK    2  A    between atoms: N_6  and  C_22
REMARK    3  A    between atoms: N_8  and  C_27
REMARK    4  A    between atoms: C_10  and  C_15
REMARK    5  A    between atoms: C_14  and  C_16
REMARK    6  A    between atoms: C_19  and  C_23
REMARK    7  A    between atoms: C_28  and  C_29
REMARK                            x       y       z     vdW  Elec       q    Type
REMARK                         _______ _______ _______ _____ _____    ______ ____
ROOT
ATOM      3  N   UNL     1      23.272   6.492  22.654  0.00  0.00    -0.287 NA
ATOM     10  C   UNL     1      22.983   6.614  21.211  0.00  0.00    +0.146 C 
ATOM     11  C   UNL     1      24.085   5.789  20.520  0.00  0.00    +0.030 C 
ATOM     12  C   UNL     1      24.979   5.296  21.650  0.00  0.00    +0.017 C 
ATOM     13  C   UNL     1      24.715   6.280  22.771  0.00  0.00    +0.085 C 
ENDROOT
BRANCH  10  15
ATOM      1  O   UNL     1      21.475   4.851  20.444  0.00  0.00    -0.336 OA
ATOM      4  N   UNL     1      20.458   6.799  20.879  0.00  0.00    -0.190 NA
ATOM      5  N   UNL     1      20.116   4.649  20.174  0.00  0.00    -0.056 NA
ATOM     15  C   UNL     1      21.590   6.141  20.854  0.00  0.00    +0.245 A 
ATOM     19  C   UNL     1      19.583   5.843  20.454  0.00  0.00    +0.204 A 
BRANCH  19  23
ATOM      7  N   UNL     1      16.192   6.075  18.944  0.00  0.00    -0.237 NA
ATOM     23  C   UNL     1      18.180   6.113  20.320  0.00  0.00    +0.041 A 
ATOM     24  C   UNL     1      17.449   6.652  21.373  0.00  0.00    +0.017 A 
ATOM     25  C   UNL     1      17.511   5.844  19.137  0.00  0.00    +0.124 A 
ATOM     26  C   UNL     1      16.091   6.902  21.213  0.00  0.00    +0.047 A 
ATOM     27  C   UNL     1      15.516   6.600  19.990  0.00  0.00    +0.139 A 
BRANCH  27   8
ATOM      8  N   UNL     1      14.162   6.848  19.826  0.00  0.00    -0.290 N 
ATOM      9  N   UNL     1      12.239   7.316  18.817  0.00  0.00    -0.244 NA
ATOM     30  C   UNL     1      13.216   6.861  20.811  0.00  0.00    +0.114 A 
ATOM     31  C   UNL     1      13.528   7.127  18.646  0.00  0.00    +0.205 A 
ATOM     32  C   UNL     1      12.037   7.152  20.165  0.00  0.00    +0.130 A 
ENDBRANCH  27   8
ENDBRANCH  19  23
ENDBRANCH  10  15
BRANCH   3  14
ATOM     14  C   UNL     1      22.822   7.641  23.429  0.00  0.00    +0.120 C 
BRANCH  14  16
ATOM     16  C   UNL     1      22.075   7.224  24.668  0.00  0.00    -0.033 A 
ATOM     17  C   UNL     1      20.880   7.856  25.008  0.00  0.00    +0.007 A 
ATOM     18  C   UNL     1      22.580   6.206  25.477  0.00  0.00    +0.007 A 
ATOM     20  C   UNL     1      20.188   7.471  26.155  0.00  0.00    +0.023 A 
ATOM     21  C   UNL     1      21.889   5.820  26.626  0.00  0.00    +0.023 A 
ATOM     22  C   UNL     1      20.693   6.452  26.964  0.00  0.00    +0.033 A 
BRANCH  22   6
ATOM      2  O   UNL     1      20.500   7.767  29.666  0.00  0.00    -0.276 OA
ATOM      6  N   UNL     1      20.001   6.066  28.113  0.00  0.00    -0.286 N 
ATOM     28  C   UNL     1      19.947   6.719  29.351  0.00  0.00    +0.214 C 
ATOM     29  C   UNL     1      19.085   5.975  30.340  0.00  0.00    +0.109 C 
ATOM     33  H   UNL     1      19.472   5.200  28.031  0.00  0.00    +0.155 HD
ENDBRANCH  22   6
ENDBRANCH  14  16
ENDBRANCH   3  14
TORSDOF 6
ENDMDL
MODEL 9
REMARK VINA RESULT:      -6.7     24.376     27.704
REMARK  Name = 45783676
REMARK  7 active torsions:
REMARK  status: ('A' for Active; 'I' for Inactive)
REMARK    1  A    between atoms: N_3  and  C_14
REMARK    2  A    between atoms: N_6  and  C_22
REMARK    3  A    between atoms: N_8  and  C_27
REMARK    4  A    between atoms: C_10  and  C_15
REMARK    5  A    between atoms: C_14  and  C_16
REMARK    6  A    between atoms: C_19  and  C_23
REMARK    7  A    between atoms: C_28  and  C_29
REMARK                            x       y       z     vdW  Elec       q    Type
REMARK                         _______ _______ _______ _____ _____    ______ ____
ROOT
ATOM      3  N   UNL     1      10.106   8.250   6.186  0.00  0.00    -0.287 NA
ATOM     10  C   UNL     1       9.134   7.186   5.864  0.00  0.00    +0.146 C 
ATOM     11  C   UNL     1       7.932   7.927   5.251  0.00  0.00    +0.030 C 
ATOM     12  C   UNL     1       8.295   9.404   5.327  0.00  0.00    +0.017 C 
ATOM     13  C   UNL     1       9.326   9.462   6.436  0.00  0.00    +0.085 C 
ENDROOT
BRANCH  10  15
ATOM      1  O   UNL     1       9.948   4.914   5.482  0.00  0.00    -0.336 OA
ATOM      4  N   UNL     1      10.014   6.225   3.667  0.00  0.00    -0.190 NA
ATOM      5  N   UNL     1      10.468   4.124   4.449  0.00  0.00    -0.056 NA
ATOM     15  C   UNL     1       9.707   6.135   4.937  0.00  0.00    +0.245 A 
ATOM     19  C   UNL     1      10.476   4.968   3.413  0.00  0.00    +0.204 A 
BRANCH  19  23
ATOM      7  N   UNL     1      10.497   4.372  -0.258  0.00  0.00    -0.237 NA
ATOM     23  C   UNL     1      10.939   4.585   2.109  0.00  0.00    +0.041 A 
ATOM     24  C   UNL     1      12.219   4.073   1.924  0.00  0.00    +0.017 A 
ATOM     25  C   UNL     1      10.124   4.714   0.996  0.00  0.00    +0.124 A 
ATOM     26  C   UNL     1      12.638   3.710   0.649  0.00  0.00    +0.047 A 
ATOM     27  C   UNL     1      11.747   3.877  -0.399  0.00  0.00    +0.139 A 
BRANCH  27   8
ATOM      8  N   UNL     1      12.162   3.518  -1.672  0.00  0.00    -0.290 N 
ATOM      9  N   UNL     1      13.276   3.579  -3.592  0.00  0.00    -0.244 NA
ATOM     30  C   UNL     1      11.705   2.459  -2.403  0.00  0.00    +0.114 A 
ATOM     31  C   UNL     1      13.104   4.161  -2.426  0.00  0.00    +0.205 A 
ATOM     32  C   UNL     1      12.406   2.516  -3.584  0.00  0.00    +0.130 A 
ENDBRANCH  27   8
ENDBRANCH  19  23
ENDBRANCH  10  15
BRANCH   3  14
ATOM     14  C   UNL     1      10.973   7.915   7.309  0.00  0.00    +0.120 C 
BRANCH  14  16
ATOM     16  C   UNL     1      12.430   8.063   6.957  0.00  0.00    -0.033 A 
ATOM     17  C   UNL     1      13.257   6.941   6.929  0.00  0.00    +0.007 A 
ATOM     18  C   UNL     1      12.951   9.322   6.659  0.00  0.00    +0.007 A 
ATOM     20  C   UNL     1      14.606   7.077   6.604  0.00  0.00    +0.023 A 
ATOM     21  C   UNL     1      14.300   9.459   6.334  0.00  0.00    +0.023 A 
ATOM     22  C   UNL     1      15.127   8.336   6.306  0.00  0.00    +0.033 A 
BRANCH  22   6
ATOM      2  O   UNL     1      16.542   8.030   3.666  0.00  0.00    -0.276 OA
ATOM      6  N   UNL     1      16.478   8.474   5.980  0.00  0.00    -0.286 N 
ATOM     28  C   UNL     1      17.085   8.318   4.727  0.00  0.00    +0.214 C 
ATOM     29  C   UNL     1      18.573   8.554   4.794  0.00  0.00    +0.109 C 
ATOM     33  H   UNL     1      17.089   8.719   6.756  0.00  0.00    +0.155 HD
ENDBRANCH  22   6
ENDBRANCH  14  16
ENDBRANCH   3  14
TORSDOF 6
ENDMDL
MODEL 10
REMARK VINA RESULT:      -6.6     25.254     28.691
REMARK  Name = 45783676
REMARK  7 active torsions:
REMARK  status: ('A' for Active; 'I' for Inactive)
REMARK    1  A    between atoms: N_3  and  C_14
REMARK    2  A    between atoms: N_6  and  C_22
REMARK    3  A    between atoms: N_8  and  C_27
REMARK    4  A    between atoms: C_10  and  C_15
REMARK    5  A    between atoms: C_14  and  C_16
REMARK    6  A    between atoms: C_19  and  C_23
REMARK    7  A    between atoms: C_28  and  C_29
REMARK                            x       y       z     vdW  Elec       q    Type
REMARK                         _______ _______ _______ _____ _____    ______ ____
ROOT
ATOM      3  N   UNL     1      10.288   5.536   6.022  0.00  0.00    -0.287 NA
ATOM     10  C   UNL     1      10.444   6.734   6.871  0.00  0.00    +0.146 C 
ATOM     11  C   UNL     1      10.287   6.214   8.312  0.00  0.00    +0.030 C 
ATOM     12  C   UNL     1       9.986   4.729   8.168  0.00  0.00    +0.017 C 
ATOM     13  C   UNL     1       9.432   4.610   6.763  0.00  0.00    +0.085 C 
ENDROOT
BRANCH  10  15
ATOM      1  O   UNL     1      11.888   8.678   7.193  0.00  0.00    -0.336 OA
ATOM      4  N   UNL     1      12.821   7.036   5.988  0.00  0.00    -0.190 NA
ATOM      5  N   UNL     1      13.172   9.124   6.854  0.00  0.00    -0.056 NA
ATOM     15  C   UNL     1      11.763   7.441   6.645  0.00  0.00    +0.245 A 
ATOM     19  C   UNL     1      13.658   8.101   6.144  0.00  0.00    +0.204 A 
BRANCH  19  23
ATOM      7  N   UNL     1      16.452   7.482   3.769  0.00  0.00    -0.237 NA
ATOM     23  C   UNL     1      14.976   8.112   5.578  0.00  0.00    +0.041 A 
ATOM     24  C   UNL     1      16.035   8.727   6.237  0.00  0.00    +0.017 A 
ATOM     25  C   UNL     1      15.234   7.509   4.357  0.00  0.00    +0.124 A 
ATOM     26  C   UNL     1      17.301   8.720   5.664  0.00  0.00    +0.047 A 
ATOM     27  C   UNL     1      17.456   8.089   4.440  0.00  0.00    +0.139 A 
BRANCH  27   8
ATOM      8  N   UNL     1      18.717   8.081   3.864  0.00  0.00    -0.290 N 
ATOM      9  N   UNL     1      20.305   8.310   2.327  0.00  0.00    -0.244 NA
ATOM     30  C   UNL     1      19.885   7.730   4.478  0.00  0.00    +0.114 A 
ATOM     31  C   UNL     1      19.018   8.421   2.574  0.00  0.00    +0.205 A 
ATOM     32  C   UNL     1      20.851   7.879   3.511  0.00  0.00    +0.130 A 
ENDBRANCH  27   8
ENDBRANCH  19  23
ENDBRANCH  10  15
BRANCH   3  14
ATOM     14  C   UNL     1       9.756   5.835   4.699  0.00  0.00    +0.120 C 
BRANCH  14  16
ATOM     16  C   UNL     1      10.764   5.567   3.613  0.00  0.00    -0.033 A 
ATOM     17  C   UNL     1      11.006   4.260   3.193  0.00  0.00    +0.007 A 
ATOM     18  C   UNL     1      11.457   6.627   3.028  0.00  0.00    +0.007 A 
ATOM     20  C   UNL     1      11.941   4.011   2.189  0.00  0.00    +0.023 A 
ATOM     21  C   UNL     1      12.392   6.380   2.023  0.00  0.00    +0.023 A 
ATOM     22  C   UNL     1      12.633   5.071   1.603  0.00  0.00    +0.033 A 
BRANCH  22   6
ATOM      2  O   UNL     1      15.050   3.277   1.579  0.00  0.00    -0.276 OA
ATOM      6  N   UNL     1      13.568   4.824   0.597  0.00  0.00    -0.286 N 
ATOM     28  C   UNL     1      14.681   3.975   0.641  0.00  0.00    +0.214 C 
ATOM     29  C   UNL     1      15.445   3.985  -0.660  0.00  0.00    +0.109 C 
ATOM     33  H   UNL     1      13.413   5.328  -0.274  0.00  0.00    +0.155 HD
ENDBRANCH  22   6
ENDBRANCH  14  16
ENDBRANCH   3  14
TORSDOF 6
ENDMDL
