MODEL 1
REMARK VINA RESULT:      -8.6      0.000      0.000
REMARK  Name = 11912190
REMARK  5 active torsions:
REMARK  status: ('A' for Active; 'I' for Inactive)
REMARK    1  A    between atoms: S_1  and  N_8
REMARK    2  A    between atoms: S_1  and  C_19
REMARK    3  A    between atoms: N_8  and  C_14
REMARK    4  A    between atoms: N_9  and  C_15
REMARK    5  A    between atoms: C_23  and  C_28
REMARK                            x       y       z     vdW  Elec       q    Type
REMARK                         _______ _______ _______ _____ _____    ______ ____
ROOT
ATOM      2  O   UNL     1      11.881  12.446  21.472  0.00  0.00    -0.370 OA
ATOM      3  O   UNL     1      12.352  11.549  24.423  0.00  0.00    -0.370 OA
ATOM     12  C   UNL     1      13.129  11.425  23.221  0.00  0.00    +0.170 C 
ATOM     13  C   UNL     1      12.160  11.174  22.082  0.00  0.00    +0.171 C 
ATOM     14  C   UNL     1      13.774  12.747  22.873  0.00  0.00    +0.133 C 
ATOM     15  C   UNL     1      10.923  10.636  22.761  0.00  0.00    +0.130 C 
ATOM     16  C   UNL     1      12.665  13.459  22.119  0.00  0.00    +0.183 C 
ATOM     17  C   UNL     1      10.970  11.307  24.121  0.00  0.00    +0.185 C 
ENDROOT
BRANCH  15   9
ATOM      9  N   UNL     1      11.024   9.200  22.908  0.00  0.00    -0.306 N 
ATOM     10  N   UNL     1      11.615   8.901  20.656  0.00  0.00    -0.214 NA
ATOM     11  N   UNL     1      11.426   7.017  22.148  0.00  0.00    -0.223 NA
ATOM     18  C   UNL     1      11.366   8.347  21.873  0.00  0.00    +0.216 A 
ATOM     23  C   UNL     1      11.944   8.040  19.670  0.00  0.00    +0.076 A 
ATOM     26  C   UNL     1      11.762   6.214  21.116  0.00  0.00    +0.116 A 
ATOM     27  C   UNL     1      12.033   6.674  19.843  0.00  0.00    +0.048 A 
ATOM     40  H   UNL     1      10.895   8.783  23.821  0.00  0.00    +0.149 HD
BRANCH  23  28
ATOM      6  O   UNL     1      14.672  10.671  16.568  0.00  0.00    -0.453 OA
ATOM      7  O   UNL     1      13.066  10.431  14.787  0.00  0.00    -0.453 OA
ATOM     28  C   UNL     1      12.204   8.648  18.388  0.00  0.00    +0.004 A 
ATOM     32  C   UNL     1      13.385   9.371  18.186  0.00  0.00    +0.059 A 
ATOM     34  C   UNL     1      11.268   8.511  17.345  0.00  0.00    +0.014 A 
ATOM     35  C   UNL     1      13.589   9.936  16.943  0.00  0.00    +0.167 A 
ATOM     36  C   UNL     1      12.672   9.799  15.926  0.00  0.00    +0.166 A 
ATOM     37  C   UNL     1      11.499   9.092  16.096  0.00  0.00    +0.050 A 
ATOM     38  C   UNL     1      14.333  10.980  15.200  0.00  0.00    +0.466 C 
ENDBRANCH  23  28
ENDBRANCH  15   9
BRANCH  14   8
ATOM      8  N   UNL     1      14.935  12.558  22.038  0.00  0.00    -0.182 NA
ATOM     39  H   UNL     1      14.779  12.170  21.099  0.00  0.00    +0.148 HD
BRANCH   8   1
ATOM      1  S   UNL     1      16.466  12.377  22.749  0.00  0.00    +0.059 S 
ATOM      4  O   UNL     1      16.318  12.238  24.186  0.00  0.00    -0.153 OA
ATOM      5  O   UNL     1      17.358  13.381  22.202  0.00  0.00    -0.153 OA
BRANCH   1  19
ATOM     19  C   UNL     1      16.987  10.817  22.102  0.00  0.00    +0.106 A 
ATOM     20  C   UNL     1      16.033   9.917  21.658  0.00  0.00    +0.037 A 
ATOM     21  C   UNL     1      18.336  10.525  22.052  0.00  0.00    +0.029 A 
ATOM     22  C   UNL     1      16.431   8.673  21.141  0.00  0.00    -0.016 A 
ATOM     24  C   UNL     1      18.749   9.294  21.541  0.00  0.00    +0.010 A 
ATOM     25  C   UNL     1      17.810   8.357  21.081  0.00  0.00    -0.018 A 
ATOM     29  C   UNL     1      15.491   7.736  20.681  0.00  0.00    +0.008 A 
ATOM     30  C   UNL     1      18.208   7.112  20.565  0.00  0.00    +0.008 A 
ATOM     31  C   UNL     1      15.904   6.505  20.171  0.00  0.00    +0.001 A 
ATOM     33  C   UNL     1      17.259   6.194  20.113  0.00  0.00    +0.001 A 
ENDBRANCH   1  19
ENDBRANCH   8   1
ENDBRANCH  14   8
TORSDOF 5
ENDMDL
MODEL 2
REMARK VINA RESULT:      -8.1     27.495     29.832
REMARK  Name = 11912190
REMARK  5 active torsions:
REMARK  status: ('A' for Active; 'I' for Inactive)
REMARK    1  A    between atoms: S_1  and  N_8
REMARK    2  A    between atoms: S_1  and  C_19
REMARK    3  A    between atoms: N_8  and  C_14
REMARK    4  A    between atoms: N_9  and  C_15
REMARK    5  A    between atoms: C_23  and  C_28
REMARK                            x       y       z     vdW  Elec       q    Type
REMARK                         _______ _______ _______ _____ _____    ______ ____
ROOT
ATOM      2  O   UNL     1      -5.586  -9.683  16.511  0.00  0.00    -0.370 OA
ATOM      3  O   UNL     1      -5.096 -11.556  18.958  0.00  0.00    -0.370 OA
ATOM     12  C   UNL     1      -5.265 -11.798  17.552  0.00  0.00    +0.170 C 
ATOM     13  C   UNL     1      -6.300 -10.812  17.046  0.00  0.00    +0.171 C 
ATOM     14  C   UNL     1      -4.006 -11.431  16.801  0.00  0.00    +0.133 C 
ATOM     15  C   UNL     1      -7.064 -10.409  18.285  0.00  0.00    +0.130 C 
ATOM     16  C   UNL     1      -4.176  -9.936  16.594  0.00  0.00    +0.183 C 
ATOM     17  C   UNL     1      -6.020 -10.540  19.378  0.00  0.00    +0.185 C 
ENDROOT
BRANCH  15   9
ATOM      9  N   UNL     1      -8.152 -11.334  18.517  0.00  0.00    -0.306 N 
ATOM     10  N   UNL     1      -9.702  -9.963  17.410  0.00  0.00    -0.214 NA
ATOM     11  N   UNL     1     -10.376 -12.068  18.371  0.00  0.00    -0.223 NA
ATOM     18  C   UNL     1      -9.448 -11.116  18.086  0.00  0.00    +0.216 A 
ATOM     23  C   UNL     1     -10.976  -9.782  17.005  0.00  0.00    +0.076 A 
ATOM     26  C   UNL     1     -11.629 -11.823  17.936  0.00  0.00    +0.116 A 
ATOM     27  C   UNL     1     -11.991 -10.686  17.242  0.00  0.00    +0.048 A 
ATOM     40  H   UNL     1      -7.963 -12.220  18.972  0.00  0.00    +0.149 HD
BRANCH  23  28
ATOM      6  O   UNL     1     -12.548  -7.239  13.126  0.00  0.00    -0.453 OA
ATOM      7  O   UNL     1     -11.973  -5.131  14.143  0.00  0.00    -0.453 OA
ATOM     28  C   UNL     1     -11.222  -8.554  16.289  0.00  0.00    +0.004 A 
ATOM     32  C   UNL     1     -11.792  -8.593  15.012  0.00  0.00    +0.059 A 
ATOM     34  C   UNL     1     -10.887  -7.320  16.879  0.00  0.00    +0.014 A 
ATOM     35  C   UNL     1     -12.008  -7.393  14.366  0.00  0.00    +0.167 A 
ATOM     36  C   UNL     1     -11.680  -6.189  14.946  0.00  0.00    +0.166 A 
ATOM     37  C   UNL     1     -11.116  -6.119  16.204  0.00  0.00    +0.050 A 
ATOM     38  C   UNL     1     -12.523  -5.803  12.992  0.00  0.00    +0.466 C 
ENDBRANCH  23  28
ENDBRANCH  15   9
BRANCH  14   8
ATOM      8  N   UNL     1      -3.930 -12.127  15.539  0.00  0.00    -0.182 NA
ATOM     39  H   UNL     1      -4.598 -12.891  15.384  0.00  0.00    +0.148 HD
BRANCH   8   1
ATOM      1  S   UNL     1      -2.475 -12.127  14.662  0.00  0.00    +0.059 S 
ATOM      4  O   UNL     1      -2.179 -13.476  14.218  0.00  0.00    -0.153 OA
ATOM      5  O   UNL     1      -1.484 -11.368  15.400  0.00  0.00    -0.153 OA
BRANCH   1  19
ATOM     19  C   UNL     1      -2.905 -11.168  13.241  0.00  0.00    +0.106 A 
ATOM     20  C   UNL     1      -4.219 -10.765  13.070  0.00  0.00    +0.037 A 
ATOM     21  C   UNL     1      -1.923 -10.839  12.328  0.00  0.00    +0.029 A 
ATOM     22  C   UNL     1      -4.577 -10.003  11.946  0.00  0.00    -0.016 A 
ATOM     24  C   UNL     1      -2.261 -10.081  11.205  0.00  0.00    +0.010 A 
ATOM     25  C   UNL     1      -3.583  -9.656  11.000  0.00  0.00    -0.018 A 
ATOM     29  C   UNL     1      -5.899  -9.577  11.741  0.00  0.00    +0.008 A 
ATOM     30  C   UNL     1      -3.941  -8.894   9.875  0.00  0.00    +0.008 A 
ATOM     31  C   UNL     1      -6.237  -8.820  10.618  0.00  0.00    +0.001 A 
ATOM     33  C   UNL     1      -5.261  -8.480   9.688  0.00  0.00    +0.001 A 
ENDBRANCH   1  19
ENDBRANCH   8   1
ENDBRANCH  14   8
TORSDOF 5
ENDMDL
MODEL 3
REMARK VINA RESULT:      -8.0     27.199     30.798
REMARK  Name = 11912190
REMARK  5 active torsions:
REMARK  status: ('A' for Active; 'I' for Inactive)
REMARK    1  A    between atoms: S_1  and  N_8
REMARK    2  A    between atoms: S_1  and  C_19
REMARK    3  A    between atoms: N_8  and  C_14
REMARK    4  A    between atoms: N_9  and  C_15
REMARK    5  A    between atoms: C_23  and  C_28
REMARK                            x       y       z     vdW  Elec       q    Type
REMARK                         _______ _______ _______ _____ _____    ______ ____
ROOT
ATOM      2  O   UNL     1      -5.888 -11.843  10.383  0.00  0.00    -0.370 OA
ATOM      3  O   UNL     1      -4.726  -8.951  10.245  0.00  0.00    -0.370 OA
ATOM     12  C   UNL     1      -4.361 -10.189   9.613  0.00  0.00    +0.170 C 
ATOM     13  C   UNL     1      -4.582 -11.294  10.627  0.00  0.00    +0.171 C 
ATOM     14  C   UNL     1      -5.328 -10.514   8.497  0.00  0.00    +0.133 C 
ATOM     15  C   UNL     1      -4.553 -10.584  11.960  0.00  0.00    +0.130 C 
ATOM     16  C   UNL     1      -6.465 -11.193   9.241  0.00  0.00    +0.183 C 
ATOM     17  C   UNL     1      -5.077  -9.203  11.614  0.00  0.00    +0.185 C 
ENDROOT
BRANCH  15   9
ATOM      9  N   UNL     1      -3.192 -10.497  12.445  0.00  0.00    -0.306 N 
ATOM     10  N   UNL     1      -3.864 -10.663  14.688  0.00  0.00    -0.214 NA
ATOM     11  N   UNL     1      -1.535 -10.445  14.105  0.00  0.00    -0.223 NA
ATOM     18  C   UNL     1      -2.854 -10.537  13.785  0.00  0.00    +0.216 A 
ATOM     23  C   UNL     1      -3.497 -10.697  15.985  0.00  0.00    +0.076 A 
ATOM     26  C   UNL     1      -1.240 -10.487  15.421  0.00  0.00    +0.116 A 
ATOM     27  C   UNL     1      -2.189 -10.612  16.416  0.00  0.00    +0.048 A 
ATOM     40  H   UNL     1      -2.429 -10.457  11.780  0.00  0.00    +0.149 HD
BRANCH  23  28
ATOM      6  O   UNL     1      -8.174 -10.181  17.343  0.00  0.00    -0.453 OA
ATOM      7  O   UNL     1      -7.763 -11.157  19.508  0.00  0.00    -0.453 OA
ATOM     28  C   UNL     1      -4.584 -10.832  16.925  0.00  0.00    +0.004 A 
ATOM     32  C   UNL     1      -5.867 -10.398  16.575  0.00  0.00    +0.059 A 
ATOM     34  C   UNL     1      -4.348 -11.401  18.192  0.00  0.00    +0.014 A 
ATOM     35  C   UNL     1      -6.874 -10.546  17.508  0.00  0.00    +0.167 A 
ATOM     36  C   UNL     1      -6.639 -11.104  18.744  0.00  0.00    +0.166 A 
ATOM     37  C   UNL     1      -5.384 -11.541  19.117  0.00  0.00    +0.050 A 
ATOM     38  C   UNL     1      -8.732 -10.571  18.616  0.00  0.00    +0.466 C 
ENDBRANCH  23  28
ENDBRANCH  15   9
BRANCH  14   8
ATOM      8  N   UNL     1      -4.731 -11.404   7.532  0.00  0.00    -0.182 NA
ATOM     39  H   UNL     1      -3.710 -11.514   7.565  0.00  0.00    +0.148 HD
BRANCH   8   1
ATOM      1  S   UNL     1      -5.539 -11.734   6.075  0.00  0.00    +0.059 S 
ATOM      4  O   UNL     1      -5.970 -10.488   5.469  0.00  0.00    -0.153 OA
ATOM      5  O   UNL     1      -6.493 -12.803   6.301  0.00  0.00    -0.153 OA
BRANCH   1  19
ATOM     19  C   UNL     1      -4.241 -12.403   5.081  0.00  0.00    +0.106 A 
ATOM     20  C   UNL     1      -3.191 -13.065   5.696  0.00  0.00    +0.037 A 
ATOM     21  C   UNL     1      -4.296 -12.253   3.710  0.00  0.00    +0.029 A 
ATOM     22  C   UNL     1      -2.151 -13.603   4.920  0.00  0.00    -0.016 A 
ATOM     24  C   UNL     1      -3.272 -12.782   2.922  0.00  0.00    +0.010 A 
ATOM     25  C   UNL     1      -2.192 -13.459   3.512  0.00  0.00    -0.018 A 
ATOM     29  C   UNL     1      -1.071 -14.280   5.510  0.00  0.00    +0.008 A 
ATOM     30  C   UNL     1      -1.152 -13.996   2.736  0.00  0.00    +0.008 A 
ATOM     31  C   UNL     1      -0.047 -14.808   4.724  0.00  0.00    +0.001 A 
ATOM     33  C   UNL     1      -0.087 -14.666   3.340  0.00  0.00    +0.001 A 
ENDBRANCH   1  19
ENDBRANCH   8   1
ENDBRANCH  14   8
TORSDOF 5
ENDMDL
MODEL 4
REMARK VINA RESULT:      -7.8     27.292     30.555
REMARK  Name = 11912190
REMARK  5 active torsions:
REMARK  status: ('A' for Active; 'I' for Inactive)
REMARK    1  A    between atoms: S_1  and  N_8
REMARK    2  A    between atoms: S_1  and  C_19
REMARK    3  A    between atoms: N_8  and  C_14
REMARK    4  A    between atoms: N_9  and  C_15
REMARK    5  A    between atoms: C_23  and  C_28
REMARK                            x       y       z     vdW  Elec       q    Type
REMARK                         _______ _______ _______ _____ _____    ______ ____
ROOT
ATOM      2  O   UNL     1      -5.198 -10.655  17.781  0.00  0.00    -0.370 OA
ATOM      3  O   UNL     1      -6.436 -11.477  15.037  0.00  0.00    -0.370 OA
ATOM     12  C   UNL     1      -5.475 -10.482  15.424  0.00  0.00    +0.170 C 
ATOM     13  C   UNL     1      -5.914  -9.929  16.766  0.00  0.00    +0.171 C 
ATOM     14  C   UNL     1      -4.138 -11.127  15.710  0.00  0.00    +0.133 C 
ATOM     15  C   UNL     1      -7.388 -10.249  16.833  0.00  0.00    +0.130 C 
ATOM     16  C   UNL     1      -4.297 -11.577  17.151  0.00  0.00    +0.183 C 
ATOM     17  C   UNL     1      -7.491 -11.519  16.009  0.00  0.00    +0.185 C 
ENDROOT
BRANCH  15   9
ATOM      9  N   UNL     1      -8.154  -9.188  16.216  0.00  0.00    -0.306 N 
ATOM     10  N   UNL     1     -10.018  -9.588  17.585  0.00  0.00    -0.214 NA
ATOM     11  N   UNL     1     -10.052  -7.840  15.925  0.00  0.00    -0.223 NA
ATOM     18  C   UNL     1      -9.446  -8.862  16.587  0.00  0.00    +0.216 A 
ATOM     23  C   UNL     1     -11.279  -9.243  17.920  0.00  0.00    +0.076 A 
ATOM     26  C   UNL     1     -11.312  -7.549  16.311  0.00  0.00    +0.116 A 
ATOM     27  C   UNL     1     -11.982  -8.223  17.312  0.00  0.00    +0.048 A 
ATOM     40  H   UNL     1      -7.719  -8.607  15.510  0.00  0.00    +0.149 HD
BRANCH  23  28
ATOM      6  O   UNL     1     -11.393 -13.090  20.949  0.00  0.00    -0.453 OA
ATOM      7  O   UNL     1     -13.435 -12.343  21.989  0.00  0.00    -0.453 OA
ATOM     28  C   UNL     1     -11.866 -10.024  18.981  0.00  0.00    +0.004 A 
ATOM     32  C   UNL     1     -11.249 -11.208  19.400  0.00  0.00    +0.059 A 
ATOM     34  C   UNL     1     -13.059  -9.592  19.592  0.00  0.00    +0.014 A 
ATOM     35  C   UNL     1     -11.848 -11.922  20.417  0.00  0.00    +0.167 A 
ATOM     36  C   UNL     1     -13.014 -11.496  21.011  0.00  0.00    +0.166 A 
ATOM     37  C   UNL     1     -13.645 -10.333  20.620  0.00  0.00    +0.050 A 
ATOM     38  C   UNL     1     -12.404 -13.350  21.944  0.00  0.00    +0.466 C 
ENDBRANCH  23  28
ENDBRANCH  15   9
BRANCH  14   8
ATOM      8  N   UNL     1      -3.061 -10.176  15.576  0.00  0.00    -0.182 NA
ATOM     39  H   UNL     1      -3.290  -9.185  15.717  0.00  0.00    +0.148 HD
BRANCH   8   1
ATOM      1  S   UNL     1      -1.697 -10.572  14.645  0.00  0.00    +0.059 S 
ATOM      4  O   UNL     1      -1.073 -11.765  15.185  0.00  0.00    -0.153 OA
ATOM      5  O   UNL     1      -0.911  -9.371  14.432  0.00  0.00    -0.153 OA
BRANCH   1  19
ATOM     19  C   UNL     1      -2.424 -10.993  13.091  0.00  0.00    +0.106 A 
ATOM     20  C   UNL     1      -2.797  -9.981  12.223  0.00  0.00    +0.037 A 
ATOM     21  C   UNL     1      -2.609 -12.324  12.772  0.00  0.00    +0.029 A 
ATOM     22  C   UNL     1      -3.377 -10.299  10.983  0.00  0.00    -0.016 A 
ATOM     24  C   UNL     1      -3.183 -12.658  11.545  0.00  0.00    +0.010 A 
ATOM     25  C   UNL     1      -3.573 -11.658  10.639  0.00  0.00    -0.018 A 
ATOM     29  C   UNL     1      -3.766  -9.298  10.078  0.00  0.00    +0.008 A 
ATOM     30  C   UNL     1      -4.153 -11.977   9.401  0.00  0.00    +0.008 A 
ATOM     31  C   UNL     1      -4.341  -9.633   8.851  0.00  0.00    +0.001 A 
ATOM     33  C   UNL     1      -4.534 -10.968   8.514  0.00  0.00    +0.001 A 
ENDBRANCH   1  19
ENDBRANCH   8   1
ENDBRANCH  14   8
TORSDOF 5
ENDMDL
MODEL 5
REMARK VINA RESULT:      -7.8     27.508     30.585
REMARK  Name = 11912190
REMARK  5 active torsions:
REMARK  status: ('A' for Active; 'I' for Inactive)
REMARK    1  A    between atoms: S_1  and  N_8
REMARK    2  A    between atoms: S_1  and  C_19
REMARK    3  A    between atoms: N_8  and  C_14
REMARK    4  A    between atoms: N_9  and  C_15
REMARK    5  A    between atoms: C_23  and  C_28
REMARK                            x       y       z     vdW  Elec       q    Type
REMARK                         _______ _______ _______ _____ _____    ______ ____
ROOT
ATOM      2  O   UNL     1     -15.543   6.609  31.380  0.00  0.00    -0.370 OA
ATOM      3  O   UNL     1     -15.277   6.087  34.445  0.00  0.00    -0.370 OA
ATOM     12  C   UNL     1     -14.321   6.177  33.376  0.00  0.00    +0.170 C 
ATOM     13  C   UNL     1     -14.955   5.547  32.150  0.00  0.00    +0.171 C 
ATOM     14  C   UNL     1     -14.111   7.621  32.980  0.00  0.00    +0.133 C 
ATOM     15  C   UNL     1     -16.031   4.648  32.712  0.00  0.00    +0.130 C 
ATOM     16  C   UNL     1     -15.258   7.864  32.016  0.00  0.00    +0.183 C 
ATOM     17  C   UNL     1     -16.431   5.365  33.988  0.00  0.00    +0.185 C 
ENDROOT
BRANCH  15   9
ATOM      9  N   UNL     1     -15.479   3.347  33.019  0.00  0.00    -0.306 N 
ATOM     10  N   UNL     1     -15.749   2.589  30.814  0.00  0.00    -0.214 NA
ATOM     11  N   UNL     1     -14.804   1.159  32.508  0.00  0.00    -0.223 NA
ATOM     18  C   UNL     1     -15.339   2.335  32.086  0.00  0.00    +0.216 A 
ATOM     23  C   UNL     1     -15.598   1.581  29.931  0.00  0.00    +0.076 A 
ATOM     26  C   UNL     1     -14.682   0.194  31.572  0.00  0.00    +0.116 A 
ATOM     27  C   UNL     1     -15.066   0.350  30.256  0.00  0.00    +0.048 A 
ATOM     40  H   UNL     1     -15.121   3.165  33.949  0.00  0.00    +0.149 HD
BRANCH  23  28
ATOM      6  O   UNL     1     -17.464   0.311  25.584  0.00  0.00    -0.453 OA
ATOM      7  O   UNL     1     -17.321   2.567  24.746  0.00  0.00    -0.453 OA
ATOM     28  C   UNL     1     -16.038   1.872  28.588  0.00  0.00    +0.004 A 
ATOM     32  C   UNL     1     -16.544   0.847  27.782  0.00  0.00    +0.059 A 
ATOM     34  C   UNL     1     -15.956   3.189  28.094  0.00  0.00    +0.014 A 
ATOM     35  C   UNL     1     -16.951   1.174  26.504  0.00  0.00    +0.167 A 
ATOM     36  C   UNL     1     -16.870   2.461  26.025  0.00  0.00    +0.166 A 
ATOM     37  C   UNL     1     -16.375   3.493  26.797  0.00  0.00    +0.050 A 
ATOM     38  C   UNL     1     -17.696   1.202  24.473  0.00  0.00    +0.466 C 
ENDBRANCH  23  28
ENDBRANCH  15   9
BRANCH  14   8
ATOM      8  N   UNL     1     -12.836   7.803  32.331  0.00  0.00    -0.182 NA
ATOM     39  H   UNL     1     -12.236   6.975  32.233  0.00  0.00    +0.148 HD
BRANCH   8   1
ATOM      1  S   UNL     1     -12.111   9.339  32.310  0.00  0.00    +0.059 S 
ATOM      4  O   UNL     1     -10.675   9.198  32.468  0.00  0.00    -0.153 OA
ATOM      5  O   UNL     1     -12.857  10.221  33.188  0.00  0.00    -0.153 OA
BRANCH   1  19
ATOM     19  C   UNL     1     -12.427   9.871  30.655  0.00  0.00    +0.106 A 
ATOM     20  C   UNL     1     -11.418   9.780  29.711  0.00  0.00    +0.037 A 
ATOM     21  C   UNL     1     -13.674  10.369  30.334  0.00  0.00    +0.029 A 
ATOM     22  C   UNL     1     -11.654  10.198  28.391  0.00  0.00    -0.016 A 
ATOM     24  C   UNL     1     -13.927  10.789  29.027  0.00  0.00    +0.010 A 
ATOM     25  C   UNL     1     -12.927  10.710  28.044  0.00  0.00    -0.018 A 
ATOM     29  C   UNL     1     -10.654  10.120  27.408  0.00  0.00    +0.008 A 
ATOM     30  C   UNL     1     -13.163  11.130  26.724  0.00  0.00    +0.008 A 
ATOM     31  C   UNL     1     -10.905  10.541  26.102  0.00  0.00    +0.001 A 
ATOM     33  C   UNL     1     -12.156  11.045  25.761  0.00  0.00    +0.001 A 
ENDBRANCH   1  19
ENDBRANCH   8   1
ENDBRANCH  14   8
TORSDOF 5
ENDMDL
MODEL 6
REMARK VINA RESULT:      -7.7     27.820     31.139
REMARK  Name = 11912190
REMARK  5 active torsions:
REMARK  status: ('A' for Active; 'I' for Inactive)
REMARK    1  A    between atoms: S_1  and  N_8
REMARK    2  A    between atoms: S_1  and  C_19
REMARK    3  A    between atoms: N_8  and  C_14
REMARK    4  A    between atoms: N_9  and  C_15
REMARK    5  A    between atoms: C_23  and  C_28
REMARK                            x       y       z     vdW  Elec       q    Type
REMARK                         _______ _______ _______ _____ _____    ______ ____
ROOT
ATOM      2  O   UNL     1     -10.887  -6.082  16.594  0.00  0.00    -0.370 OA
ATOM      3  O   UNL     1     -10.608  -8.884  15.248  0.00  0.00    -0.370 OA
ATOM     12  C   UNL     1     -11.728  -8.148  15.766  0.00  0.00    +0.170 C 
ATOM     13  C   UNL     1     -11.251  -7.412  17.003  0.00  0.00    +0.171 C 
ATOM     14  C   UNL     1     -12.120  -7.045  14.809  0.00  0.00    +0.133 C 
ATOM     15  C   UNL     1     -10.026  -8.180  17.441  0.00  0.00    +0.130 C 
ATOM     16  C   UNL     1     -11.169  -5.927  15.196  0.00  0.00    +0.183 C 
ATOM     17  C   UNL     1      -9.487  -8.722  16.130  0.00  0.00    +0.185 C 
ENDROOT
BRANCH  15   9
ATOM      9  N   UNL     1     -10.410  -9.269  18.313  0.00  0.00    -0.306 N 
ATOM     10  N   UNL     1      -8.286 -10.260  18.192  0.00  0.00    -0.214 NA
ATOM     11  N   UNL     1     -10.043 -11.253  19.511  0.00  0.00    -0.223 NA
ATOM     18  C   UNL     1      -9.554 -10.290  18.684  0.00  0.00    +0.216 A 
ATOM     23  C   UNL     1      -7.479 -11.272  18.574  0.00  0.00    +0.076 A 
ATOM     26  C   UNL     1      -9.182 -12.234  19.852  0.00  0.00    +0.116 A 
ATOM     27  C   UNL     1      -7.876 -12.296  19.409  0.00  0.00    +0.048 A 
ATOM     40  H   UNL     1     -11.334  -9.272  18.727  0.00  0.00    +0.149 HD
BRANCH  23  28
ATOM      6  O   UNL     1      -4.247 -10.559  14.964  0.00  0.00    -0.453 OA
ATOM      7  O   UNL     1      -2.375 -11.039  16.404  0.00  0.00    -0.453 OA
ATOM     28  C   UNL     1      -6.139 -11.219  18.042  0.00  0.00    +0.004 A 
ATOM     32  C   UNL     1      -5.934 -10.891  16.698  0.00  0.00    +0.059 A 
ATOM     34  C   UNL     1      -5.042 -11.500  18.880  0.00  0.00    +0.014 A 
ATOM     35  C   UNL     1      -4.634 -10.855  16.235  0.00  0.00    +0.167 A 
ATOM     36  C   UNL     1      -3.565 -11.129  17.057  0.00  0.00    +0.166 A 
ATOM     37  C   UNL     1      -3.736 -11.456  18.387  0.00  0.00    +0.050 A 
ATOM     38  C   UNL     1      -2.813 -10.677  15.079  0.00  0.00    +0.466 C 
ENDBRANCH  23  28
ENDBRANCH  15   9
BRANCH  14   8
ATOM      8  N   UNL     1     -13.495  -6.651  15.002  0.00  0.00    -0.182 NA
ATOM     39  H   UNL     1     -13.907  -6.826  15.927  0.00  0.00    +0.148 HD
BRANCH   8   1
ATOM      1  S   UNL     1     -14.529  -6.513  13.663  0.00  0.00    +0.059 S 
ATOM      4  O   UNL     1     -15.683  -5.711  14.024  0.00  0.00    -0.153 OA
ATOM      5  O   UNL     1     -14.710  -7.826  13.074  0.00  0.00    -0.153 OA
BRANCH   1  19
ATOM     19  C   UNL     1     -13.544  -5.575  12.535  0.00  0.00    +0.106 A 
ATOM     20  C   UNL     1     -12.855  -6.233  11.530  0.00  0.00    +0.037 A 
ATOM     21  C   UNL     1     -13.479  -4.203  12.678  0.00  0.00    +0.029 A 
ATOM     22  C   UNL     1     -12.068  -5.501  10.625  0.00  0.00    -0.016 A 
ATOM     24  C   UNL     1     -12.702  -3.460  11.787  0.00  0.00    +0.010 A 
ATOM     25  C   UNL     1     -11.991  -4.094  10.756  0.00  0.00    -0.018 A 
ATOM     29  C   UNL     1     -11.356  -6.136   9.594  0.00  0.00    +0.008 A 
ATOM     30  C   UNL     1     -11.202  -3.362   9.852  0.00  0.00    +0.008 A 
ATOM     31  C   UNL     1     -10.579  -5.394   8.705  0.00  0.00    +0.001 A 
ATOM     33  C   UNL     1     -10.502  -4.010   8.834  0.00  0.00    +0.001 A 
ENDBRANCH   1  19
ENDBRANCH   8   1
ENDBRANCH  14   8
TORSDOF 5
ENDMDL
MODEL 7
REMARK VINA RESULT:      -7.6      5.330      9.614
REMARK  Name = 11912190
REMARK  5 active torsions:
REMARK  status: ('A' for Active; 'I' for Inactive)
REMARK    1  A    between atoms: S_1  and  N_8
REMARK    2  A    between atoms: S_1  and  C_19
REMARK    3  A    between atoms: N_8  and  C_14
REMARK    4  A    between atoms: N_9  and  C_15
REMARK    5  A    between atoms: C_23  and  C_28
REMARK                            x       y       z     vdW  Elec       q    Type
REMARK                         _______ _______ _______ _____ _____    ______ ____
ROOT
ATOM      2  O   UNL     1      11.978  11.527  25.511  0.00  0.00    -0.370 OA
ATOM      3  O   UNL     1      13.600  13.587  23.818  0.00  0.00    -0.370 OA
ATOM     12  C   UNL     1      13.709  12.167  24.009  0.00  0.00    +0.170 C 
ATOM     13  C   UNL     1      13.372  11.880  25.459  0.00  0.00    +0.171 C 
ATOM     14  C   UNL     1      12.631  11.448  23.230  0.00  0.00    +0.133 C 
ATOM     15  C   UNL     1      13.606  13.196  26.161  0.00  0.00    +0.130 C 
ATOM     16  C   UNL     1      11.447  11.515  24.178  0.00  0.00    +0.183 C 
ATOM     17  C   UNL     1      13.301  14.211  25.075  0.00  0.00    +0.185 C 
ENDROOT
BRANCH  15   9
ATOM      9  N   UNL     1      14.991  13.300  26.568  0.00  0.00    -0.306 N 
ATOM     10  N   UNL     1      14.487  12.782  28.802  0.00  0.00    -0.214 NA
ATOM     11  N   UNL     1      16.755  13.223  28.114  0.00  0.00    -0.223 NA
ATOM     18  C   UNL     1      15.424  13.095  27.866  0.00  0.00    +0.216 A 
ATOM     23  C   UNL     1      14.944  12.590  30.056  0.00  0.00    +0.076 A 
ATOM     26  C   UNL     1      17.142  13.017  29.390  0.00  0.00    +0.116 A 
ATOM     27  C   UNL     1      16.273  12.695  30.413  0.00  0.00    +0.048 A 
ATOM     40  H   UNL     1      15.703  13.479  25.871  0.00  0.00    +0.149 HD
BRANCH  23  28
ATOM      6  O   UNL     1      12.530   9.447  32.933  0.00  0.00    -0.453 OA
ATOM      7  O   UNL     1      11.098  11.179  33.802  0.00  0.00    -0.453 OA
ATOM     28  C   UNL     1      13.934  12.258  31.032  0.00  0.00    +0.004 A 
ATOM     32  C   UNL     1      13.793  10.936  31.467  0.00  0.00    +0.059 A 
ATOM     34  C   UNL     1      13.094  13.267  31.542  0.00  0.00    +0.014 A 
ATOM     35  C   UNL     1      12.812  10.667  32.400  0.00  0.00    +0.167 A 
ATOM     36  C   UNL     1      11.994  11.656  32.896  0.00  0.00    +0.166 A 
ATOM     37  C   UNL     1      12.110  12.968  32.486  0.00  0.00    +0.050 A 
ATOM     38  C   UNL     1      11.443   9.780  33.821  0.00  0.00    +0.466 C 
ENDBRANCH  23  28
ENDBRANCH  15   9
BRANCH  14   8
ATOM      8  N   UNL     1      13.006  10.081  22.960  0.00  0.00    -0.182 NA
ATOM     39  H   UNL     1      13.975   9.811  23.168  0.00  0.00    +0.148 HD
BRANCH   8   1
ATOM      1  S   UNL     1      12.139   9.179  21.811  0.00  0.00    +0.059 S 
ATOM      4  O   UNL     1      11.551  10.078  20.835  0.00  0.00    -0.153 OA
ATOM      5  O   UNL     1      11.309   8.213  22.505  0.00  0.00    -0.153 OA
BRANCH   1  19
ATOM     19  C   UNL     1      13.426   8.272  21.011  0.00  0.00    +0.106 A 
ATOM     20  C   UNL     1      14.712   8.327  21.524  0.00  0.00    +0.037 A 
ATOM     21  C   UNL     1      13.128   7.526  19.888  0.00  0.00    +0.029 A 
ATOM     22  C   UNL     1      15.747   7.611  20.899  0.00  0.00    -0.016 A 
ATOM     24  C   UNL     1      14.144   6.809  19.254  0.00  0.00    +0.010 A 
ATOM     25  C   UNL     1      15.458   6.841  19.748  0.00  0.00    -0.018 A 
ATOM     29  C   UNL     1      17.061   7.644  21.393  0.00  0.00    +0.008 A 
ATOM     30  C   UNL     1      16.493   6.126  19.122  0.00  0.00    +0.008 A 
ATOM     31  C   UNL     1      18.077   6.927  20.759  0.00  0.00    +0.001 A 
ATOM     33  C   UNL     1      17.794   6.170  19.627  0.00  0.00    +0.001 A 
ENDBRANCH   1  19
ENDBRANCH   8   1
ENDBRANCH  14   8
TORSDOF 5
ENDMDL
MODEL 8
REMARK VINA RESULT:      -7.5     14.271     18.048
REMARK  Name = 11912190
REMARK  5 active torsions:
REMARK  status: ('A' for Active; 'I' for Inactive)
REMARK    1  A    between atoms: S_1  and  N_8
REMARK    2  A    between atoms: S_1  and  C_19
REMARK    3  A    between atoms: N_8  and  C_14
REMARK    4  A    between atoms: N_9  and  C_15
REMARK    5  A    between atoms: C_23  and  C_28
REMARK                            x       y       z     vdW  Elec       q    Type
REMARK                         _______ _______ _______ _____ _____    ______ ____
ROOT
ATOM      2  O   UNL     1      13.023   4.451   2.077  0.00  0.00    -0.370 OA
ATOM      3  O   UNL     1      13.232   6.176  -0.515  0.00  0.00    -0.370 OA
ATOM     12  C   UNL     1      13.504   6.445   0.870  0.00  0.00    +0.170 C 
ATOM     13  C   UNL     1      12.455   5.713   1.686  0.00  0.00    +0.171 C 
ATOM     14  C   UNL     1      14.807   5.801   1.284  0.00  0.00    +0.133 C 
ATOM     15  C   UNL     1      11.317   5.498   0.716  0.00  0.00    +0.130 C 
ATOM     16  C   UNL     1      14.379   4.382   1.612  0.00  0.00    +0.183 C 
ATOM     17  C   UNL     1      12.032   5.395  -0.619  0.00  0.00    +0.185 C 
ENDROOT
BRANCH  15   9
ATOM      9  N   UNL     1      10.435   6.644   0.725  0.00  0.00    -0.306 N 
ATOM     10  N   UNL     1       9.885   6.342   2.987  0.00  0.00    -0.214 NA
ATOM     11  N   UNL     1       8.938   8.156   1.714  0.00  0.00    -0.223 NA
ATOM     18  C   UNL     1       9.732   7.060   1.842  0.00  0.00    +0.216 A 
ATOM     23  C   UNL     1       9.185   6.775   4.056  0.00  0.00    +0.076 A 
ATOM     26  C   UNL     1       8.267   8.533   2.823  0.00  0.00    +0.116 A 
ATOM     27  C   UNL     1       8.352   7.874   4.032  0.00  0.00    +0.048 A 
ATOM     40  H   UNL     1      10.355   7.218  -0.105  0.00  0.00    +0.149 HD
BRANCH  23  28
ATOM      6  O   UNL     1       9.136   6.205   8.920  0.00  0.00    -0.453 OA
ATOM      7  O   UNL     1       9.835   3.904   8.762  0.00  0.00    -0.453 OA
ATOM     28  C   UNL     1       9.363   5.999   5.260  0.00  0.00    +0.004 A 
ATOM     32  C   UNL     1       9.129   6.585   6.508  0.00  0.00    +0.059 A 
ATOM     34  C   UNL     1       9.773   4.654   5.172  0.00  0.00    +0.014 A 
ATOM     35  C   UNL     1       9.314   5.804   7.631  0.00  0.00    +0.167 A 
ATOM     36  C   UNL     1       9.713   4.491   7.541  0.00  0.00    +0.166 A 
ATOM     37  C   UNL     1       9.952   3.885   6.325  0.00  0.00    +0.050 A 
ATOM     38  C   UNL     1       9.468   4.994   9.631  0.00  0.00    +0.466 C 
ENDBRANCH  23  28
ENDBRANCH  15   9
BRANCH  14   8
ATOM      8  N   UNL     1      15.370   6.457   2.439  0.00  0.00    -0.182 NA
ATOM     39  H   UNL     1      15.187   6.030   3.356  0.00  0.00    +0.148 HD
BRANCH   8   1
ATOM      1  S   UNL     1      15.742   8.112   2.373  0.00  0.00    +0.059 S 
ATOM      4  O   UNL     1      14.554   8.887   2.679  0.00  0.00    -0.153 OA
ATOM      5  O   UNL     1      16.490   8.375   1.158  0.00  0.00    -0.153 OA
BRANCH   1  19
ATOM     19  C   UNL     1      16.870   8.288   3.721  0.00  0.00    +0.106 A 
ATOM     20  C   UNL     1      18.169   7.829   3.579  0.00  0.00    +0.037 A 
ATOM     21  C   UNL     1      16.436   8.878   4.891  0.00  0.00    +0.029 A 
ATOM     22  C   UNL     1      19.079   7.961   4.642  0.00  0.00    -0.016 A 
ATOM     24  C   UNL     1      17.326   9.018   5.957  0.00  0.00    +0.010 A 
ATOM     25  C   UNL     1      18.651   8.565   5.848  0.00  0.00    -0.018 A 
ATOM     29  C   UNL     1      20.403   7.508   4.533  0.00  0.00    +0.008 A 
ATOM     30  C   UNL     1      19.559   8.696   6.911  0.00  0.00    +0.008 A 
ATOM     31  C   UNL     1      21.293   7.647   5.598  0.00  0.00    +0.001 A 
ATOM     33  C   UNL     1      20.872   8.239   6.785  0.00  0.00    +0.001 A 
ENDBRANCH   1  19
ENDBRANCH   8   1
ENDBRANCH  14   8
TORSDOF 5
ENDMDL
MODEL 9
REMARK VINA RESULT:      -7.4      6.091      7.770
REMARK  Name = 11912190
REMARK  5 active torsions:
REMARK  status: ('A' for Active; 'I' for Inactive)
REMARK    1  A    between atoms: S_1  and  N_8
REMARK    2  A    between atoms: S_1  and  C_19
REMARK    3  A    between atoms: N_8  and  C_14
REMARK    4  A    between atoms: N_9  and  C_15
REMARK    5  A    between atoms: C_23  and  C_28
REMARK                            x       y       z     vdW  Elec       q    Type
REMARK                         _______ _______ _______ _____ _____    ______ ____
ROOT
ATOM      2  O   UNL     1      19.722   6.571  20.126  0.00  0.00    -0.370 OA
ATOM      3  O   UNL     1      19.490   8.427  22.624  0.00  0.00    -0.370 OA
ATOM     12  C   UNL     1      19.598   7.004  22.463  0.00  0.00    +0.170 C 
ATOM     13  C   UNL     1      18.800   6.628  21.228  0.00  0.00    +0.171 C 
ATOM     14  C   UNL     1      21.018   6.620  22.114  0.00  0.00    +0.133 C 
ATOM     15  C   UNL     1      17.837   7.777  21.047  0.00  0.00    +0.130 C 
ATOM     16  C   UNL     1      21.049   6.823  20.610  0.00  0.00    +0.183 C 
ATOM     17  C   UNL     1      18.608   8.952  21.620  0.00  0.00    +0.185 C 
ENDROOT
BRANCH  15   9
ATOM      9  N   UNL     1      16.636   7.542  21.819  0.00  0.00    -0.306 N 
ATOM     10  N   UNL     1      15.248   8.366  20.114  0.00  0.00    -0.214 NA
ATOM     11  N   UNL     1      14.318   7.559  22.187  0.00  0.00    -0.223 NA
ATOM     18  C   UNL     1      15.363   7.830  21.359  0.00  0.00    +0.216 A 
ATOM     23  C   UNL     1      13.993   8.635  19.699  0.00  0.00    +0.076 A 
ATOM     26  C   UNL     1      13.092   7.852  21.708  0.00  0.00    +0.116 A 
ATOM     27  C   UNL     1      12.866   8.397  20.460  0.00  0.00    +0.048 A 
ATOM     40  H   UNL     1      16.705   7.094  22.724  0.00  0.00    +0.149 HD
BRANCH  23  28
ATOM      6  O   UNL     1      15.302  11.810  16.208  0.00  0.00    -0.453 OA
ATOM      7  O   UNL     1      13.710  10.906  14.642  0.00  0.00    -0.453 OA
ATOM     28  C   UNL     1      13.893   9.201  18.376  0.00  0.00    +0.004 A 
ATOM     32  C   UNL     1      14.720  10.268  18.010  0.00  0.00    +0.059 A 
ATOM     34  C   UNL     1      12.963   8.676  17.458  0.00  0.00    +0.014 A 
ATOM     35  C   UNL     1      14.588  10.778  16.734  0.00  0.00    +0.167 A 
ATOM     36  C   UNL     1      13.679  10.262  15.840  0.00  0.00    +0.166 A 
ATOM     37  C   UNL     1      12.850   9.209  16.172  0.00  0.00    +0.050 A 
ATOM     38  C   UNL     1      14.740  11.885  14.882  0.00  0.00    +0.466 C 
ENDBRANCH  23  28
ENDBRANCH  15   9
BRANCH  14   8
ATOM      8  N   UNL     1      21.287   5.246  22.461  0.00  0.00    -0.182 NA
ATOM     39  H   UNL     1      21.438   5.034  23.455  0.00  0.00    +0.148 HD
BRANCH   8   1
ATOM      1  S   UNL     1      21.937   4.193  21.297  0.00  0.00    +0.059 S 
ATOM      4  O   UNL     1      22.920   4.902  20.500  0.00  0.00    -0.153 OA
ATOM      5  O   UNL     1      20.850   3.482  20.651  0.00  0.00    -0.153 OA
BRANCH   1  19
ATOM     19  C   UNL     1      22.794   3.020  22.303  0.00  0.00    +0.106 A 
ATOM     20  C   UNL     1      23.718   2.173  21.715  0.00  0.00    +0.037 A 
ATOM     21  C   UNL     1      22.526   2.969  23.656  0.00  0.00    +0.029 A 
ATOM     22  C   UNL     1      24.408   1.235  22.500  0.00  0.00    -0.016 A 
ATOM     24  C   UNL     1      23.202   2.044  24.453  0.00  0.00    +0.010 A 
ATOM     25  C   UNL     1      24.146   1.170  23.890  0.00  0.00    -0.018 A 
ATOM     29  C   UNL     1      25.352   0.361  21.937  0.00  0.00    +0.008 A 
ATOM     30  C   UNL     1      24.835   0.231  24.676  0.00  0.00    +0.008 A 
ATOM     31  C   UNL     1      26.028  -0.565  22.732  0.00  0.00    +0.001 A 
ATOM     33  C   UNL     1      25.770  -0.630  24.098  0.00  0.00    +0.001 A 
ENDBRANCH   1  19
ENDBRANCH   8   1
ENDBRANCH  14   8
TORSDOF 5
ENDMDL
MODEL 10
REMARK VINA RESULT:      -7.4     28.190     30.640
REMARK  Name = 11912190
REMARK  5 active torsions:
REMARK  status: ('A' for Active; 'I' for Inactive)
REMARK    1  A    between atoms: S_1  and  N_8
REMARK    2  A    between atoms: S_1  and  C_19
REMARK    3  A    between atoms: N_8  and  C_14
REMARK    4  A    between atoms: N_9  and  C_15
REMARK    5  A    between atoms: C_23  and  C_28
REMARK                            x       y       z     vdW  Elec       q    Type
REMARK                         _______ _______ _______ _____ _____    ______ ____
ROOT
ATOM      2  O   UNL     1      -5.223 -12.156   9.907  0.00  0.00    -0.370 OA
ATOM      3  O   UNL     1      -3.602  -9.491   9.812  0.00  0.00    -0.370 OA
ATOM     12  C   UNL     1      -4.315 -10.172  10.857  0.00  0.00    +0.170 C 
ATOM     13  C   UNL     1      -5.549 -10.793  10.230  0.00  0.00    +0.171 C 
ATOM     14  C   UNL     1      -3.517 -11.357  11.352  0.00  0.00    +0.133 C 
ATOM     15  C   UNL     1      -5.765  -9.992   8.968  0.00  0.00    +0.130 C 
ATOM     16  C   UNL     1      -3.888 -12.438  10.352  0.00  0.00    +0.183 C 
ATOM     17  C   UNL     1      -4.355  -9.575   8.593  0.00  0.00    +0.185 C 
ENDROOT
BRANCH  15   9
ATOM      9  N   UNL     1      -6.573  -8.826   9.254  0.00  0.00    -0.306 N 
ATOM     10  N   UNL     1      -7.401  -8.726   7.060  0.00  0.00    -0.214 NA
ATOM     11  N   UNL     1      -8.088  -7.117   8.718  0.00  0.00    -0.223 NA
ATOM     18  C   UNL     1      -7.378  -8.205   8.316  0.00  0.00    +0.216 A 
ATOM     23  C   UNL     1      -8.196  -8.095   6.172  0.00  0.00    +0.076 A 
ATOM     26  C   UNL     1      -8.863  -6.536   7.778  0.00  0.00    +0.116 A 
ATOM     27  C   UNL     1      -8.957  -6.985   6.476  0.00  0.00    +0.048 A 
ATOM     40  H   UNL     1      -6.606  -8.463  10.199  0.00  0.00    +0.149 HD
BRANCH  23  28
ATOM      6  O   UNL     1      -7.695 -11.812   3.021  0.00  0.00    -0.453 OA
ATOM      7  O   UNL     1      -8.198 -10.410   1.126  0.00  0.00    -0.453 OA
ATOM     28  C   UNL     1      -8.206  -8.665   4.846  0.00  0.00    +0.004 A 
ATOM     32  C   UNL     1      -7.924 -10.024   4.668  0.00  0.00    +0.059 A 
ATOM     34  C   UNL     1      -8.498  -7.849   3.735  0.00  0.00    +0.014 A 
ATOM     35  C   UNL     1      -7.944 -10.523   3.382  0.00  0.00    +0.167 A 
ATOM     36  C   UNL     1      -8.231  -9.723   2.299  0.00  0.00    +0.166 A 
ATOM     37  C   UNL     1      -8.512  -8.380   2.443  0.00  0.00    +0.050 A 
ATOM     38  C   UNL     1      -7.857 -11.732   1.590  0.00  0.00    +0.466 C 
ENDBRANCH  23  28
ENDBRANCH  15   9
BRANCH  14   8
ATOM      8  N   UNL     1      -3.908 -11.727  12.690  0.00  0.00    -0.182 NA
ATOM     39  H   UNL     1      -4.912 -11.859  12.866  0.00  0.00    +0.148 HD
BRANCH   8   1
ATOM      1  S   UNL     1      -2.895 -11.351  14.000  0.00  0.00    +0.059 S 
ATOM      4  O   UNL     1      -2.149 -10.143  13.703  0.00  0.00    -0.153 OA
ATOM      5  O   UNL     1      -2.198 -12.555  14.413  0.00  0.00    -0.153 OA
BRANCH   1  19
ATOM     19  C   UNL     1      -4.064 -10.972  15.270  0.00  0.00    +0.106 A 
ATOM     20  C   UNL     1      -3.854 -11.459  16.549  0.00  0.00    +0.037 A 
ATOM     21  C   UNL     1      -5.166 -10.199  14.962  0.00  0.00    +0.029 A 
ATOM     22  C   UNL     1      -4.774 -11.166  17.570  0.00  0.00    -0.016 A 
ATOM     24  C   UNL     1      -6.090  -9.898  15.964  0.00  0.00    +0.010 A 
ATOM     25  C   UNL     1      -5.909 -10.374  17.272  0.00  0.00    -0.018 A 
ATOM     29  C   UNL     1      -4.592 -11.642  18.878  0.00  0.00    +0.008 A 
ATOM     30  C   UNL     1      -6.830 -10.082  18.293  0.00  0.00    +0.008 A 
ATOM     31  C   UNL     1      -5.516 -11.342  19.880  0.00  0.00    +0.001 A 
ATOM     33  C   UNL     1      -6.632 -10.564  19.587  0.00  0.00    +0.001 A 
ENDBRANCH   1  19
ENDBRANCH   8   1
ENDBRANCH  14   8
TORSDOF 5
ENDMDL
