MODEL 1
REMARK VINA RESULT:      -6.1      0.000      0.000
REMARK  Name = 56775321
REMARK  5 active torsions:
REMARK  status: ('A' for Active; 'I' for Inactive)
REMARK    1  A    between atoms: O_5  and  C_16
REMARK    2  A    between atoms: O_5  and  C_22
REMARK    3  A    between atoms: N_7  and  C_13
REMARK    4  A    between atoms: C_13  and  C_16
REMARK    5  A    between atoms: C_15  and  C_17
REMARK                            x       y       z     vdW  Elec       q    Type
REMARK                         _______ _______ _______ _____ _____    ______ ____
ROOT
ATOM      2  O   UNL     1      12.229   8.607  16.762  0.00  0.00    -0.364 OA
ATOM      3  O   UNL     1      13.834  10.719  14.389  0.00  0.00    -0.273 OA
ATOM      4  O   UNL     1      13.591   6.331  20.764  0.00  0.00    -0.270 OA
ATOM      6  N   UNL     1      13.864   8.035  19.211  0.00  0.00    -0.293 N 
ATOM      7  N   UNL     1      14.093  10.669  16.701  0.00  0.00    -0.290 N 
ATOM      8  C   UNL     1      13.738  10.043  17.968  0.00  0.00    +0.124 C 
ATOM      9  C   UNL     1      12.369   9.366  17.961  0.00  0.00    +0.158 C 
ATOM     10  C   UNL     1      14.677   8.895  18.352  0.00  0.00    +0.133 C 
ATOM     11  C   UNL     1      12.454   8.401  19.137  0.00  0.00    +0.141 C 
ATOM     12  C   UNL     1      13.480  10.320  15.501  0.00  0.00    +0.242 C 
ATOM     14  C   UNL     1      12.242   9.451  15.633  0.00  0.00    +0.256 C 
ATOM     15  C   UNL     1      14.312   7.033  20.058  0.00  0.00    +0.247 C 
ENDROOT
BRANCH  15  17
ATOM      1  F   UNL     1      19.833   6.136  20.321  0.00  0.00    -0.205 F 
ATOM     17  C   UNL     1      15.762   6.798  20.127  0.00  0.00    +0.037 A 
ATOM     18  C   UNL     1      16.503   7.312  21.192  0.00  0.00    +0.016 A 
ATOM     19  C   UNL     1      16.398   6.060  19.128  0.00  0.00    +0.016 A 
ATOM     20  C   UNL     1      17.877   7.089  21.257  0.00  0.00    +0.039 A 
ATOM     21  C   UNL     1      17.773   5.837  19.194  0.00  0.00    +0.039 A 
ATOM     23  C   UNL     1      18.513   6.352  20.259  0.00  0.00    +0.123 A 
ENDBRANCH  15  17
BRANCH   7  13
ATOM     13  C   UNL     1      15.240  11.567  16.709  0.00  0.00    +0.136 C 
BRANCH  13  16
ATOM     16  C   UNL     1      15.206  12.503  17.903  0.00  0.00    +0.178 C 
BRANCH  16   5
ATOM      5  O   UNL     1      16.441  12.421  18.602  0.00  0.00    -0.381 OA
ATOM     22  C   UNL     1      16.251  12.014  19.950  0.00  0.00    +0.194 C 
ENDBRANCH  16   5
ENDBRANCH  13  16
ENDBRANCH   7  13
TORSDOF 4
ENDMDL
MODEL 2
REMARK VINA RESULT:      -5.7     12.728     15.809
REMARK  Name = 56775321
REMARK  5 active torsions:
REMARK  status: ('A' for Active; 'I' for Inactive)
REMARK    1  A    between atoms: O_5  and  C_16
REMARK    2  A    between atoms: O_5  and  C_22
REMARK    3  A    between atoms: N_7  and  C_13
REMARK    4  A    between atoms: C_13  and  C_16
REMARK    5  A    between atoms: C_15  and  C_17
REMARK                            x       y       z     vdW  Elec       q    Type
REMARK                         _______ _______ _______ _____ _____    ______ ____
ROOT
ATOM      2  O   UNL     1       9.606   8.977   4.615  0.00  0.00    -0.364 OA
ATOM      3  O   UNL     1      10.959   8.894   7.906  0.00  0.00    -0.273 OA
ATOM      4  O   UNL     1      10.068   6.272   0.674  0.00  0.00    -0.270 OA
ATOM      6  N   UNL     1      10.187   6.531   2.979  0.00  0.00    -0.293 N 
ATOM      7  N   UNL     1      10.258   7.117   6.576  0.00  0.00    -0.290 N 
ATOM      8  C   UNL     1       9.727   6.671   5.294  0.00  0.00    +0.124 C 
ATOM      9  C   UNL     1       8.912   7.733   4.559  0.00  0.00    +0.158 C 
ATOM     10  C   UNL     1      10.823   6.329   4.280  0.00  0.00    +0.133 C 
ATOM     11  C   UNL     1       8.919   7.239   3.118  0.00  0.00    +0.141 C 
ATOM     12  C   UNL     1      10.395   8.465   6.897  0.00  0.00    +0.242 C 
ATOM     14  C   UNL     1       9.711   9.431   5.945  0.00  0.00    +0.256 C 
ATOM     15  C   UNL     1      10.636   6.079   1.747  0.00  0.00    +0.247 C 
ENDROOT
BRANCH  15  17
ATOM      1  F   UNL     1      15.380   3.106   1.650  0.00  0.00    -0.205 F 
ATOM     17  C   UNL     1      11.882   5.298   1.723  0.00  0.00    +0.037 A 
ATOM     18  C   UNL     1      11.831   3.904   1.719  0.00  0.00    +0.016 A 
ATOM     19  C   UNL     1      13.115   5.951   1.702  0.00  0.00    +0.016 A 
ATOM     20  C   UNL     1      13.013   3.164   1.694  0.00  0.00    +0.039 A 
ATOM     21  C   UNL     1      14.296   5.210   1.677  0.00  0.00    +0.039 A 
ATOM     23  C   UNL     1      14.245   3.816   1.674  0.00  0.00    +0.123 A 
ENDBRANCH  15  17
BRANCH   7  13
ATOM     13  C   UNL     1      10.798   6.092   7.458  0.00  0.00    +0.136 C 
BRANCH  13  16
ATOM     16  C   UNL     1       9.831   4.933   7.624  0.00  0.00    +0.178 C 
BRANCH  16   5
ATOM      5  O   UNL     1      10.153   4.215   8.807  0.00  0.00    -0.381 OA
ATOM     22  C   UNL     1       9.321   4.600   9.893  0.00  0.00    +0.194 C 
ENDBRANCH  16   5
ENDBRANCH  13  16
ENDBRANCH   7  13
TORSDOF 4
ENDMDL
MODEL 3
REMARK VINA RESULT:      -5.6      4.151      5.282
REMARK  Name = 56775321
REMARK  5 active torsions:
REMARK  status: ('A' for Active; 'I' for Inactive)
REMARK    1  A    between atoms: O_5  and  C_16
REMARK    2  A    between atoms: O_5  and  C_22
REMARK    3  A    between atoms: N_7  and  C_13
REMARK    4  A    between atoms: C_13  and  C_16
REMARK    5  A    between atoms: C_15  and  C_17
REMARK                            x       y       z     vdW  Elec       q    Type
REMARK                         _______ _______ _______ _____ _____    ______ ____
ROOT
ATOM      2  O   UNL     1      10.933  11.256  21.681  0.00  0.00    -0.364 OA
ATOM      3  O   UNL     1      13.062  13.954  22.603  0.00  0.00    -0.273 OA
ATOM      4  O   UNL     1      11.583   6.627  20.585  0.00  0.00    -0.270 OA
ATOM      6  N   UNL     1      12.284   8.579  21.629  0.00  0.00    -0.293 N 
ATOM      7  N   UNL     1      13.185  11.721  23.243  0.00  0.00    -0.290 N 
ATOM      8  C   UNL     1      12.642  10.373  23.127  0.00  0.00    +0.124 C 
ATOM      9  C   UNL     1      11.165  10.333  22.742  0.00  0.00    +0.158 C 
ATOM     10  C   UNL     1      13.301   9.558  22.011  0.00  0.00    +0.133 C 
ATOM     11  C   UNL     1      10.986   8.920  22.201  0.00  0.00    +0.141 C 
ATOM     12  C   UNL     1      12.576  12.823  22.649  0.00  0.00    +0.242 C 
ATOM     14  C   UNL     1      11.179  12.577  22.106  0.00  0.00    +0.256 C 
ATOM     15  C   UNL     1      12.469   7.424  20.884  0.00  0.00    +0.247 C 
ENDROOT
BRANCH  15  17
ATOM      1  F   UNL     1      17.666   6.280  19.138  0.00  0.00    -0.205 F 
ATOM     17  C   UNL     1      13.834   7.123  20.425  0.00  0.00    +0.037 A 
ATOM     18  C   UNL     1      14.167   7.274  19.078  0.00  0.00    +0.016 A 
ATOM     19  C   UNL     1      14.797   6.688  21.337  0.00  0.00    +0.016 A 
ATOM     20  C   UNL     1      15.460   6.989  18.644  0.00  0.00    +0.039 A 
ATOM     21  C   UNL     1      16.091   6.404  20.901  0.00  0.00    +0.039 A 
ATOM     23  C   UNL     1      16.423   6.554  19.555  0.00  0.00    +0.123 A 
ENDBRANCH  15  17
BRANCH   7  13
ATOM     13  C   UNL     1      14.491  11.853  23.875  0.00  0.00    +0.136 C 
BRANCH  13  16
ATOM     16  C   UNL     1      14.419  11.579  25.366  0.00  0.00    +0.178 C 
BRANCH  16   5
ATOM      5  O   UNL     1      13.242  12.171  25.899  0.00  0.00    -0.381 OA
ATOM     22  C   UNL     1      13.524  13.410  26.535  0.00  0.00    +0.194 C 
ENDBRANCH  16   5
ENDBRANCH  13  16
ENDBRANCH   7  13
TORSDOF 4
ENDMDL
MODEL 4
REMARK VINA RESULT:      -5.4     26.891     28.967
REMARK  Name = 56775321
REMARK  5 active torsions:
REMARK  status: ('A' for Active; 'I' for Inactive)
REMARK    1  A    between atoms: O_5  and  C_16
REMARK    2  A    between atoms: O_5  and  C_22
REMARK    3  A    between atoms: N_7  and  C_13
REMARK    4  A    between atoms: C_13  and  C_16
REMARK    5  A    between atoms: C_15  and  C_17
REMARK                            x       y       z     vdW  Elec       q    Type
REMARK                         _______ _______ _______ _____ _____    ______ ____
ROOT
ATOM      2  O   UNL     1      -3.724 -12.494  15.521  0.00  0.00    -0.364 OA
ATOM      3  O   UNL     1      -7.174 -12.893  16.301  0.00  0.00    -0.273 OA
ATOM      4  O   UNL     1      -1.254 -10.375  11.991  0.00  0.00    -0.270 OA
ATOM      6  N   UNL     1      -3.179 -10.586  13.272  0.00  0.00    -0.293 N 
ATOM      7  N   UNL     1      -6.086 -11.031  15.426  0.00  0.00    -0.290 N 
ATOM      8  C   UNL     1      -4.842 -10.442  14.947  0.00  0.00    +0.124 C 
ATOM      9  C   UNL     1      -3.588 -11.076  15.544  0.00  0.00    +0.158 C 
ATOM     10  C   UNL     1      -4.631 -10.635  13.442  0.00  0.00    +0.133 C 
ATOM     11  C   UNL     1      -2.497 -10.678  14.558  0.00  0.00    +0.141 C 
ATOM     12  C   UNL     1      -6.137 -12.297  16.004  0.00  0.00    +0.242 C 
ATOM     14  C   UNL     1      -4.789 -12.907  16.348  0.00  0.00    +0.256 C 
ATOM     15  C   UNL     1      -2.479 -10.410  12.089  0.00  0.00    +0.247 C 
ENDROOT
BRANCH  15  17
ATOM      1  F   UNL     1      -5.455  -9.760   7.390  0.00  0.00    -0.205 F 
ATOM     17  C   UNL     1      -3.261 -10.239  10.855  0.00  0.00    +0.037 A 
ATOM     18  C   UNL     1      -3.546  -8.958  10.381  0.00  0.00    +0.016 A 
ATOM     19  C   UNL     1      -3.718 -11.358  10.157  0.00  0.00    +0.016 A 
ATOM     20  C   UNL     1      -4.287  -8.796   9.211  0.00  0.00    +0.039 A 
ATOM     21  C   UNL     1      -4.459 -11.195   8.987  0.00  0.00    +0.039 A 
ATOM     23  C   UNL     1      -4.744  -9.914   8.514  0.00  0.00    +0.123 A 
ENDBRANCH  15  17
BRANCH   7  13
ATOM     13  C   UNL     1      -7.316 -10.309  15.128  0.00  0.00    +0.136 C 
BRANCH  13  16
ATOM     16  C   UNL     1      -7.819  -9.543  16.339  0.00  0.00    +0.178 C 
BRANCH  16   5
ATOM      5  O   UNL     1      -8.994  -8.825  15.988  0.00  0.00    -0.381 OA
ATOM     22  C   UNL     1      -9.604  -8.234  17.127  0.00  0.00    +0.194 C 
ENDBRANCH  16   5
ENDBRANCH  13  16
ENDBRANCH   7  13
TORSDOF 4
ENDMDL
MODEL 5
REMARK VINA RESULT:      -5.4      3.224      5.400
REMARK  Name = 56775321
REMARK  5 active torsions:
REMARK  status: ('A' for Active; 'I' for Inactive)
REMARK    1  A    between atoms: O_5  and  C_16
REMARK    2  A    between atoms: O_5  and  C_22
REMARK    3  A    between atoms: N_7  and  C_13
REMARK    4  A    between atoms: C_13  and  C_16
REMARK    5  A    between atoms: C_15  and  C_17
REMARK                            x       y       z     vdW  Elec       q    Type
REMARK                         _______ _______ _______ _____ _____    ______ ____
ROOT
ATOM      2  O   UNL     1      11.120   9.000  22.618  0.00  0.00    -0.364 OA
ATOM      3  O   UNL     1      11.241   5.802  21.061  0.00  0.00    -0.273 OA
ATOM      4  O   UNL     1      13.858  12.942  22.517  0.00  0.00    -0.270 OA
ATOM      6  N   UNL     1      13.107  10.973  21.543  0.00  0.00    -0.293 N 
ATOM      7  N   UNL     1      11.763   7.881  20.156  0.00  0.00    -0.290 N 
ATOM      8  C   UNL     1      11.899   9.317  20.364  0.00  0.00    +0.124 C 
ATOM      9  C   UNL     1      11.024   9.865  21.489  0.00  0.00    +0.158 C 
ATOM     10  C   UNL     1      13.308   9.727  20.805  0.00  0.00    +0.133 C 
ATOM     11  C   UNL     1      11.694  11.188  21.835  0.00  0.00    +0.141 C 
ATOM     12  C   UNL     1      11.252   7.032  21.134  0.00  0.00    +0.242 C 
ATOM     14  C   UNL     1      10.598   7.726  22.317  0.00  0.00    +0.256 C 
ATOM     15  C   UNL     1      14.072  11.905  21.894  0.00  0.00    +0.247 C 
ENDROOT
BRANCH  15  17
ATOM      1  F   UNL     1      19.345  10.887  20.306  0.00  0.00    -0.205 F 
ATOM     17  C   UNL     1      15.457  11.638  21.477  0.00  0.00    +0.037 A 
ATOM     18  C   UNL     1      16.312  10.922  22.316  0.00  0.00    +0.016 A 
ATOM     19  C   UNL     1      15.916  12.100  20.243  0.00  0.00    +0.016 A 
ATOM     20  C   UNL     1      17.625  10.669  21.920  0.00  0.00    +0.039 A 
ATOM     21  C   UNL     1      17.229  11.846  19.848  0.00  0.00    +0.039 A 
ATOM     23  C   UNL     1      18.084  11.130  20.687  0.00  0.00    +0.123 A 
ENDBRANCH  15  17
BRANCH   7  13
ATOM     13  C   UNL     1      12.340   7.334  18.935  0.00  0.00    +0.136 C 
BRANCH  13  16
ATOM     16  C   UNL     1      11.951   8.156  17.719  0.00  0.00    +0.178 C 
BRANCH  16   5
ATOM      5  O   UNL     1      12.938   7.999  16.708  0.00  0.00    -0.381 OA
ATOM     22  C   UNL     1      14.222   7.756  17.267  0.00  0.00    +0.194 C 
ENDBRANCH  16   5
ENDBRANCH  13  16
ENDBRANCH   7  13
TORSDOF 4
ENDMDL
MODEL 6
REMARK VINA RESULT:      -5.4      4.247      6.538
REMARK  Name = 56775321
REMARK  5 active torsions:
REMARK  status: ('A' for Active; 'I' for Inactive)
REMARK    1  A    between atoms: O_5  and  C_16
REMARK    2  A    between atoms: O_5  and  C_22
REMARK    3  A    between atoms: N_7  and  C_13
REMARK    4  A    between atoms: C_13  and  C_16
REMARK    5  A    between atoms: C_15  and  C_17
REMARK                            x       y       z     vdW  Elec       q    Type
REMARK                         _______ _______ _______ _____ _____    ______ ____
ROOT
ATOM      2  O   UNL     1      11.743   7.471  21.934  0.00  0.00    -0.364 OA
ATOM      3  O   UNL     1      14.170   6.679  19.454  0.00  0.00    -0.273 OA
ATOM      4  O   UNL     1      10.482  11.445  24.316  0.00  0.00    -0.270 OA
ATOM      6  N   UNL     1      11.445  10.406  22.476  0.00  0.00    -0.293 N 
ATOM      7  N   UNL     1      12.861   8.592  19.648  0.00  0.00    -0.290 N 
ATOM      8  C   UNL     1      11.863   9.331  20.412  0.00  0.00    +0.124 C 
ATOM      9  C   UNL     1      10.952   8.446  21.259  0.00  0.00    +0.158 C 
ATOM     10  C   UNL     1      12.481  10.269  21.453  0.00  0.00    +0.133 C 
ATOM     11  C   UNL     1      10.391   9.414  22.292  0.00  0.00    +0.141 C 
ATOM     12  C   UNL     1      13.241   7.295  19.980  0.00  0.00    +0.242 C 
ATOM     14  C   UNL     1      12.364   6.606  21.011  0.00  0.00    +0.256 C 
ATOM     15  C   UNL     1      11.374  11.366  23.474  0.00  0.00    +0.247 C 
ENDROOT
BRANCH  15  17
ATOM      1  F   UNL     1      15.439  15.214  23.653  0.00  0.00    -0.205 F 
ATOM     17  C   UNL     1      12.441  12.377  23.522  0.00  0.00    +0.037 A 
ATOM     18  C   UNL     1      13.573  12.160  24.309  0.00  0.00    +0.016 A 
ATOM     19  C   UNL     1      12.323  13.552  22.779  0.00  0.00    +0.016 A 
ATOM     20  C   UNL     1      14.584  13.119  24.353  0.00  0.00    +0.039 A 
ATOM     21  C   UNL     1      13.336  14.511  22.824  0.00  0.00    +0.039 A 
ATOM     23  C   UNL     1      14.467  14.294  23.612  0.00  0.00    +0.123 A 
ENDBRANCH  15  17
BRANCH   7  13
ATOM     13  C   UNL     1      13.574   9.326  18.612  0.00  0.00    +0.136 C 
BRANCH  13  16
ATOM     16  C   UNL     1      12.675   9.632  17.427  0.00  0.00    +0.178 C 
BRANCH  16   5
ATOM      5  O   UNL     1      12.108   8.423  16.940  0.00  0.00    -0.381 OA
ATOM     22  C   UNL     1      10.732   8.583  16.624  0.00  0.00    +0.194 C 
ENDBRANCH  16   5
ENDBRANCH  13  16
ENDBRANCH   7  13
TORSDOF 4
ENDMDL
MODEL 7
REMARK VINA RESULT:      -5.3     12.080     13.871
REMARK  Name = 56775321
REMARK  5 active torsions:
REMARK  status: ('A' for Active; 'I' for Inactive)
REMARK    1  A    between atoms: O_5  and  C_16
REMARK    2  A    between atoms: O_5  and  C_22
REMARK    3  A    between atoms: N_7  and  C_13
REMARK    4  A    between atoms: C_13  and  C_16
REMARK    5  A    between atoms: C_15  and  C_17
REMARK                            x       y       z     vdW  Elec       q    Type
REMARK                         _______ _______ _______ _____ _____    ______ ____
ROOT
ATOM      2  O   UNL     1      12.453   6.942   2.794  0.00  0.00    -0.364 OA
ATOM      3  O   UNL     1      15.822   7.067   3.935  0.00  0.00    -0.273 OA
ATOM      4  O   UNL     1       8.156   6.564   4.903  0.00  0.00    -0.270 OA
ATOM      6  N   UNL     1      10.403   7.145   4.974  0.00  0.00    -0.293 N 
ATOM      7  N   UNL     1      13.933   8.052   4.870  0.00  0.00    -0.290 N 
ATOM      8  C   UNL     1      12.489   8.248   4.816  0.00  0.00    +0.124 C 
ATOM      9  C   UNL     1      11.897   8.098   3.416  0.00  0.00    +0.158 C 
ATOM     10  C   UNL     1      11.713   7.201   5.621  0.00  0.00    +0.133 C 
ATOM     11  C   UNL     1      10.422   7.837   3.690  0.00  0.00    +0.141 C 
ATOM     12  C   UNL     1      14.630   7.376   3.873  0.00  0.00    +0.242 C 
ATOM     14  C   UNL     1      13.842   7.095   2.606  0.00  0.00    +0.256 C 
ATOM     15  C   UNL     1       9.240   6.588   5.482  0.00  0.00    +0.247 C 
ENDROOT
BRANCH  15  17
ATOM      1  F   UNL     1       9.484   4.314  10.594  0.00  0.00    -0.205 F 
ATOM     17  C   UNL     1       9.303   5.990   6.825  0.00  0.00    +0.037 A 
ATOM     18  C   UNL     1       9.731   4.671   6.982  0.00  0.00    +0.016 A 
ATOM     19  C   UNL     1       8.938   6.742   7.942  0.00  0.00    +0.016 A 
ATOM     20  C   UNL     1       9.791   4.105   8.255  0.00  0.00    +0.039 A 
ATOM     21  C   UNL     1       8.999   6.175   9.215  0.00  0.00    +0.039 A 
ATOM     23  C   UNL     1       9.425   4.856   9.371  0.00  0.00    +0.123 A 
ENDBRANCH  15  17
BRANCH   7  13
ATOM     13  C   UNL     1      14.605   8.451   6.099  0.00  0.00    +0.136 C 
BRANCH  13  16
ATOM     16  C   UNL     1      14.412   9.930   6.385  0.00  0.00    +0.178 C 
BRANCH  16   5
ATOM      5  O   UNL     1      15.646  10.496   6.803  0.00  0.00    -0.381 OA
ATOM     22  C   UNL     1      16.734  10.001   6.033  0.00  0.00    +0.194 C 
ENDBRANCH  16   5
ENDBRANCH  13  16
ENDBRANCH   7  13
TORSDOF 4
ENDMDL
MODEL 8
REMARK VINA RESULT:      -5.3     25.720     28.069
REMARK  Name = 56775321
REMARK  5 active torsions:
REMARK  status: ('A' for Active; 'I' for Inactive)
REMARK    1  A    between atoms: O_5  and  C_16
REMARK    2  A    between atoms: O_5  and  C_22
REMARK    3  A    between atoms: N_7  and  C_13
REMARK    4  A    between atoms: C_13  and  C_16
REMARK    5  A    between atoms: C_15  and  C_17
REMARK                            x       y       z     vdW  Elec       q    Type
REMARK                         _______ _______ _______ _____ _____    ______ ____
ROOT
ATOM      2  O   UNL     1     -11.584  11.165  15.578  0.00  0.00    -0.364 OA
ATOM      3  O   UNL     1     -14.466  10.400  13.634  0.00  0.00    -0.273 OA
ATOM      4  O   UNL     1      -9.682   9.484  19.653  0.00  0.00    -0.270 OA
ATOM      6  N   UNL     1     -11.024   9.206  17.779  0.00  0.00    -0.293 N 
ATOM      7  N   UNL     1     -13.036   8.943  14.750  0.00  0.00    -0.290 N 
ATOM      8  C   UNL     1     -11.874   8.776  15.615  0.00  0.00    +0.124 C 
ATOM      9  C   UNL     1     -10.876   9.929  15.538  0.00  0.00    +0.158 C 
ATOM     10  C   UNL     1     -12.236   8.746  17.103  0.00  0.00    +0.133 C 
ATOM     11  C   UNL     1     -10.080   9.785  16.829  0.00  0.00    +0.141 C 
ATOM     12  C   UNL     1     -13.422  10.185  14.254  0.00  0.00    +0.242 C 
ATOM     14  C   UNL     1     -12.412  11.303  14.445  0.00  0.00    +0.256 C 
ATOM     15  C   UNL     1     -10.716   9.081  19.125  0.00  0.00    +0.247 C 
ENDROOT
BRANCH  15  17
ATOM      1  F   UNL     1     -14.448   6.503  22.408  0.00  0.00    -0.205 F 
ATOM     17  C   UNL     1     -11.697   8.404  19.987  0.00  0.00    +0.037 A 
ATOM     18  C   UNL     1     -11.552   7.046  20.275  0.00  0.00    +0.016 A 
ATOM     19  C   UNL     1     -12.771   9.119  20.517  0.00  0.00    +0.016 A 
ATOM     20  C   UNL     1     -12.482   6.405  21.092  0.00  0.00    +0.039 A 
ATOM     21  C   UNL     1     -13.700   8.476  21.335  0.00  0.00    +0.039 A 
ATOM     23  C   UNL     1     -13.556   7.118  21.623  0.00  0.00    +0.123 A 
ENDBRANCH  15  17
BRANCH   7  13
ATOM     13  C   UNL     1     -13.883   7.775  14.553  0.00  0.00    +0.136 C 
BRANCH  13  16
ATOM     16  C   UNL     1     -13.481   6.997  13.313  0.00  0.00    +0.178 C 
BRANCH  16   5
ATOM      5  O   UNL     1     -14.523   6.097  12.961  0.00  0.00    -0.381 OA
ATOM     22  C   UNL     1     -15.708   6.358  13.699  0.00  0.00    +0.194 C 
ENDBRANCH  16   5
ENDBRANCH  13  16
ENDBRANCH   7  13
TORSDOF 4
ENDMDL
MODEL 9
REMARK VINA RESULT:      -5.2      3.000      5.014
REMARK  Name = 56775321
REMARK  5 active torsions:
REMARK  status: ('A' for Active; 'I' for Inactive)
REMARK    1  A    between atoms: O_5  and  C_16
REMARK    2  A    between atoms: O_5  and  C_22
REMARK    3  A    between atoms: N_7  and  C_13
REMARK    4  A    between atoms: C_13  and  C_16
REMARK    5  A    between atoms: C_15  and  C_17
REMARK                            x       y       z     vdW  Elec       q    Type
REMARK                         _______ _______ _______ _____ _____    ______ ____
ROOT
ATOM      2  O   UNL     1      13.049  10.992  23.126  0.00  0.00    -0.364 OA
ATOM      3  O   UNL     1      10.200   8.968  22.454  0.00  0.00    -0.273 OA
ATOM      4  O   UNL     1      17.674  10.894  21.841  0.00  0.00    -0.270 OA
ATOM      6  N   UNL     1      15.454  10.330  21.461  0.00  0.00    -0.293 N 
ATOM      7  N   UNL     1      11.912   9.593  21.009  0.00  0.00    -0.290 N 
ATOM      8  C   UNL     1      13.177  10.296  20.826  0.00  0.00    +0.124 C 
ATOM      9  C   UNL     1      13.400  11.435  21.818  0.00  0.00    +0.158 C 
ATOM     10  C   UNL     1      14.397   9.401  21.063  0.00  0.00    +0.133 C 
ATOM     11  C   UNL     1      14.907  11.647  21.767  0.00  0.00    +0.141 C 
ATOM     12  C   UNL     1      11.198   9.646  22.202  0.00  0.00    +0.242 C 
ATOM     14  C   UNL     1      11.674  10.689  23.199  0.00  0.00    +0.256 C 
ATOM     15  C   UNL     1      16.817  10.082  21.499  0.00  0.00    +0.247 C 
ENDROOT
BRANCH  15  17
ATOM      1  F   UNL     1      18.565   4.997  19.935  0.00  0.00    -0.205 F 
ATOM     17  C   UNL     1      17.277   8.746  21.088  0.00  0.00    +0.037 A 
ATOM     18  C   UNL     1      18.449   8.215  21.628  0.00  0.00    +0.016 A 
ATOM     19  C   UNL     1      16.541   8.011  20.159  0.00  0.00    +0.016 A 
ATOM     20  C   UNL     1      18.884   6.949  21.238  0.00  0.00    +0.039 A 
ATOM     21  C   UNL     1      16.977   6.744  19.769  0.00  0.00    +0.039 A 
ATOM     23  C   UNL     1      18.149   6.213  20.309  0.00  0.00    +0.123 A 
ENDBRANCH  15  17
BRANCH   7  13
ATOM     13  C   UNL     1      11.499   8.692  19.942  0.00  0.00    +0.136 C 
BRANCH  13  16
ATOM     16  C   UNL     1      11.830   7.248  20.274  0.00  0.00    +0.178 C 
BRANCH  16   5
ATOM      5  O   UNL     1      12.337   6.601  19.115  0.00  0.00    -0.381 OA
ATOM     22  C   UNL     1      12.732   7.540  18.124  0.00  0.00    +0.194 C 
ENDBRANCH  16   5
ENDBRANCH  13  16
ENDBRANCH   7  13
TORSDOF 4
ENDMDL
MODEL 10
REMARK VINA RESULT:      -5.2     11.090     13.393
REMARK  Name = 56775321
REMARK  5 active torsions:
REMARK  status: ('A' for Active; 'I' for Inactive)
REMARK    1  A    between atoms: O_5  and  C_16
REMARK    2  A    between atoms: O_5  and  C_22
REMARK    3  A    between atoms: N_7  and  C_13
REMARK    4  A    between atoms: C_13  and  C_16
REMARK    5  A    between atoms: C_15  and  C_17
REMARK                            x       y       z     vdW  Elec       q    Type
REMARK                         _______ _______ _______ _____ _____    ______ ____
ROOT
ATOM      2  O   UNL     1      12.420   7.612   4.669  0.00  0.00    -0.364 OA
ATOM      3  O   UNL     1       9.840   5.181   4.357  0.00  0.00    -0.273 OA
ATOM      4  O   UNL     1      13.238  11.357   7.560  0.00  0.00    -0.270 OA
ATOM      6  N   UNL     1      12.222   9.314   7.131  0.00  0.00    -0.293 N 
ATOM      7  N   UNL     1      10.766   6.078   6.294  0.00  0.00    -0.290 N 
ATOM      8  C   UNL     1      11.707   7.019   6.890  0.00  0.00    +0.124 C 
ATOM      9  C   UNL     1      12.893   7.360   5.990  0.00  0.00    +0.158 C 
ATOM     10  C   UNL     1      11.087   8.393   7.162  0.00  0.00    +0.133 C 
ATOM     11  C   UNL     1      13.408   8.668   6.577  0.00  0.00    +0.141 C 
ATOM     12  C   UNL     1      10.701   5.859   4.921  0.00  0.00    +0.242 C 
ATOM     14  C   UNL     1      11.845   6.451   4.115  0.00  0.00    +0.256 C 
ATOM     15  C   UNL     1      12.259  10.616   7.607  0.00  0.00    +0.247 C 
ENDROOT
BRANCH  15  17
ATOM      1  F   UNL     1       7.602  12.637   9.970  0.00  0.00    -0.205 F 
ATOM     17  C   UNL     1      11.036  11.147   8.228  0.00  0.00    +0.037 A 
ATOM     18  C   UNL     1      10.051  11.738   7.435  0.00  0.00    +0.016 A 
ATOM     19  C   UNL     1      10.860  11.060   9.609  0.00  0.00    +0.016 A 
ATOM     20  C   UNL     1       8.892  12.241   8.023  0.00  0.00    +0.039 A 
ATOM     21  C   UNL     1       9.699  11.563  10.197  0.00  0.00    +0.039 A 
ATOM     23  C   UNL     1       8.715  12.154   9.404  0.00  0.00    +0.123 A 
ENDBRANCH  15  17
BRANCH   7  13
ATOM     13  C   UNL     1       9.772   5.490   7.181  0.00  0.00    +0.136 C 
BRANCH  13  16
ATOM     16  C   UNL     1      10.282   5.403   8.609  0.00  0.00    +0.178 C 
BRANCH  16   5
ATOM      5  O   UNL     1       9.743   4.246   9.233  0.00  0.00    -0.381 OA
ATOM     22  C   UNL     1       8.926   4.586  10.345  0.00  0.00    +0.194 C 
ENDBRANCH  16   5
ENDBRANCH  13  16
ENDBRANCH   7  13
TORSDOF 4
ENDMDL
