REMARK  Name = 28962287
REMARK  13 active torsions:
REMARK  status: ('A' for Active; 'I' for Inactive)
REMARK    1  A    between atoms: O_2  and  C_12
REMARK    2  A    between atoms: O_3  and  C_15
REMARK    3  A    between atoms: O_5  and  C_28
REMARK    4  A    between atoms: O_5  and  C_31
REMARK    5  A    between atoms: N_6  and  C_10
REMARK    6  A    between atoms: N_6  and  C_16
REMARK    7  A    between atoms: N_6  and  C_17
REMARK    8  A    between atoms: N_7  and  C_14
REMARK    9  A    between atoms: N_8  and  C_23
REMARK   10  A    between atoms: C_11  and  C_14
REMARK   11  A    between atoms: C_13  and  C_15
REMARK   12  A    between atoms: C_16  and  C_18
REMARK   13  A    between atoms: C_18  and  C_19
REMARK                            x       y       z     vdW  Elec       q    Type
REMARK                         _______ _______ _______ _____ _____    ______ ____
ROOT
ATOM      1  O   UNL     1       0.838   3.139  -0.716  0.00  0.00    -0.365 OA
ATOM     10  C   UNL     1       2.796   1.819  -0.424  0.00  0.00    +0.118 C 
ATOM     11  C   UNL     1       1.263   1.801  -0.376  0.00  0.00    +0.155 C 
ATOM     12  C   UNL     1       3.131   3.276  -0.148  0.00  0.00    +0.165 C 
ATOM     13  C   UNL     1       2.000   3.971  -0.896  0.00  0.00    +0.174 C 
ENDROOT
BRANCH  12   2
ATOM      2  O   UNL     1       3.063   3.573   1.241  0.00  0.00    -0.388 OA
ATOM     32  H   UNL     1       3.387   4.481   1.364  0.00  0.00    +0.210 HD
ENDBRANCH  12   2
BRANCH  10   6
ATOM      6  N   UNL     1       3.477   0.856   0.424  0.00  0.00    -0.297 NA
ATOM     17  C   UNL     1       4.871   1.251   0.649  0.00  0.00    +0.105 C 
BRANCH   6  16
ATOM     16  C   UNL     1       3.424  -0.487  -0.164  0.00  0.00    +0.090 C 
BRANCH  16  18
ATOM     18  C   UNL     1       3.723  -1.557   0.885  0.00  0.00    +0.071 C 
BRANCH  18  19
ATOM      9  N   UNL     1       2.503  -3.581   0.300  0.00  0.00    -0.260 NA
ATOM     19  C   UNL     1       3.694  -2.942   0.289  0.00  0.00    +0.042 A 
ATOM     21  C   UNL     1       4.859  -3.481  -0.232  0.00  0.00    +0.023 A 
ATOM     22  C   UNL     1       4.798  -4.759  -0.776  0.00  0.00    +0.003 A 
ATOM     24  C   UNL     1       2.483  -4.822  -0.238  0.00  0.00    +0.111 A 
ATOM     25  C   UNL     1       3.591  -5.449  -0.783  0.00  0.00    +0.020 A 
ENDBRANCH  18  19
ENDBRANCH  16  18
ENDBRANCH   6  16
ENDBRANCH  10   6
BRANCH  11  14
ATOM     14  C   UNL     1       0.626   1.452   0.965  0.00  0.00    +0.139 C 
BRANCH  14   7
ATOM      4  O   UNL     1      -1.082  -0.744   0.281  0.00  0.00    -0.253 OA
ATOM      7  N   UNL     1      -0.804   1.474   0.877  0.00  0.00    -0.297 N 
ATOM      8  N   UNL     1      -2.938   0.672   0.528  0.00  0.00    -0.269 N 
ATOM     20  C   UNL     1      -1.577   0.352   0.534  0.00  0.00    +0.304 C 
ATOM     33  H   UNL     1      -1.281   2.351   1.060  0.00  0.00    +0.150 HD
ATOM     35  H   UNL     1      -3.181   1.632   0.762  0.00  0.00    +0.156 HD
BRANCH   8  23
ATOM     23  C   UNL     1      -4.029  -0.178   0.235  0.00  0.00    +0.038 A 
ATOM     26  C   UNL     1      -5.332   0.318   0.279  0.00  0.00    +0.069 A 
ATOM     27  C   UNL     1      -3.802  -1.514  -0.097  0.00  0.00    +0.023 A 
ATOM     28  C   UNL     1      -6.408  -0.521  -0.009  0.00  0.00    +0.122 A 
ATOM     29  C   UNL     1      -4.879  -2.353  -0.385  0.00  0.00    +0.005 A 
ATOM     30  C   UNL     1      -6.181  -1.857  -0.342  0.00  0.00    +0.046 A 
BRANCH  28   5
ATOM      5  O   UNL     1      -7.679  -0.037   0.034  0.00  0.00    -0.495 OA
ATOM     31  C   UNL     1      -8.733  -0.950  -0.271  0.00  0.00    +0.277 C 
ENDBRANCH  28   5
ENDBRANCH   8  23
ENDBRANCH  14   7
ENDBRANCH  11  14
BRANCH  13  15
ATOM     15  C   UNL     1       1.682   5.382  -0.435  0.00  0.00    +0.190 C 
BRANCH  15   3
ATOM      3  O   UNL     1       0.623   5.896  -1.228  0.00  0.00    -0.392 OA
ATOM     34  H   UNL     1       0.443   6.798  -0.914  0.00  0.00    +0.210 HD
ENDBRANCH  15   3
ENDBRANCH  13  15
TORSDOF 11
