MODEL 1
REMARK VINA RESULT:      -6.9      0.000      0.000
REMARK  Name = 45361606
REMARK  9 active torsions:
REMARK  status: ('A' for Active; 'I' for Inactive)
REMARK    1  A    between atoms: O_1  and  C_10
REMARK    2  A    between atoms: N_4  and  C_14
REMARK    3  A    between atoms: N_5  and  C_22
REMARK    4  A    between atoms: C_7  and  C_17
REMARK    5  A    between atoms: C_9  and  C_19
REMARK    6  A    between atoms: C_12  and  C_18
REMARK    7  A    between atoms: C_18  and  C_20
REMARK    8  A    between atoms: C_18  and  C_21
REMARK    9  A    between atoms: C_25  and  C_26
REMARK                            x       y       z     vdW  Elec       q    Type
REMARK                         _______ _______ _______ _____ _____    ______ ____
ROOT
ATOM      7  C   UNL     1     -14.947   7.537  20.609  0.00  0.00    -0.027 C 
ATOM      8  C   UNL     1     -13.716   6.641  20.972  0.00  0.00    +0.028 C 
ATOM      9  C   UNL     1     -13.956   5.882  22.326  0.00  0.00    +0.012 C 
ATOM     10  C   UNL     1     -12.388   7.446  20.882  0.00  0.00    +0.122 C 
ATOM     11  C   UNL     1     -14.728   8.179  19.220  0.00  0.00    +0.007 C 
ATOM     12  C   UNL     1     -12.223   8.171  19.526  0.00  0.00    +0.029 C 
ATOM     13  C   UNL     1     -16.209   6.647  20.523  0.00  0.00    +0.009 C 
ATOM     14  C   UNL     1     -15.267   5.051  22.254  0.00  0.00    +0.076 C 
ATOM     15  C   UNL     1     -13.447   9.000  19.140  0.00  0.00    +0.007 C 
ATOM     16  C   UNL     1     -16.479   5.865  21.800  0.00  0.00    +0.023 C 
ATOM     17  C   UNL     1     -15.187   8.663  21.646  0.00  0.00    +0.011 C 
ATOM     19  C   UNL     1     -12.794   4.959  22.729  0.00  0.00    +0.010 C 
ENDROOT
BRANCH  14   4
ATOM      3  O   UNL     1     -16.498   2.487  22.652  0.00  0.00    -0.269 OA
ATOM      4  N   UNL     1     -15.581   4.431  23.523  0.00  0.00    -0.307 N 
ATOM     25  C   UNL     1     -16.177   3.185  23.612  0.00  0.00    +0.263 C 
ATOM     31  H   UNL     1     -15.406   4.959  24.373  0.00  0.00    +0.149 HD
BRANCH  25  26
ATOM      6  N   UNL     1     -16.709   1.376  25.102  0.00  0.00    -0.250 NA
ATOM     26  C   UNL     1     -16.458   2.700  24.988  0.00  0.00    +0.125 A 
ATOM     27  C   UNL     1     -16.453   3.583  26.055  0.00  0.00    +0.033 A 
ATOM     28  C   UNL     1     -16.721   3.076  27.321  0.00  0.00    +0.004 A 
ATOM     29  C   UNL     1     -16.965   0.920  26.348  0.00  0.00    +0.111 A 
ATOM     30  C   UNL     1     -16.983   1.720  27.480  0.00  0.00    +0.020 A 
ENDBRANCH  25  26
ENDBRANCH  14   4
BRANCH  10   1
ATOM      1  O   UNL     1     -11.279   6.552  21.005  0.00  0.00    -0.391 OA
ATOM     32  H   UNL     1     -10.822   6.752  21.840  0.00  0.00    +0.210 HD
ENDBRANCH  10   1
BRANCH  12  18
ATOM     18  C   UNL     1     -10.974   9.062  19.506  0.00  0.00    +0.077 C 
ATOM     21  C   UNL     1     -11.265  10.388  20.201  0.00  0.00    +0.017 C 
BRANCH  18  20
ATOM      2  O   UNL     1     -10.455   8.416  17.226  0.00  0.00    -0.276 OA
ATOM      5  N   UNL     1     -10.129  10.622  17.860  0.00  0.00    -0.312 N 
ATOM     20  C   UNL     1     -10.501   9.303  18.077  0.00  0.00    +0.216 C 
ATOM     33  H   UNL     1     -10.191  11.297  18.617  0.00  0.00    +0.149 HD
BRANCH   5  22
ATOM     22  C   UNL     1      -9.643  11.088  16.593  0.00  0.00    +0.073 C 
ATOM     23  C   UNL     1     -10.409  12.098  15.790  0.00  0.00    +0.024 C 
ATOM     24  C   UNL     1      -9.107  12.479  16.431  0.00  0.00    +0.024 C 
ENDBRANCH   5  22
ENDBRANCH  18  20
ENDBRANCH  12  18
TORSDOF 6
ENDMDL
MODEL 2
REMARK VINA RESULT:      -6.8     18.268     19.713
REMARK  Name = 45361606
REMARK  9 active torsions:
REMARK  status: ('A' for Active; 'I' for Inactive)
REMARK    1  A    between atoms: O_1  and  C_10
REMARK    2  A    between atoms: N_4  and  C_14
REMARK    3  A    between atoms: N_5  and  C_22
REMARK    4  A    between atoms: C_7  and  C_17
REMARK    5  A    between atoms: C_9  and  C_19
REMARK    6  A    between atoms: C_12  and  C_18
REMARK    7  A    between atoms: C_18  and  C_20
REMARK    8  A    between atoms: C_18  and  C_21
REMARK    9  A    between atoms: C_25  and  C_26
REMARK                            x       y       z     vdW  Elec       q    Type
REMARK                         _______ _______ _______ _____ _____    ______ ____
ROOT
ATOM      7  C   UNL     1      -4.789 -11.100  17.082  0.00  0.00    -0.027 C 
ATOM      8  C   UNL     1      -5.587 -10.451  15.902  0.00  0.00    +0.028 C 
ATOM      9  C   UNL     1      -7.135 -10.550  16.152  0.00  0.00    +0.012 C 
ATOM     10  C   UNL     1      -5.096 -10.987  14.527  0.00  0.00    +0.122 C 
ATOM     11  C   UNL     1      -3.274 -10.885  16.861  0.00  0.00    +0.007 C 
ATOM     12  C   UNL     1      -3.564 -10.864  14.354  0.00  0.00    +0.029 C 
ATOM     13  C   UNL     1      -5.177 -10.394  18.401  0.00  0.00    +0.009 C 
ATOM     14  C   UNL     1      -7.503  -9.905  17.517  0.00  0.00    +0.076 C 
ATOM     15  C   UNL     1      -2.782 -11.444  15.532  0.00  0.00    +0.007 C 
ATOM     16  C   UNL     1      -6.672 -10.435  18.685  0.00  0.00    +0.023 C 
ATOM     17  C   UNL     1      -5.061 -12.620  17.217  0.00  0.00    +0.011 C 
ATOM     19  C   UNL     1      -7.981  -9.905  15.042  0.00  0.00    +0.010 C 
ENDROOT
BRANCH  14   4
ATOM      3  O   UNL     1      -9.534  -7.874  17.503  0.00  0.00    -0.269 OA
ATOM      4  N   UNL     1      -8.904 -10.081  17.834  0.00  0.00    -0.307 N 
ATOM     25  C   UNL     1      -9.809  -9.034  17.798  0.00  0.00    +0.263 C 
ATOM     31  H   UNL     1      -9.216 -10.996  18.147  0.00  0.00    +0.149 HD
BRANCH  25  26
ATOM      6  N   UNL     1     -12.150  -9.079  17.255  0.00  0.00    -0.250 NA
ATOM     26  C   UNL     1     -11.206  -9.375  18.176  0.00  0.00    +0.125 A 
ATOM     27  C   UNL     1     -11.475  -9.955  19.405  0.00  0.00    +0.033 A 
ATOM     28  C   UNL     1     -12.798 -10.255  19.708  0.00  0.00    +0.004 A 
ATOM     29  C   UNL     1     -13.425  -9.384  17.585  0.00  0.00    +0.111 A 
ATOM     30  C   UNL     1     -13.799  -9.966  18.785  0.00  0.00    +0.020 A 
ENDBRANCH  25  26
ENDBRANCH  14   4
BRANCH  10   1
ATOM      1  O   UNL     1      -5.689 -10.221  13.477  0.00  0.00    -0.391 OA
ATOM     32  H   UNL     1      -5.804  -9.309  13.796  0.00  0.00    +0.210 HD
ENDBRANCH  10   1
BRANCH  12  18
ATOM     18  C   UNL     1      -3.084 -11.515  13.051  0.00  0.00    +0.077 C 
ATOM     21  C   UNL     1      -1.891 -12.424  13.327  0.00  0.00    +0.017 C 
BRANCH  18  20
ATOM      2  O   UNL     1      -1.594  -9.969  11.922  0.00  0.00    -0.276 OA
ATOM      5  N   UNL     1      -3.796 -10.114  11.210  0.00  0.00    -0.312 N 
ATOM     20  C   UNL     1      -2.719 -10.457  12.016  0.00  0.00    +0.216 C 
ATOM     33  H   UNL     1      -4.697 -10.560  11.353  0.00  0.00    +0.149 HD
BRANCH   5  22
ATOM     22  C   UNL     1      -3.697  -9.133  10.168  0.00  0.00    +0.073 C 
ATOM     23  C   UNL     1      -4.449  -9.291   8.879  0.00  0.00    +0.024 C 
ATOM     24  C   UNL     1      -4.843  -8.218   9.852  0.00  0.00    +0.024 C 
ENDBRANCH   5  22
ENDBRANCH  18  20
ENDBRANCH  12  18
TORSDOF 6
ENDMDL
MODEL 3
REMARK VINA RESULT:      -6.5     25.850     30.250
REMARK  Name = 45361606
REMARK  9 active torsions:
REMARK  status: ('A' for Active; 'I' for Inactive)
REMARK    1  A    between atoms: O_1  and  C_10
REMARK    2  A    between atoms: N_4  and  C_14
REMARK    3  A    between atoms: N_5  and  C_22
REMARK    4  A    between atoms: C_7  and  C_17
REMARK    5  A    between atoms: C_9  and  C_19
REMARK    6  A    between atoms: C_12  and  C_18
REMARK    7  A    between atoms: C_18  and  C_20
REMARK    8  A    between atoms: C_18  and  C_21
REMARK    9  A    between atoms: C_25  and  C_26
REMARK                            x       y       z     vdW  Elec       q    Type
REMARK                         _______ _______ _______ _____ _____    ______ ____
ROOT
ATOM      7  C   UNL     1      14.898   7.720  20.538  0.00  0.00    -0.027 C 
ATOM      8  C   UNL     1      15.558   8.796  21.464  0.00  0.00    +0.028 C 
ATOM      9  C   UNL     1      14.916  10.209  21.225  0.00  0.00    +0.012 C 
ATOM     10  C   UNL     1      17.111   8.742  21.371  0.00  0.00    +0.122 C 
ATOM     11  C   UNL     1      15.472   6.325  20.878  0.00  0.00    +0.007 C 
ATOM     12  C   UNL     1      17.672   7.321  21.610  0.00  0.00    +0.029 C 
ATOM     13  C   UNL     1      13.378   7.684  20.813  0.00  0.00    +0.009 C 
ATOM     14  C   UNL     1      13.377  10.143  21.430  0.00  0.00    +0.076 C 
ATOM     15  C   UNL     1      16.988   6.258  20.750  0.00  0.00    +0.007 C 
ATOM     16  C   UNL     1      12.702   9.034  20.623  0.00  0.00    +0.023 C 
ATOM     17  C   UNL     1      15.138   8.004  19.033  0.00  0.00    +0.011 C 
ATOM     19  C   UNL     1      15.499  11.311  22.125  0.00  0.00    +0.010 C 
ENDROOT
BRANCH  14   4
ATOM      3  O   UNL     1      11.285  11.437  22.913  0.00  0.00    -0.269 OA
ATOM      4  N   UNL     1      12.737  11.400  21.105  0.00  0.00    -0.307 N 
ATOM     25  C   UNL     1      11.733  11.944  21.887  0.00  0.00    +0.263 C 
ATOM     31  H   UNL     1      13.001  11.866  20.242  0.00  0.00    +0.149 HD
BRANCH  25  26
ATOM      6  N   UNL     1      10.063  13.665  22.061  0.00  0.00    -0.250 NA
ATOM     26  C   UNL     1      11.161  13.227  21.403  0.00  0.00    +0.125 A 
ATOM     27  C   UNL     1      11.747  13.897  20.342  0.00  0.00    +0.033 A 
ATOM     28  C   UNL     1      11.173  15.094  19.930  0.00  0.00    +0.004 A 
ATOM     29  C   UNL     1       9.533  14.832  21.633  0.00  0.00    +0.111 A 
ATOM     30  C   UNL     1      10.043  15.578  20.582  0.00  0.00    +0.020 A 
ENDBRANCH  25  26
ENDBRANCH  14   4
BRANCH  10   1
ATOM      1  O   UNL     1      17.677   9.581  22.381  0.00  0.00    -0.391 OA
ATOM     32  H   UNL     1      17.403  10.496  22.202  0.00  0.00    +0.210 HD
ENDBRANCH  10   1
BRANCH  12  18
ATOM     18  C   UNL     1      19.188   7.263  21.386  0.00  0.00    +0.077 C 
ATOM     21  C   UNL     1      19.521   6.228  20.317  0.00  0.00    +0.017 C 
BRANCH  18  20
ATOM      2  O   UNL     1      20.497   5.874  22.883  0.00  0.00    -0.276 OA
ATOM      5  N   UNL     1      19.842   7.978  23.604  0.00  0.00    -0.312 N 
ATOM     20  C   UNL     1      19.918   6.940  22.686  0.00  0.00    +0.216 C 
ATOM     33  H   UNL     1      19.340   8.829  23.367  0.00  0.00    +0.149 HD
BRANCH   5  22
ATOM     22  C   UNL     1      20.448   7.903  24.903  0.00  0.00    +0.073 C 
ATOM     23  C   UNL     1      21.875   8.314  25.120  0.00  0.00    +0.024 C 
ATOM     24  C   UNL     1      20.760   9.144  25.686  0.00  0.00    +0.024 C 
ENDBRANCH   5  22
ENDBRANCH  18  20
ENDBRANCH  12  18
TORSDOF 6
ENDMDL
MODEL 4
REMARK VINA RESULT:      -6.5     29.659     33.481
REMARK  Name = 45361606
REMARK  9 active torsions:
REMARK  status: ('A' for Active; 'I' for Inactive)
REMARK    1  A    between atoms: O_1  and  C_10
REMARK    2  A    between atoms: N_4  and  C_14
REMARK    3  A    between atoms: N_5  and  C_22
REMARK    4  A    between atoms: C_7  and  C_17
REMARK    5  A    between atoms: C_9  and  C_19
REMARK    6  A    between atoms: C_12  and  C_18
REMARK    7  A    between atoms: C_18  and  C_20
REMARK    8  A    between atoms: C_18  and  C_21
REMARK    9  A    between atoms: C_25  and  C_26
REMARK                            x       y       z     vdW  Elec       q    Type
REMARK                         _______ _______ _______ _____ _____    ______ ____
ROOT
ATOM      7  C   UNL     1      20.070   7.859  21.752  0.00  0.00    -0.027 C 
ATOM      8  C   UNL     1      19.545   6.842  20.684  0.00  0.00    +0.028 C 
ATOM      9  C   UNL     1      17.985   6.682  20.783  0.00  0.00    +0.012 C 
ATOM     10  C   UNL     1      20.356   5.514  20.724  0.00  0.00    +0.122 C 
ATOM     11  C   UNL     1      21.587   8.078  21.554  0.00  0.00    +0.007 C 
ATOM     12  C   UNL     1      21.882   5.748  20.631  0.00  0.00    +0.029 C 
ATOM     13  C   UNL     1      19.366   9.219  21.539  0.00  0.00    +0.009 C 
ATOM     14  C   UNL     1      17.292   8.067  20.644  0.00  0.00    +0.076 C 
ATOM     15  C   UNL     1      22.389   6.785  21.631  0.00  0.00    +0.007 C 
ATOM     16  C   UNL     1      17.848   9.124  21.597  0.00  0.00    +0.023 C 
ATOM     17  C   UNL     1      19.821   7.377  23.204  0.00  0.00    +0.011 C 
ATOM     19  C   UNL     1      17.397   5.716  19.741  0.00  0.00    +0.010 C 
ENDROOT
BRANCH  14   4
ATOM      3  O   UNL     1      15.244   8.868  18.797  0.00  0.00    -0.269 OA
ATOM      4  N   UNL     1      15.862   7.974  20.845  0.00  0.00    -0.307 N 
ATOM     25  C   UNL     1      14.951   8.389  19.890  0.00  0.00    +0.263 C 
ATOM     31  H   UNL     1      15.522   7.644  21.744  0.00  0.00    +0.149 HD
BRANCH  25  26
ATOM      6  N   UNL     1      13.103   6.996  20.539  0.00  0.00    -0.250 NA
ATOM     26  C   UNL     1      13.518   8.252  20.260  0.00  0.00    +0.125 A 
ATOM     27  C   UNL     1      12.698   9.368  20.304  0.00  0.00    +0.033 A 
ATOM     28  C   UNL     1      11.367   9.184  20.658  0.00  0.00    +0.004 A 
ATOM     29  C   UNL     1      11.802   6.856  20.879  0.00  0.00    +0.111 A 
ATOM     30  C   UNL     1      10.901   7.907  20.952  0.00  0.00    +0.020 A 
ENDBRANCH  25  26
ENDBRANCH  14   4
BRANCH  10   1
ATOM      1  O   UNL     1      19.997   4.702  19.605  0.00  0.00    -0.391 OA
ATOM     32  H   UNL     1      20.594   3.935  19.585  0.00  0.00    +0.210 HD
ENDBRANCH  10   1
BRANCH  12  18
ATOM     18  C   UNL     1      22.669   4.442  20.803  0.00  0.00    +0.077 C 
ATOM     21  C   UNL     1      22.155   3.677  22.017  0.00  0.00    +0.017 C 
BRANCH  18  20
ATOM      2  O   UNL     1      24.751   4.698  22.020  0.00  0.00    -0.276 OA
ATOM      5  N   UNL     1      24.760   5.006  19.723  0.00  0.00    -0.312 N 
ATOM     20  C   UNL     1      24.161   4.721  20.942  0.00  0.00    +0.216 C 
ATOM     33  H   UNL     1      24.203   5.010  18.873  0.00  0.00    +0.149 HD
BRANCH   5  22
ATOM     22  C   UNL     1      26.158   5.308  19.602  0.00  0.00    +0.073 C 
ATOM     23  C   UNL     1      27.133   4.285  19.099  0.00  0.00    +0.024 C 
ATOM     24  C   UNL     1      26.801   5.483  18.258  0.00  0.00    +0.024 C 
ENDBRANCH   5  22
ENDBRANCH  18  20
ENDBRANCH  12  18
TORSDOF 6
ENDMDL
MODEL 5
REMARK VINA RESULT:      -6.4      2.866      4.529
REMARK  Name = 45361606
REMARK  9 active torsions:
REMARK  status: ('A' for Active; 'I' for Inactive)
REMARK    1  A    between atoms: O_1  and  C_10
REMARK    2  A    between atoms: N_4  and  C_14
REMARK    3  A    between atoms: N_5  and  C_22
REMARK    4  A    between atoms: C_7  and  C_17
REMARK    5  A    between atoms: C_9  and  C_19
REMARK    6  A    between atoms: C_12  and  C_18
REMARK    7  A    between atoms: C_18  and  C_20
REMARK    8  A    between atoms: C_18  and  C_21
REMARK    9  A    between atoms: C_25  and  C_26
REMARK                            x       y       z     vdW  Elec       q    Type
REMARK                         _______ _______ _______ _____ _____    ______ ____
ROOT
ATOM      7  C   UNL     1     -11.484   8.211  19.568  0.00  0.00    -0.027 C 
ATOM      8  C   UNL     1     -12.781   9.036  19.272  0.00  0.00    +0.028 C 
ATOM      9  C   UNL     1     -14.030   8.091  19.150  0.00  0.00    +0.012 C 
ATOM     10  C   UNL     1     -12.566  10.016  18.082  0.00  0.00    +0.122 C 
ATOM     11  C   UNL     1     -10.298   9.177  19.794  0.00  0.00    +0.007 C 
ATOM     12  C   UNL     1     -11.317  10.908  18.266  0.00  0.00    +0.029 C 
ATOM     13  C   UNL     1     -11.688   7.404  20.871  0.00  0.00    +0.009 C 
ATOM     14  C   UNL     1     -14.180   7.229  20.435  0.00  0.00    +0.076 C 
ATOM     15  C   UNL     1     -10.060  10.111  18.614  0.00  0.00    +0.007 C 
ATOM     16  C   UNL     1     -12.902   6.487  20.823  0.00  0.00    +0.023 C 
ATOM     17  C   UNL     1     -11.123   7.239  18.416  0.00  0.00    +0.011 C 
ATOM     19  C   UNL     1     -15.347   8.840  18.887  0.00  0.00    +0.010 C 
ENDROOT
BRANCH  14   4
ATOM      3  O   UNL     1     -15.748   6.124  22.573  0.00  0.00    -0.269 OA
ATOM      4  N   UNL     1     -15.252   6.264  20.312  0.00  0.00    -0.307 N 
ATOM     25  C   UNL     1     -15.951   5.790  21.408  0.00  0.00    +0.263 C 
ATOM     31  H   UNL     1     -15.454   5.883  19.392  0.00  0.00    +0.149 HD
BRANCH  25  26
ATOM      6  N   UNL     1     -17.292   3.927  22.124  0.00  0.00    -0.250 NA
ATOM     26  C   UNL     1     -17.004   4.782  21.117  0.00  0.00    +0.125 A 
ATOM     27  C   UNL     1     -17.623   4.758  19.878  0.00  0.00    +0.033 A 
ATOM     28  C   UNL     1     -18.602   3.796  19.658  0.00  0.00    +0.004 A 
ATOM     29  C   UNL     1     -18.249   3.006  21.873  0.00  0.00    +0.111 A 
ATOM     30  C   UNL     1     -18.927   2.898  20.670  0.00  0.00    +0.020 A 
ENDBRANCH  25  26
ENDBRANCH  14   4
BRANCH  10   1
ATOM      1  O   UNL     1     -13.687  10.896  17.981  0.00  0.00    -0.391 OA
ATOM     32  H   UNL     1     -14.338  10.634  18.654  0.00  0.00    +0.210 HD
ENDBRANCH  10   1
BRANCH  12  18
ATOM     18  C   UNL     1     -11.048  11.773  17.027  0.00  0.00    +0.077 C 
ATOM     21  C   UNL     1     -10.522  10.907  15.888  0.00  0.00    +0.017 C 
BRANCH  18  20
ATOM      2  O   UNL     1     -10.313  13.808  18.123  0.00  0.00    -0.276 OA
ATOM      5  N   UNL     1      -8.862  12.745  16.661  0.00  0.00    -0.312 N 
ATOM     20  C   UNL     1     -10.060  12.889  17.347  0.00  0.00    +0.216 C 
ATOM     33  H   UNL     1      -8.730  11.958  16.032  0.00  0.00    +0.149 HD
BRANCH   5  22
ATOM     22  C   UNL     1      -7.780  13.678  16.795  0.00  0.00    +0.073 C 
ATOM     23  C   UNL     1      -6.468  13.450  16.104  0.00  0.00    +0.024 C 
ATOM     24  C   UNL     1      -7.371  14.561  15.654  0.00  0.00    +0.024 C 
ENDBRANCH   5  22
ENDBRANCH  18  20
ENDBRANCH  12  18
TORSDOF 6
ENDMDL
MODEL 6
REMARK VINA RESULT:      -6.3     19.749     21.211
REMARK  Name = 45361606
REMARK  9 active torsions:
REMARK  status: ('A' for Active; 'I' for Inactive)
REMARK    1  A    between atoms: O_1  and  C_10
REMARK    2  A    between atoms: N_4  and  C_14
REMARK    3  A    between atoms: N_5  and  C_22
REMARK    4  A    between atoms: C_7  and  C_17
REMARK    5  A    between atoms: C_9  and  C_19
REMARK    6  A    between atoms: C_12  and  C_18
REMARK    7  A    between atoms: C_18  and  C_20
REMARK    8  A    between atoms: C_18  and  C_21
REMARK    9  A    between atoms: C_25  and  C_26
REMARK                            x       y       z     vdW  Elec       q    Type
REMARK                         _______ _______ _______ _____ _____    ______ ____
ROOT
ATOM      7  C   UNL     1      -4.940 -11.241  18.017  0.00  0.00    -0.027 C 
ATOM      8  C   UNL     1      -5.731 -12.246  17.115  0.00  0.00    +0.028 C 
ATOM      9  C   UNL     1      -6.531 -13.275  17.993  0.00  0.00    +0.012 C 
ATOM     10  C   UNL     1      -4.812 -12.869  16.025  0.00  0.00    +0.122 C 
ATOM     11  C   UNL     1      -4.258 -10.176  17.128  0.00  0.00    +0.007 C 
ATOM     12  C   UNL     1      -4.052 -11.799  15.207  0.00  0.00    +0.029 C 
ATOM     13  C   UNL     1      -5.934 -10.510  18.949  0.00  0.00    +0.009 C 
ATOM     14  C   UNL     1      -7.471 -12.527  18.978  0.00  0.00    +0.076 C 
ATOM     15  C   UNL     1      -3.327 -10.780  16.085  0.00  0.00    +0.007 C 
ATOM     16  C   UNL     1      -6.758 -11.459  19.807  0.00  0.00    +0.023 C 
ATOM     17  C   UNL     1      -3.856 -11.941  18.876  0.00  0.00    +0.011 C 
ATOM     19  C   UNL     1      -7.356 -14.277  17.169  0.00  0.00    +0.010 C 
ENDROOT
BRANCH  14   4
ATOM      3  O   UNL     1     -10.174 -12.331  19.929  0.00  0.00    -0.269 OA
ATOM      4  N   UNL     1      -8.138 -13.440  19.882  0.00  0.00    -0.307 N 
ATOM     25  C   UNL     1      -9.450 -13.258  20.284  0.00  0.00    +0.263 C 
ATOM     31  H   UNL     1      -7.600 -14.206  20.276  0.00  0.00    +0.149 HD
BRANCH  25  26
ATOM      6  N   UNL     1     -11.105 -13.916  21.898  0.00  0.00    -0.250 NA
ATOM     26  C   UNL     1      -9.980 -14.269  21.236  0.00  0.00    +0.125 A 
ATOM     27  C   UNL     1      -9.330 -15.481  21.401  0.00  0.00    +0.033 A 
ATOM     28  C   UNL     1      -9.868 -16.391  22.303  0.00  0.00    +0.004 A 
ATOM     29  C   UNL     1     -11.599 -14.827  22.767  0.00  0.00    +0.111 A 
ATOM     30  C   UNL     1     -11.024 -16.066  23.004  0.00  0.00    +0.020 A 
ENDBRANCH  25  26
ENDBRANCH  14   4
BRANCH  10   1
ATOM      1  O   UNL     1      -5.608 -13.606  15.095  0.00  0.00    -0.391 OA
ATOM     32  H   UNL     1      -5.219 -13.496  14.211  0.00  0.00    +0.210 HD
ENDBRANCH  10   1
BRANCH  12  18
ATOM     18  C   UNL     1      -3.056 -12.433  14.228  0.00  0.00    +0.077 C 
ATOM     21  C   UNL     1      -1.662 -11.859  14.454  0.00  0.00    +0.017 C 
BRANCH  18  20
ATOM      2  O   UNL     1      -4.303 -12.939  12.209  0.00  0.00    -0.276 OA
ATOM      5  N   UNL     1      -2.877 -11.111  12.209  0.00  0.00    -0.312 N 
ATOM     20  C   UNL     1      -3.496 -12.212  12.785  0.00  0.00    +0.216 C 
ATOM     33  H   UNL     1      -2.216 -10.561  12.749  0.00  0.00    +0.149 HD
BRANCH   5  22
ATOM     22  C   UNL     1      -3.127 -10.708  10.855  0.00  0.00    +0.073 C 
ATOM     23  C   UNL     1      -4.255  -9.778  10.516  0.00  0.00    +0.024 C 
ATOM     24  C   UNL     1      -2.834  -9.310  10.395  0.00  0.00    +0.024 C 
ENDBRANCH   5  22
ENDBRANCH  18  20
ENDBRANCH  12  18
TORSDOF 6
ENDMDL
MODEL 7
REMARK VINA RESULT:      -6.3     20.780     23.019
REMARK  Name = 45361606
REMARK  9 active torsions:
REMARK  status: ('A' for Active; 'I' for Inactive)
REMARK    1  A    between atoms: O_1  and  C_10
REMARK    2  A    between atoms: N_4  and  C_14
REMARK    3  A    between atoms: N_5  and  C_22
REMARK    4  A    between atoms: C_7  and  C_17
REMARK    5  A    between atoms: C_9  and  C_19
REMARK    6  A    between atoms: C_12  and  C_18
REMARK    7  A    between atoms: C_18  and  C_20
REMARK    8  A    between atoms: C_18  and  C_21
REMARK    9  A    between atoms: C_25  and  C_26
REMARK                            x       y       z     vdW  Elec       q    Type
REMARK                         _______ _______ _______ _____ _____    ______ ____
ROOT
ATOM      7  C   UNL     1      -3.169 -11.392  11.817  0.00  0.00    -0.027 C 
ATOM      8  C   UNL     1      -4.512 -10.912  12.460  0.00  0.00    +0.028 C 
ATOM      9  C   UNL     1      -5.290  -9.957  11.484  0.00  0.00    +0.012 C 
ATOM     10  C   UNL     1      -4.283 -10.358  13.896  0.00  0.00    +0.122 C 
ATOM     11  C   UNL     1      -2.486 -12.416  12.752  0.00  0.00    +0.007 C 
ATOM     12  C   UNL     1      -3.507 -11.346  14.797  0.00  0.00    +0.029 C 
ATOM     13  C   UNL     1      -3.478 -12.107  10.481  0.00  0.00    +0.009 C 
ATOM     14  C   UNL     1      -5.528 -10.659  10.118  0.00  0.00    +0.076 C 
ATOM     15  C   UNL     1      -2.224 -11.864  14.148  0.00  0.00    +0.007 C 
ATOM     16  C   UNL     1      -4.255 -11.239   9.502  0.00  0.00    +0.023 C 
ATOM     17  C   UNL     1      -2.185 -10.224  11.554  0.00  0.00    +0.011 C 
ATOM     19  C   UNL     1      -6.637  -9.468  12.043  0.00  0.00    +0.010 C 
ENDROOT
BRANCH  14   4
ATOM      3  O   UNL     1      -7.812 -11.221   8.471  0.00  0.00    -0.269 OA
ATOM      4  N   UNL     1      -6.139  -9.768   9.156  0.00  0.00    -0.307 N 
ATOM     25  C   UNL     1      -7.244 -10.133   8.406  0.00  0.00    +0.263 C 
ATOM     31  H   UNL     1      -5.702  -8.866   8.989  0.00  0.00    +0.149 HD
BRANCH  25  26
ATOM      6  N   UNL     1      -7.768  -9.502   6.146  0.00  0.00    -0.250 NA
ATOM     26  C   UNL     1      -7.735  -9.115   7.442  0.00  0.00    +0.125 A 
ATOM     27  C   UNL     1      -8.124  -7.862   7.887  0.00  0.00    +0.033 A 
ATOM     28  C   UNL     1      -8.577  -6.947   6.943  0.00  0.00    +0.004 A 
ATOM     29  C   UNL     1      -8.214  -8.586   5.258  0.00  0.00    +0.111 A 
ATOM     30  C   UNL     1      -8.626  -7.308   5.601  0.00  0.00    +0.020 A 
ENDBRANCH  25  26
ENDBRANCH  14   4
BRANCH  10   1
ATOM      1  O   UNL     1      -5.546 -10.133  14.527  0.00  0.00    -0.391 OA
ATOM     32  H   UNL     1      -6.234 -10.148  13.840  0.00  0.00    +0.210 HD
ENDBRANCH  10   1
BRANCH  12  18
ATOM     18  C   UNL     1      -3.178 -10.732  16.163  0.00  0.00    +0.077 C 
ATOM     21  C   UNL     1      -1.668 -10.690  16.369  0.00  0.00    +0.017 C 
BRANCH  18  20
ATOM      2  O   UNL     1      -3.430 -11.519  18.444  0.00  0.00    -0.276 OA
ATOM      5  N   UNL     1      -4.961 -12.218  16.850  0.00  0.00    -0.312 N 
ATOM     20  C   UNL     1      -3.847 -11.516  17.287  0.00  0.00    +0.216 C 
ATOM     33  H   UNL     1      -5.240 -12.167  15.874  0.00  0.00    +0.149 HD
BRANCH   5  22
ATOM     22  C   UNL     1      -5.751 -13.034  17.726  0.00  0.00    +0.073 C 
ATOM     23  C   UNL     1      -6.734 -12.423  18.682  0.00  0.00    +0.024 C 
ATOM     24  C   UNL     1      -7.224 -13.212  17.503  0.00  0.00    +0.024 C 
ENDBRANCH   5  22
ENDBRANCH  18  20
ENDBRANCH  12  18
TORSDOF 6
ENDMDL
MODEL 8
REMARK VINA RESULT:      -6.3     25.945     30.016
REMARK  Name = 45361606
REMARK  9 active torsions:
REMARK  status: ('A' for Active; 'I' for Inactive)
REMARK    1  A    between atoms: O_1  and  C_10
REMARK    2  A    between atoms: N_4  and  C_14
REMARK    3  A    between atoms: N_5  and  C_22
REMARK    4  A    between atoms: C_7  and  C_17
REMARK    5  A    between atoms: C_9  and  C_19
REMARK    6  A    between atoms: C_12  and  C_18
REMARK    7  A    between atoms: C_18  and  C_20
REMARK    8  A    between atoms: C_18  and  C_21
REMARK    9  A    between atoms: C_25  and  C_26
REMARK                            x       y       z     vdW  Elec       q    Type
REMARK                         _______ _______ _______ _____ _____    ______ ____
ROOT
ATOM      7  C   UNL     1      13.306   7.945  20.367  0.00  0.00    -0.027 C 
ATOM      8  C   UNL     1      14.233   9.173  20.651  0.00  0.00    +0.028 C 
ATOM      9  C   UNL     1      15.621   8.706  21.223  0.00  0.00    +0.012 C 
ATOM     10  C   UNL     1      13.494  10.255  21.491  0.00  0.00    +0.122 C 
ATOM     11  C   UNL     1      11.997   8.429  19.702  0.00  0.00    +0.007 C 
ATOM     12  C   UNL     1      12.136  10.659  20.874  0.00  0.00    +0.029 C 
ATOM     13  C   UNL     1      14.016   6.997  19.374  0.00  0.00    +0.009 C 
ATOM     14  C   UNL     1      16.291   7.695  20.251  0.00  0.00    +0.076 C 
ATOM     15  C   UNL     1      11.251   9.459  20.539  0.00  0.00    +0.007 C 
ATOM     16  C   UNL     1      15.380   6.531  19.862  0.00  0.00    +0.023 C 
ATOM     17  C   UNL     1      12.949   7.159  21.655  0.00  0.00    +0.011 C 
ATOM     19  C   UNL     1      16.594   9.864  21.499  0.00  0.00    +0.010 C 
ENDROOT
BRANCH  14   4
ATOM      3  O   UNL     1      18.087   5.863  18.961  0.00  0.00    -0.269 OA
ATOM      4  N   UNL     1      17.516   7.155  20.800  0.00  0.00    -0.307 N 
ATOM     25  C   UNL     1      18.318   6.274  20.096  0.00  0.00    +0.263 C 
ATOM     31  H   UNL     1      17.761   7.392  21.757  0.00  0.00    +0.149 HD
BRANCH  25  26
ATOM      6  N   UNL     1      19.837   6.446  21.951  0.00  0.00    -0.250 NA
ATOM     26  C   UNL     1      19.529   5.790  20.809  0.00  0.00    +0.125 A 
ATOM     27  C   UNL     1      20.264   4.732  20.300  0.00  0.00    +0.033 A 
ATOM     28  C   UNL     1      21.387   4.319  21.007  0.00  0.00    +0.004 A 
ATOM     29  C   UNL     1      20.935   6.017  22.611  0.00  0.00    +0.111 A 
ATOM     30  C   UNL     1      21.737   4.969  22.186  0.00  0.00    +0.020 A 
ENDBRANCH  25  26
ENDBRANCH  14   4
BRANCH  10   1
ATOM      1  O   UNL     1      14.289  11.441  21.545  0.00  0.00    -0.391 OA
ATOM     32  H   UNL     1      14.988  11.368  20.873  0.00  0.00    +0.210 HD
ENDBRANCH  10   1
BRANCH  12  18
ATOM     18  C   UNL     1      11.365  11.627  21.780  0.00  0.00    +0.077 C 
ATOM     21  C   UNL     1      11.780  13.065  21.486  0.00  0.00    +0.017 C 
BRANCH  18  20
ATOM      2  O   UNL     1      11.062  10.346  23.818  0.00  0.00    -0.276 OA
ATOM      5  N   UNL     1      12.465  12.190  23.861  0.00  0.00    -0.312 N 
ATOM     20  C   UNL     1      11.596  11.297  23.251  0.00  0.00    +0.216 C 
ATOM     33  H   UNL     1      12.864  12.955  23.325  0.00  0.00    +0.149 HD
BRANCH   5  22
ATOM     22  C   UNL     1      12.831  12.086  25.245  0.00  0.00    +0.073 C 
ATOM     23  C   UNL     1      14.244  11.792  25.655  0.00  0.00    +0.024 C 
ATOM     24  C   UNL     1      13.655  13.149  25.911  0.00  0.00    +0.024 C 
ENDBRANCH   5  22
ENDBRANCH  18  20
ENDBRANCH  12  18
TORSDOF 6
ENDMDL
MODEL 9
REMARK VINA RESULT:      -6.2      2.994     10.707
REMARK  Name = 45361606
REMARK  9 active torsions:
REMARK  status: ('A' for Active; 'I' for Inactive)
REMARK    1  A    between atoms: O_1  and  C_10
REMARK    2  A    between atoms: N_4  and  C_14
REMARK    3  A    between atoms: N_5  and  C_22
REMARK    4  A    between atoms: C_7  and  C_17
REMARK    5  A    between atoms: C_9  and  C_19
REMARK    6  A    between atoms: C_12  and  C_18
REMARK    7  A    between atoms: C_18  and  C_20
REMARK    8  A    between atoms: C_18  and  C_21
REMARK    9  A    between atoms: C_25  and  C_26
REMARK                            x       y       z     vdW  Elec       q    Type
REMARK                         _______ _______ _______ _____ _____    ______ ____
ROOT
ATOM      7  C   UNL     1     -11.648   8.145  19.026  0.00  0.00    -0.027 C 
ATOM      8  C   UNL     1     -13.014   7.907  18.300  0.00  0.00    +0.028 C 
ATOM      9  C   UNL     1     -13.151   8.843  17.045  0.00  0.00    +0.012 C 
ATOM     10  C   UNL     1     -14.202   7.955  19.303  0.00  0.00    +0.122 C 
ATOM     11  C   UNL     1     -11.496   7.132  20.185  0.00  0.00    +0.007 C 
ATOM     12  C   UNL     1     -13.996   7.016  20.514  0.00  0.00    +0.029 C 
ATOM     13  C   UNL     1     -10.496   7.894  18.027  0.00  0.00    +0.009 C 
ATOM     14  C   UNL     1     -11.947   8.636  16.085  0.00  0.00    +0.076 C 
ATOM     15  C   UNL     1     -12.638   7.203  21.190  0.00  0.00    +0.007 C 
ATOM     16  C   UNL     1     -10.589   8.755  16.776  0.00  0.00    +0.023 C 
ATOM     17  C   UNL     1     -11.523   9.579  19.600  0.00  0.00    +0.011 C 
ATOM     19  C   UNL     1     -14.461   8.641  16.266  0.00  0.00    +0.010 C 
ENDROOT
BRANCH  14   4
ATOM      3  O   UNL     1     -11.872   7.975  13.291  0.00  0.00    -0.269 OA
ATOM      4  N   UNL     1     -11.980   9.565  14.975  0.00  0.00    -0.307 N 
ATOM     25  C   UNL     1     -11.939   9.146  13.657  0.00  0.00    +0.263 C 
ATOM     31  H   UNL     1     -11.975  10.560  15.180  0.00  0.00    +0.149 HD
BRANCH  25  26
ATOM      6  N   UNL     1     -11.738   9.828  11.360  0.00  0.00    -0.250 NA
ATOM     26  C   UNL     1     -11.953  10.226  12.635  0.00  0.00    +0.125 A 
ATOM     27  C   UNL     1     -12.176  11.540  13.011  0.00  0.00    +0.033 A 
ATOM     28  C   UNL     1     -12.181  12.510  12.015  0.00  0.00    +0.004 A 
ATOM     29  C   UNL     1     -11.750  10.799  10.420  0.00  0.00    +0.111 A 
ATOM     30  C   UNL     1     -11.964  12.141  10.692  0.00  0.00    +0.020 A 
ENDBRANCH  25  26
ENDBRANCH  14   4
BRANCH  10   1
ATOM      1  O   UNL     1     -15.397   7.523  18.649  0.00  0.00    -0.391 OA
ATOM     32  H   UNL     1     -15.142   7.044  17.841  0.00  0.00    +0.210 HD
ENDBRANCH  10   1
BRANCH  12  18
ATOM     18  C   UNL     1     -15.112   7.174  21.554  0.00  0.00    +0.077 C 
ATOM     21  C   UNL     1     -14.592   7.931  22.770  0.00  0.00    +0.017 C 
BRANCH  18  20
ATOM      2  O   UNL     1     -15.855   4.896  21.175  0.00  0.00    -0.276 OA
ATOM      5  N   UNL     1     -15.930   5.747  23.329  0.00  0.00    -0.312 N 
ATOM     20  C   UNL     1     -15.666   5.815  21.969  0.00  0.00    +0.216 C 
ATOM     33  H   UNL     1     -15.750   6.553  23.921  0.00  0.00    +0.149 HD
BRANCH   5  22
ATOM     22  C   UNL     1     -16.463   4.570  23.954  0.00  0.00    +0.073 C 
ATOM     23  C   UNL     1     -15.563   3.558  24.599  0.00  0.00    +0.024 C 
ATOM     24  C   UNL     1     -16.459   4.414  25.446  0.00  0.00    +0.024 C 
ENDBRANCH   5  22
ENDBRANCH  18  20
ENDBRANCH  12  18
TORSDOF 6
ENDMDL
MODEL 10
REMARK VINA RESULT:      -6.0     19.963     20.996
REMARK  Name = 45361606
REMARK  9 active torsions:
REMARK  status: ('A' for Active; 'I' for Inactive)
REMARK    1  A    between atoms: O_1  and  C_10
REMARK    2  A    between atoms: N_4  and  C_14
REMARK    3  A    between atoms: N_5  and  C_22
REMARK    4  A    between atoms: C_7  and  C_17
REMARK    5  A    between atoms: C_9  and  C_19
REMARK    6  A    between atoms: C_12  and  C_18
REMARK    7  A    between atoms: C_18  and  C_20
REMARK    8  A    between atoms: C_18  and  C_21
REMARK    9  A    between atoms: C_25  and  C_26
REMARK                            x       y       z     vdW  Elec       q    Type
REMARK                         _______ _______ _______ _____ _____    ______ ____
ROOT
ATOM      7  C   UNL     1      -4.290 -10.645  11.054  0.00  0.00    -0.027 C 
ATOM      8  C   UNL     1      -5.752 -10.124  11.256  0.00  0.00    +0.028 C 
ATOM      9  C   UNL     1      -6.385 -10.726  12.562  0.00  0.00    +0.012 C 
ATOM     10  C   UNL     1      -6.597 -10.300   9.961  0.00  0.00    +0.122 C 
ATOM     11  C   UNL     1      -3.658  -9.948   9.827  0.00  0.00    +0.007 C 
ATOM     12  C   UNL     1      -5.910  -9.691   8.717  0.00  0.00    +0.029 C 
ATOM     13  C   UNL     1      -3.446 -10.270  12.294  0.00  0.00    +0.009 C 
ATOM     14  C   UNL     1      -5.488 -10.408  13.791  0.00  0.00    +0.076 C 
ATOM     15  C   UNL     1      -4.463 -10.151   8.549  0.00  0.00    +0.007 C 
ATOM     16  C   UNL     1      -4.025 -10.805  13.596  0.00  0.00    +0.023 C 
ATOM     17  C   UNL     1      -4.230 -12.179  10.841  0.00  0.00    +0.011 C 
ATOM     19  C   UNL     1      -7.815 -10.233  12.838  0.00  0.00    +0.010 C 
ENDROOT
BRANCH  14   4
ATOM      3  O   UNL     1      -5.735  -9.210  16.390  0.00  0.00    -0.269 OA
ATOM      4  N   UNL     1      -5.980 -11.046  14.994  0.00  0.00    -0.307 N 
ATOM     25  C   UNL     1      -6.061 -10.381  16.205  0.00  0.00    +0.263 C 
ATOM     31  H   UNL     1      -6.219 -12.032  14.953  0.00  0.00    +0.149 HD
BRANCH  25  26
ATOM      6  N   UNL     1      -6.368 -10.642  18.575  0.00  0.00    -0.250 NA
ATOM     26  C   UNL     1      -6.562 -11.184  17.351  0.00  0.00    +0.125 A 
ATOM     27  C   UNL     1      -7.181 -12.403  17.131  0.00  0.00    +0.033 A 
ATOM     28  C   UNL     1      -7.632 -13.113  18.238  0.00  0.00    +0.004 A 
ATOM     29  C   UNL     1      -6.819 -11.361  19.626  0.00  0.00    +0.111 A 
ATOM     30  C   UNL     1      -7.451 -12.589  19.514  0.00  0.00    +0.020 A 
ENDBRANCH  25  26
ENDBRANCH  14   4
BRANCH  10   1
ATOM      1  O   UNL     1      -7.846  -9.623  10.112  0.00  0.00    -0.391 OA
ATOM     32  H   UNL     1      -7.869  -8.887   9.477  0.00  0.00    +0.210 HD
ENDBRANCH  10   1
BRANCH  12  18
ATOM     18  C   UNL     1      -6.694  -9.989   7.432  0.00  0.00    +0.077 C 
ATOM     21  C   UNL     1      -5.800 -10.707   6.427  0.00  0.00    +0.017 C 
BRANCH  18  20
ATOM      2  O   UNL     1      -7.189  -8.446   5.626  0.00  0.00    -0.276 OA
ATOM      5  N   UNL     1      -7.826  -7.879   7.781  0.00  0.00    -0.312 N 
ATOM     20  C   UNL     1      -7.253  -8.706   6.826  0.00  0.00    +0.216 C 
ATOM     33  H   UNL     1      -7.836  -8.162   8.757  0.00  0.00    +0.149 HD
BRANCH   5  22
ATOM     22  C   UNL     1      -8.413  -6.611   7.452  0.00  0.00    +0.073 C 
ATOM     23  C   UNL     1      -9.879  -6.488   7.153  0.00  0.00    +0.024 C 
ATOM     24  C   UNL     1      -9.318  -5.901   8.415  0.00  0.00    +0.024 C 
ENDBRANCH   5  22
ENDBRANCH  18  20
ENDBRANCH  12  18
TORSDOF 6
ENDMDL
