REMARK  Name = 40777374
REMARK  7 active torsions:
REMARK  status: ('A' for Active; 'I' for Inactive)
REMARK    1  A    between atoms: N_5  and  C_18
REMARK    2  A    between atoms: C_7  and  C_13
REMARK    3  A    between atoms: C_8  and  C_12
REMARK    4  A    between atoms: C_12  and  C_14
REMARK    5  A    between atoms: C_13  and  C_15
REMARK    6  A    between atoms: C_17  and  C_19
REMARK    7  A    between atoms: C_18  and  C_20
REMARK                            x       y       z     vdW  Elec       q    Type
REMARK                         _______ _______ _______ _____ _____    ______ ____
ROOT
ATOM      4  N   UNL     1       5.717   0.336  -0.309  0.00  0.00    -0.316 NA
ATOM      7  C   UNL     1       2.793   0.015  -0.541  0.00  0.00    +0.004 C 
ATOM      8  C   UNL     1       3.447   1.159   0.270  0.00  0.00    +0.012 C 
ATOM      9  C   UNL     1       3.781  -0.465  -1.617  0.00  0.00    +0.019 C 
ATOM     10  C   UNL     1       4.843   0.766   0.783  0.00  0.00    +0.085 C 
ATOM     11  C   UNL     1       5.155  -0.799  -1.039  0.00  0.00    +0.081 C 
ATOM     29  H   UNL     1       6.627   0.076   0.070  0.00  0.00    +0.122 HD
ENDROOT
BRANCH   8  12
ATOM     12  C   UNL     1       2.571   1.654   1.422  0.00  0.00    +0.064 C 
BRANCH  12  14
ATOM      2  O   UNL     1      -0.251   3.511   0.177  0.00  0.00    -0.354 OA
ATOM      6  N   UNL     1       1.076   3.412   0.579  0.00  0.00    -0.083 NA
ATOM     14  C   UNL     1       1.237   2.133   0.928  0.00  0.00    +0.085 A 
ATOM     16  C   UNL     1       0.058   1.384   0.771  0.00  0.00    +0.076 A 
ATOM     17  C   UNL     1      -0.847   2.297   0.296  0.00  0.00    +0.167 A 
BRANCH  17  19
ATOM     19  C   UNL     1      -2.228   2.243  -0.085  0.00  0.00    +0.020 A 
ATOM     21  C   UNL     1      -2.928   1.039   0.001  0.00  0.00    +0.011 A 
ATOM     22  C   UNL     1      -2.871   3.393  -0.541  0.00  0.00    +0.011 A 
ATOM     24  C   UNL     1      -4.272   0.987  -0.369  0.00  0.00    +0.001 A 
ATOM     25  C   UNL     1      -4.215   3.340  -0.912  0.00  0.00    +0.001 A 
ATOM     28  C   UNL     1      -4.915   2.137  -0.826  0.00  0.00    +0.000 A 
ENDBRANCH  17  19
ENDBRANCH  12  14
ENDBRANCH   8  12
BRANCH   7  13
ATOM     13  C   UNL     1       2.307  -1.159   0.317  0.00  0.00    +0.099 C 
BRANCH  13  15
ATOM      1  O   UNL     1       0.837  -1.736  -1.516  0.00  0.00    -0.276 OA
ATOM      5  N   UNL     1       0.849  -3.057   0.397  0.00  0.00    -0.308 N 
ATOM     15  C   UNL     1       1.258  -1.990  -0.391  0.00  0.00    +0.214 C 
ATOM     30  H   UNL     1       1.248  -3.171   1.324  0.00  0.00    +0.149 HD
BRANCH   5  18
ATOM     18  C   UNL     1      -0.145  -4.015  -0.028  0.00  0.00    +0.178 C 
BRANCH  18  20
ATOM      3  O   UNL     1      -2.526  -3.983  -0.518  0.00  0.00    -0.466 OA
ATOM     20  C   UNL     1      -1.537  -3.571   0.318  0.00  0.00    +0.122 A 
ATOM     23  C   UNL     1      -2.054  -2.808   1.339  0.00  0.00    +0.046 A 
ATOM     26  C   UNL     1      -3.450  -2.746   1.116  0.00  0.00    +0.041 A 
ATOM     27  C   UNL     1      -3.687  -3.477  -0.026  0.00  0.00    +0.195 A 
ENDBRANCH  18  20
ENDBRANCH   5  18
ENDBRANCH  13  15
ENDBRANCH   7  13
TORSDOF 7
