REMARK  Name = 75537098
REMARK  3 active torsions:
REMARK  status: ('A' for Active; 'I' for Inactive)
REMARK    1  A    between atoms: N_3  and  C_11
REMARK    2  A    between atoms: N_4  and  C_12
REMARK    3  A    between atoms: C_11  and  C_13
REMARK                            x       y       z     vdW  Elec       q    Type
REMARK                         _______ _______ _______ _____ _____    ______ ____
ROOT
ATOM      1  O   UNL     1       4.065   1.930  -0.170  0.00  0.00    -0.252 OA
ATOM      2  N   UNL     1       2.174   0.541  -0.292  0.00  0.00    -0.278 N 
ATOM      3  N   UNL     1      -0.421  -0.411   0.225  0.00  0.00    -0.295 NA
ATOM      4  N   UNL     1       4.194  -0.425  -0.111  0.00  0.00    -0.287 N 
ATOM      5  C   UNL     1       1.910  -0.878  -0.410  0.00  0.00    +0.109 C 
ATOM      6  C   UNL     1       0.744  -1.278   0.492  0.00  0.00    +0.109 C 
ATOM      7  C   UNL     1       3.248  -1.526  -0.057  0.00  0.00    +0.132 C 
ATOM      8  C   UNL     1       1.074   1.477  -0.390  0.00  0.00    +0.125 C 
ATOM      9  C   UNL     1      -0.093   1.006   0.482  0.00  0.00    +0.104 C 
ATOM     10  C   UNL     1       3.543   0.823  -0.193  0.00  0.00    +0.305 C 
ATOM     12  C   UNL     1       5.616  -0.627   0.058  0.00  0.00    +0.133 C 
ENDROOT
BRANCH   3  11
ATOM     11  C   UNL     1      -1.562  -0.825   1.040  0.00  0.00    +0.119 C 
BRANCH  11  13
ATOM     13  C   UNL     1      -2.870  -0.380   0.442  0.00  0.00    -0.033 A 
ATOM     14  C   UNL     1      -3.408   0.860   0.785  0.00  0.00    +0.005 A 
ATOM     15  C   UNL     1      -3.544  -1.208  -0.456  0.00  0.00    +0.005 A 
ATOM     16  C   UNL     1      -4.620   1.273   0.231  0.00  0.00    +0.000 A 
ATOM     17  C   UNL     1      -4.756  -0.796  -1.010  0.00  0.00    +0.000 A 
ATOM     18  C   UNL     1      -5.294   0.444  -0.667  0.00  0.00    +0.000 A 
ENDBRANCH  11  13
ENDBRANCH   3  11
TORSDOF 2
