MODEL 1
REMARK VINA RESULT:      -7.1      0.000      0.000
REMARK  Name = 7049300
REMARK  11 active torsions:
REMARK  status: ('A' for Active; 'I' for Inactive)
REMARK    1  A    between atoms: O_3  and  C_12
REMARK    2  A    between atoms: O_4  and  C_13
REMARK    3  A    between atoms: N_8  and  C_14
REMARK    4  A    between atoms: N_9  and  C_18
REMARK    5  A    between atoms: N_10  and  C_26
REMARK    6  A    between atoms: C_16  and  C_19
REMARK    7  A    between atoms: C_18  and  C_20
REMARK    8  A    between atoms: C_18  and  C_25
REMARK    9  A    between atoms: C_20  and  C_21
REMARK   10  A    between atoms: C_21  and  C_22
REMARK   11  A    between atoms: C_21  and  C_23
REMARK                            x       y       z     vdW  Elec       q    Type
REMARK                         _______ _______ _______ _____ _____    ______ ____
ROOT
ATOM     12  C   UNL     1      12.624   6.878  20.418  0.00  0.00    +0.167 C 
ATOM     13  C   UNL     1      11.281   7.569  20.154  0.00  0.00    +0.149 C 
ATOM     14  C   UNL     1      13.718   7.895  20.795  0.00  0.00    +0.129 C 
ATOM     15  C   UNL     1      10.824   8.422  21.350  0.00  0.00    +0.074 C 
ATOM     16  C   UNL     1      11.950   9.151  22.026  0.00  0.00    +0.015 C 
ATOM     17  C   UNL     1      13.250   8.932  21.781  0.00  0.00    +0.006 C 
ENDROOT
BRANCH  14   8
ATOM      6  O   UNL     1      16.446   8.491  20.156  0.00  0.00    -0.252 OA
ATOM      8  N   UNL     1      14.891   7.243  21.326  0.00  0.00    -0.290 N 
ATOM     10  N   UNL     1      17.122   6.796  21.632  0.00  0.00    -0.267 N 
ATOM     24  C   UNL     1      16.194   7.596  20.960  0.00  0.00    +0.304 C 
ATOM     32  H   UNL     1      14.765   6.456  21.956  0.00  0.00    +0.151 HD
ATOM     36  H   UNL     1      16.748   6.097  22.269  0.00  0.00    +0.156 HD
BRANCH  10  26
ATOM      1  F   UNL     1      18.508   5.252  19.771  0.00  0.00    -0.203 F 
ATOM      2  F   UNL     1      22.651   6.970  21.277  0.00  0.00    -0.205 F 
ATOM     26  C   UNL     1      18.533   6.837  21.540  0.00  0.00    +0.070 A 
ATOM     27  C   UNL     1      19.197   6.053  20.597  0.00  0.00    +0.147 A 
ATOM     28  C   UNL     1      19.260   7.666  22.394  0.00  0.00    +0.029 A 
ATOM     29  C   UNL     1      20.588   6.097  20.508  0.00  0.00    +0.078 A 
ATOM     30  C   UNL     1      20.651   7.710  22.306  0.00  0.00    +0.040 A 
ATOM     31  C   UNL     1      21.315   6.926  21.363  0.00  0.00    +0.126 A 
ENDBRANCH  10  26
ENDBRANCH  14   8
BRANCH  16  19
ATOM      5  O   UNL     1      10.448  10.372  23.344  0.00  0.00    -0.271 OA
ATOM      9  N   UNL     1      12.719  10.886  23.455  0.00  0.00    -0.300 N 
ATOM     19  C   UNL     1      11.611  10.189  23.005  0.00  0.00    +0.241 C 
ATOM     33  H   UNL     1      13.645  10.596  23.151  0.00  0.00    +0.150 HD
BRANCH   9  18
ATOM     18  C   UNL     1      12.636  11.953  24.417  0.00  0.00    +0.159 C 
BRANCH  18  25
ATOM      7  O   UNL     1      13.795  12.207  26.539  0.00  0.00    -0.274 OA
ATOM     11  N   UNL     1      14.814  11.005  24.869  0.00  0.00    -0.328 N 
ATOM     25  C   UNL     1      13.791  11.766  25.392  0.00  0.00    +0.231 C 
ATOM     37  H   UNL     1      15.639  10.792  25.420  0.00  0.00    +0.145 HD
ATOM     38  H   UNL     1      14.787  10.626  23.927  0.00  0.00    +0.145 HD
ENDBRANCH  18  25
BRANCH  18  20
ATOM     20  C   UNL     1      12.714  13.336  23.759  0.00  0.00    +0.034 C 
BRANCH  20  21
ATOM     21  C   UNL     1      11.363  14.069  23.631  0.00  0.00    -0.015 C 
ATOM     22  C   UNL     1      10.443  13.664  24.785  0.00  0.00    +0.007 C 
ATOM     23  C   UNL     1      10.671  13.787  22.297  0.00  0.00    +0.007 C 
ENDBRANCH  20  21
ENDBRANCH  18  20
ENDBRANCH   9  18
ENDBRANCH  16  19
BRANCH  12   3
ATOM      3  O   UNL     1      12.456   5.937  21.480  0.00  0.00    -0.387 OA
ATOM     34  H   UNL     1      11.566   6.068  21.848  0.00  0.00    +0.210 HD
ENDBRANCH  12   3
BRANCH  13   4
ATOM      4  O   UNL     1      11.365   8.377  18.981  0.00  0.00    -0.389 OA
ATOM     35  H   UNL     1      12.226   8.199  18.564  0.00  0.00    +0.210 HD
ENDBRANCH  13   4
TORSDOF 9
ENDMDL
MODEL 2
REMARK VINA RESULT:      -6.8      4.619     11.154
REMARK  Name = 7049300
REMARK  11 active torsions:
REMARK  status: ('A' for Active; 'I' for Inactive)
REMARK    1  A    between atoms: O_3  and  C_12
REMARK    2  A    between atoms: O_4  and  C_13
REMARK    3  A    between atoms: N_8  and  C_14
REMARK    4  A    between atoms: N_9  and  C_18
REMARK    5  A    between atoms: N_10  and  C_26
REMARK    6  A    between atoms: C_16  and  C_19
REMARK    7  A    between atoms: C_18  and  C_20
REMARK    8  A    between atoms: C_18  and  C_25
REMARK    9  A    between atoms: C_20  and  C_21
REMARK   10  A    between atoms: C_21  and  C_22
REMARK   11  A    between atoms: C_21  and  C_23
REMARK                            x       y       z     vdW  Elec       q    Type
REMARK                         _______ _______ _______ _____ _____    ______ ____
ROOT
ATOM     12  C   UNL     1      20.064   7.818  23.066  0.00  0.00    +0.167 C 
ATOM     13  C   UNL     1      21.594   7.875  22.986  0.00  0.00    +0.149 C 
ATOM     14  C   UNL     1      19.458   7.150  21.817  0.00  0.00    +0.129 C 
ATOM     15  C   UNL     1      22.216   6.485  22.773  0.00  0.00    +0.074 C 
ATOM     16  C   UNL     1      21.425   5.616  21.836  0.00  0.00    +0.015 C 
ATOM     17  C   UNL     1      20.192   5.905  21.393  0.00  0.00    +0.006 C 
ENDROOT
BRANCH  14   8
ATOM      6  O   UNL     1      17.227   8.299  20.436  0.00  0.00    -0.252 OA
ATOM      8  N   UNL     1      18.065   6.826  22.009  0.00  0.00    -0.290 N 
ATOM     10  N   UNL     1      15.794   6.925  21.688  0.00  0.00    -0.267 N 
ATOM     24  C   UNL     1      17.032   7.437  21.290  0.00  0.00    +0.304 C 
ATOM     32  H   UNL     1      17.817   6.161  22.736  0.00  0.00    +0.151 HD
ATOM     36  H   UNL     1      15.804   6.210  22.411  0.00  0.00    +0.156 HD
BRANCH  10  26
ATOM      1  F   UNL     1      14.969   6.255  19.111  0.00  0.00    -0.203 F 
ATOM      2  F   UNL     1      10.765   8.310  19.811  0.00  0.00    -0.205 F 
ATOM     26  C   UNL     1      14.511   7.278  21.205  0.00  0.00    +0.070 A 
ATOM     27  C   UNL     1      14.128   6.928  19.912  0.00  0.00    +0.147 A 
ATOM     28  C   UNL     1      13.630   7.977  22.029  0.00  0.00    +0.029 A 
ATOM     29  C   UNL     1      12.863   7.276  19.440  0.00  0.00    +0.078 A 
ATOM     30  C   UNL     1      12.364   8.327  21.557  0.00  0.00    +0.040 A 
ATOM     31  C   UNL     1      11.981   7.976  20.264  0.00  0.00    +0.126 A 
ENDBRANCH  10  26
ENDBRANCH  14   8
BRANCH  16  19
ATOM      5  O   UNL     1      21.352   3.423  21.018  0.00  0.00    -0.271 OA
ATOM      9  N   UNL     1      23.427   4.439  21.339  0.00  0.00    -0.300 N 
ATOM     19  C   UNL     1      22.044   4.377  21.355  0.00  0.00    +0.241 C 
ATOM     33  H   UNL     1      23.887   5.313  21.577  0.00  0.00    +0.150 HD
BRANCH   9  18
ATOM     18  C   UNL     1      24.255   3.343  20.908  0.00  0.00    +0.159 C 
BRANCH  18  25
ATOM      7  O   UNL     1      25.689   4.754  19.542  0.00  0.00    -0.274 OA
ATOM     11  N   UNL     1      24.674   2.943  18.561  0.00  0.00    -0.328 N 
ATOM     25  C   UNL     1      24.941   3.782  19.621  0.00  0.00    +0.231 C 
ATOM     37  H   UNL     1      25.081   3.113  17.647  0.00  0.00    +0.145 HD
ATOM     38  H   UNL     1      24.072   2.129  18.645  0.00  0.00    +0.145 HD
ENDBRANCH  18  25
BRANCH  18  20
ATOM     20  C   UNL     1      25.300   2.955  21.961  0.00  0.00    +0.034 C 
BRANCH  20  21
ATOM     21  C   UNL     1      25.025   1.619  22.683  0.00  0.00    -0.015 C 
ATOM     22  C   UNL     1      25.015   0.475  21.667  0.00  0.00    +0.007 C 
ATOM     23  C   UNL     1      23.707   1.635  23.456  0.00  0.00    +0.007 C 
ENDBRANCH  20  21
ENDBRANCH  18  20
ENDBRANCH   9  18
ENDBRANCH  16  19
BRANCH  12   3
ATOM      3  O   UNL     1      19.692   7.081  24.233  0.00  0.00    -0.387 OA
ATOM     34  H   UNL     1      19.413   6.195  23.943  0.00  0.00    +0.210 HD
ENDBRANCH  12   3
BRANCH  13   4
ATOM      4  O   UNL     1      21.999   8.757  21.940  0.00  0.00    -0.389 OA
ATOM     35  H   UNL     1      21.277   9.393  21.797  0.00  0.00    +0.210 HD
ENDBRANCH  13   4
TORSDOF 9
ENDMDL
MODEL 3
REMARK VINA RESULT:      -6.6      1.353      2.005
REMARK  Name = 7049300
REMARK  11 active torsions:
REMARK  status: ('A' for Active; 'I' for Inactive)
REMARK    1  A    between atoms: O_3  and  C_12
REMARK    2  A    between atoms: O_4  and  C_13
REMARK    3  A    between atoms: N_8  and  C_14
REMARK    4  A    between atoms: N_9  and  C_18
REMARK    5  A    between atoms: N_10  and  C_26
REMARK    6  A    between atoms: C_16  and  C_19
REMARK    7  A    between atoms: C_18  and  C_20
REMARK    8  A    between atoms: C_18  and  C_25
REMARK    9  A    between atoms: C_20  and  C_21
REMARK   10  A    between atoms: C_21  and  C_22
REMARK   11  A    between atoms: C_21  and  C_23
REMARK                            x       y       z     vdW  Elec       q    Type
REMARK                         _______ _______ _______ _____ _____    ______ ____
ROOT
ATOM     12  C   UNL     1      12.720   6.856  20.355  0.00  0.00    +0.167 C 
ATOM     13  C   UNL     1      11.429   7.563  19.925  0.00  0.00    +0.149 C 
ATOM     14  C   UNL     1      13.888   7.850  20.497  0.00  0.00    +0.129 C 
ATOM     15  C   UNL     1      11.044   8.701  20.885  0.00  0.00    +0.074 C 
ATOM     16  C   UNL     1      12.225   9.484  21.384  0.00  0.00    +0.015 C 
ATOM     17  C   UNL     1      13.504   9.120  21.210  0.00  0.00    +0.006 C 
ENDROOT
BRANCH  14   8
ATOM      6  O   UNL     1      16.654   8.156  19.820  0.00  0.00    -0.252 OA
ATOM      8  N   UNL     1      15.013   7.256  21.178  0.00  0.00    -0.290 N 
ATOM     10  N   UNL     1      17.210   6.760  21.623  0.00  0.00    -0.267 N 
ATOM     24  C   UNL     1      16.340   7.456  20.781  0.00  0.00    +0.304 C 
ATOM     32  H   UNL     1      14.834   6.621  21.950  0.00  0.00    +0.151 HD
ATOM     36  H   UNL     1      16.787   6.225  22.378  0.00  0.00    +0.156 HD
BRANCH  10  26
ATOM      1  F   UNL     1      18.525   5.253  19.681  0.00  0.00    -0.203 F 
ATOM      2  F   UNL     1      22.745   6.555  21.381  0.00  0.00    -0.205 F 
ATOM     26  C   UNL     1      18.623   6.704  21.559  0.00  0.00    +0.070 A 
ATOM     27  C   UNL     1      19.251   5.942  20.575  0.00  0.00    +0.147 A 
ATOM     28  C   UNL     1      19.386   7.416  22.484  0.00  0.00    +0.029 A 
ATOM     29  C   UNL     1      20.642   5.890  20.515  0.00  0.00    +0.078 A 
ATOM     30  C   UNL     1      20.779   7.365  22.424  0.00  0.00    +0.040 A 
ATOM     31  C   UNL     1      21.407   6.602  21.440  0.00  0.00    +0.126 A 
ENDBRANCH  10  26
ENDBRANCH  14   8
BRANCH  16  19
ATOM      5  O   UNL     1      11.310  11.632  21.565  0.00  0.00    -0.271 OA
ATOM      9  N   UNL     1      12.545  10.778  23.350  0.00  0.00    -0.300 N 
ATOM     19  C   UNL     1      11.969  10.743  22.091  0.00  0.00    +0.241 C 
ATOM     33  H   UNL     1      13.012   9.949  23.706  0.00  0.00    +0.150 HD
BRANCH   9  18
ATOM     18  C   UNL     1      12.432  11.911  24.231  0.00  0.00    +0.159 C 
BRANCH  18  25
ATOM      7  O   UNL     1      10.168  12.631  24.746  0.00  0.00    -0.274 OA
ATOM     11  N   UNL     1      10.943  10.687  25.691  0.00  0.00    -0.328 N 
ATOM     25  C   UNL     1      11.073  11.815  24.910  0.00  0.00    +0.231 C 
ATOM     37  H   UNL     1      10.081  10.495  26.189  0.00  0.00    +0.145 HD
ATOM     38  H   UNL     1      11.691  10.009  25.800  0.00  0.00    +0.145 HD
ENDBRANCH  18  25
BRANCH  18  20
ATOM     20  C   UNL     1      13.550  11.943  25.281  0.00  0.00    +0.034 C 
BRANCH  20  21
ATOM     21  C   UNL     1      14.954  12.257  24.723  0.00  0.00    -0.015 C 
ATOM     22  C   UNL     1      15.903  12.597  25.874  0.00  0.00    +0.007 C 
ATOM     23  C   UNL     1      14.936  13.404  23.713  0.00  0.00    +0.007 C 
ENDBRANCH  20  21
ENDBRANCH  18  20
ENDBRANCH   9  18
ENDBRANCH  16  19
BRANCH  12   3
ATOM      3  O   UNL     1      12.491   6.202  21.605  0.00  0.00    -0.387 OA
ATOM     34  H   UNL     1      11.762   6.668  22.050  0.00  0.00    +0.210 HD
ENDBRANCH  12   3
BRANCH  13   4
ATOM      4  O   UNL     1      11.564   8.067  18.597  0.00  0.00    -0.389 OA
ATOM     35  H   UNL     1      12.371   8.610  18.570  0.00  0.00    +0.210 HD
ENDBRANCH  13   4
TORSDOF 9
ENDMDL
MODEL 4
REMARK VINA RESULT:      -6.5     27.698     30.741
REMARK  Name = 7049300
REMARK  11 active torsions:
REMARK  status: ('A' for Active; 'I' for Inactive)
REMARK    1  A    between atoms: O_3  and  C_12
REMARK    2  A    between atoms: O_4  and  C_13
REMARK    3  A    between atoms: N_8  and  C_14
REMARK    4  A    between atoms: N_9  and  C_18
REMARK    5  A    between atoms: N_10  and  C_26
REMARK    6  A    between atoms: C_16  and  C_19
REMARK    7  A    between atoms: C_18  and  C_20
REMARK    8  A    between atoms: C_18  and  C_25
REMARK    9  A    between atoms: C_20  and  C_21
REMARK   10  A    between atoms: C_21  and  C_22
REMARK   11  A    between atoms: C_21  and  C_23
REMARK                            x       y       z     vdW  Elec       q    Type
REMARK                         _______ _______ _______ _____ _____    ______ ____
ROOT
ATOM     12  C   UNL     1      -6.853 -11.046  17.681  0.00  0.00    +0.167 C 
ATOM     13  C   UNL     1      -5.649 -11.640  18.423  0.00  0.00    +0.149 C 
ATOM     14  C   UNL     1      -6.460  -9.787  16.886  0.00  0.00    +0.129 C 
ATOM     15  C   UNL     1      -4.481 -11.954  17.473  0.00  0.00    +0.074 C 
ATOM     16  C   UNL     1      -4.294 -10.921  16.398  0.00  0.00    +0.015 C 
ATOM     17  C   UNL     1      -5.168  -9.940  16.129  0.00  0.00    +0.006 C 
ENDROOT
BRANCH  14   8
ATOM      6  O   UNL     1      -8.963  -8.557  17.542  0.00  0.00    -0.252 OA
ATOM      8  N   UNL     1      -7.498  -9.397  15.962  0.00  0.00    -0.290 N 
ATOM     10  N   UNL     1      -9.505  -8.533  15.258  0.00  0.00    -0.267 N 
ATOM     24  C   UNL     1      -8.696  -8.798  16.366  0.00  0.00    +0.304 C 
ATOM     32  H   UNL     1      -7.377  -9.612  14.976  0.00  0.00    +0.151 HD
ATOM     36  H   UNL     1      -9.136  -8.794  14.347  0.00  0.00    +0.156 HD
BRANCH  10  26
ATOM      1  F   UNL     1      -9.833  -5.770  15.425  0.00  0.00    -0.203 F 
ATOM      2  F   UNL     1     -14.538  -6.210  15.186  0.00  0.00    -0.205 F 
ATOM     26  C   UNL     1     -10.788  -7.936  15.241  0.00  0.00    +0.070 A 
ATOM     27  C   UNL     1     -10.919  -6.551  15.326  0.00  0.00    +0.147 A 
ATOM     28  C   UNL     1     -11.924  -8.740  15.138  0.00  0.00    +0.029 A 
ATOM     29  C   UNL     1     -12.185  -5.967  15.308  0.00  0.00    +0.078 A 
ATOM     30  C   UNL     1     -13.191  -8.156  15.120  0.00  0.00    +0.040 A 
ATOM     31  C   UNL     1     -13.322  -6.770  15.205  0.00  0.00    +0.126 A 
ENDBRANCH  10  26
ENDBRANCH  14   8
BRANCH  16  19
ATOM      5  O   UNL     1      -2.078 -10.327  15.929  0.00  0.00    -0.271 OA
ATOM      9  N   UNL     1      -3.180 -11.794  14.490  0.00  0.00    -0.300 N 
ATOM     19  C   UNL     1      -3.066 -10.972  15.598  0.00  0.00    +0.241 C 
ATOM     33  H   UNL     1      -4.030 -12.333  14.357  0.00  0.00    +0.150 HD
BRANCH   9  18
ATOM     18  C   UNL     1      -2.105 -12.000  13.554  0.00  0.00    +0.159 C 
BRANCH  18  25
ATOM      7  O   UNL     1      -2.374 -14.353  14.104  0.00  0.00    -0.274 OA
ATOM     11  N   UNL     1      -0.340 -13.635  13.319  0.00  0.00    -0.328 N 
ATOM     25  C   UNL     1      -1.647 -13.444  13.712  0.00  0.00    +0.231 C 
ATOM     37  H   UNL     1       0.087 -14.555  13.360  0.00  0.00    +0.145 HD
ATOM     38  H   UNL     1       0.244 -12.879  12.975  0.00  0.00    +0.145 HD
ENDBRANCH  18  25
BRANCH  18  20
ATOM     20  C   UNL     1      -2.536 -11.735  12.107  0.00  0.00    +0.034 C 
BRANCH  20  21
ATOM     21  C   UNL     1      -2.681 -10.244  11.737  0.00  0.00    -0.015 C 
ATOM     22  C   UNL     1      -3.570 -10.103  10.499  0.00  0.00    +0.007 C 
ATOM     23  C   UNL     1      -1.332  -9.573  11.483  0.00  0.00    +0.007 C 
ENDBRANCH  20  21
ENDBRANCH  18  20
ENDBRANCH   9  18
ENDBRANCH  16  19
BRANCH  12   3
ATOM      3  O   UNL     1      -7.376 -12.034  16.790  0.00  0.00    -0.387 OA
ATOM     34  H   UNL     1      -8.337 -12.080  16.936  0.00  0.00    +0.210 HD
ENDBRANCH  12   3
BRANCH  13   4
ATOM      4  O   UNL     1      -5.218 -10.751  19.452  0.00  0.00    -0.389 OA
ATOM     35  H   UNL     1      -4.674 -11.264  20.074  0.00  0.00    +0.210 HD
ENDBRANCH  13   4
TORSDOF 9
ENDMDL
MODEL 5
REMARK VINA RESULT:      -6.4      1.724      2.636
REMARK  Name = 7049300
REMARK  11 active torsions:
REMARK  status: ('A' for Active; 'I' for Inactive)
REMARK    1  A    between atoms: O_3  and  C_12
REMARK    2  A    between atoms: O_4  and  C_13
REMARK    3  A    between atoms: N_8  and  C_14
REMARK    4  A    between atoms: N_9  and  C_18
REMARK    5  A    between atoms: N_10  and  C_26
REMARK    6  A    between atoms: C_16  and  C_19
REMARK    7  A    between atoms: C_18  and  C_20
REMARK    8  A    between atoms: C_18  and  C_25
REMARK    9  A    between atoms: C_20  and  C_21
REMARK   10  A    between atoms: C_21  and  C_22
REMARK   11  A    between atoms: C_21  and  C_23
REMARK                            x       y       z     vdW  Elec       q    Type
REMARK                         _______ _______ _______ _____ _____    ______ ____
ROOT
ATOM     12  C   UNL     1      12.153   7.101  20.669  0.00  0.00    +0.167 C 
ATOM     13  C   UNL     1      10.910   7.980  20.483  0.00  0.00    +0.149 C 
ATOM     14  C   UNL     1      13.450   7.917  20.514  0.00  0.00    +0.129 C 
ATOM     15  C   UNL     1      10.901   9.180  21.445  0.00  0.00    +0.074 C 
ATOM     16  C   UNL     1      12.258   9.792  21.647  0.00  0.00    +0.015 C 
ATOM     17  C   UNL     1      13.407   9.242  21.228  0.00  0.00    +0.006 C 
ENDROOT
BRANCH  14   8
ATOM      6  O   UNL     1      16.180   8.369  19.774  0.00  0.00    -0.252 OA
ATOM      8  N   UNL     1      14.602   7.178  20.973  0.00  0.00    -0.290 N 
ATOM     10  N   UNL     1      16.812   6.588  21.167  0.00  0.00    -0.267 N 
ATOM     24  C   UNL     1      15.908   7.464  20.561  0.00  0.00    +0.304 C 
ATOM     32  H   UNL     1      14.455   6.380  21.583  0.00  0.00    +0.151 HD
ATOM     36  H   UNL     1      16.423   5.892  21.798  0.00  0.00    +0.156 HD
BRANCH  10  26
ATOM      1  F   UNL     1      18.463   8.518  22.316  0.00  0.00    -0.203 F 
ATOM      2  F   UNL     1      22.320   6.412  20.564  0.00  0.00    -0.205 F 
ATOM     26  C   UNL     1      18.218   6.547  21.014  0.00  0.00    +0.070 A 
ATOM     27  C   UNL     1      19.017   7.527  21.602  0.00  0.00    +0.147 A 
ATOM     28  C   UNL     1      18.805   5.521  20.273  0.00  0.00    +0.029 A 
ATOM     29  C   UNL     1      20.402   7.483  21.450  0.00  0.00    +0.078 A 
ATOM     30  C   UNL     1      20.191   5.476  20.121  0.00  0.00    +0.040 A 
ATOM     31  C   UNL     1      20.989   6.456  20.709  0.00  0.00    +0.126 A 
ENDBRANCH  10  26
ENDBRANCH  14   8
BRANCH  16  19
ATOM      5  O   UNL     1      13.387  11.466  22.832  0.00  0.00    -0.271 OA
ATOM      9  N   UNL     1      11.132  11.770  22.325  0.00  0.00    -0.300 N 
ATOM     19  C   UNL     1      12.336  11.087  22.329  0.00  0.00    +0.241 C 
ATOM     33  H   UNL     1      10.343  11.383  21.814  0.00  0.00    +0.150 HD
BRANCH   9  18
ATOM     18  C   UNL     1      10.962  13.062  22.936  0.00  0.00    +0.159 C 
BRANCH  18  25
ATOM      7  O   UNL     1       9.205  14.512  22.086  0.00  0.00    -0.274 OA
ATOM     11  N   UNL     1      11.043  14.125  20.765  0.00  0.00    -0.328 N 
ATOM     25  C   UNL     1      10.287  13.958  21.905  0.00  0.00    +0.231 C 
ATOM     37  H   UNL     1      10.715  14.710  20.004  0.00  0.00    +0.145 HD
ATOM     38  H   UNL     1      11.947  13.679  20.638  0.00  0.00    +0.145 HD
ENDBRANCH  18  25
BRANCH  18  20
ATOM     20  C   UNL     1      10.119  12.995  24.215  0.00  0.00    +0.034 C 
BRANCH  20  21
ATOM     21  C   UNL     1      10.776  13.628  25.458  0.00  0.00    -0.015 C 
ATOM     22  C   UNL     1      10.645  15.152  25.393  0.00  0.00    +0.007 C 
ATOM     23  C   UNL     1      12.249  13.243  25.599  0.00  0.00    +0.007 C 
ENDBRANCH  20  21
ENDBRANCH  18  20
ENDBRANCH   9  18
ENDBRANCH  16  19
BRANCH  12   3
ATOM      3  O   UNL     1      12.109   6.511  21.970  0.00  0.00    -0.387 OA
ATOM     34  H   UNL     1      12.997   6.167  22.165  0.00  0.00    +0.210 HD
ENDBRANCH  12   3
BRANCH  13   4
ATOM      4  O   UNL     1      10.827   8.434  19.133  0.00  0.00    -0.389 OA
ATOM     35  H   UNL     1      11.658   8.895  18.926  0.00  0.00    +0.210 HD
ENDBRANCH  13   4
TORSDOF 9
ENDMDL
MODEL 6
REMARK VINA RESULT:      -6.2     19.970     23.119
REMARK  Name = 7049300
REMARK  11 active torsions:
REMARK  status: ('A' for Active; 'I' for Inactive)
REMARK    1  A    between atoms: O_3  and  C_12
REMARK    2  A    between atoms: O_4  and  C_13
REMARK    3  A    between atoms: N_8  and  C_14
REMARK    4  A    between atoms: N_9  and  C_18
REMARK    5  A    between atoms: N_10  and  C_26
REMARK    6  A    between atoms: C_16  and  C_19
REMARK    7  A    between atoms: C_18  and  C_20
REMARK    8  A    between atoms: C_18  and  C_25
REMARK    9  A    between atoms: C_20  and  C_21
REMARK   10  A    between atoms: C_21  and  C_22
REMARK   11  A    between atoms: C_21  and  C_23
REMARK                            x       y       z     vdW  Elec       q    Type
REMARK                         _______ _______ _______ _____ _____    ______ ____
ROOT
ATOM     12  C   UNL     1      14.824   4.473   1.653  0.00  0.00    +0.167 C 
ATOM     13  C   UNL     1      15.834   4.535   0.501  0.00  0.00    +0.149 C 
ATOM     14  C   UNL     1      13.523   5.220   1.303  0.00  0.00    +0.129 C 
ATOM     15  C   UNL     1      15.248   3.994  -0.813  0.00  0.00    +0.074 C 
ATOM     16  C   UNL     1      13.810   4.374  -1.025  0.00  0.00    +0.015 C 
ATOM     17  C   UNL     1      13.028   4.932  -0.089  0.00  0.00    +0.006 C 
ENDROOT
BRANCH  14   8
ATOM      6  O   UNL     1      12.601   6.903   3.430  0.00  0.00    -0.252 OA
ATOM      8  N   UNL     1      12.469   4.923   2.243  0.00  0.00    -0.290 N 
ATOM     10  N   UNL     1      11.039   5.249   4.009  0.00  0.00    -0.267 N 
ATOM     24  C   UNL     1      12.078   5.804   3.257  0.00  0.00    +0.304 C 
ATOM     32  H   UNL     1      12.024   4.011   2.201  0.00  0.00    +0.151 HD
ATOM     36  H   UNL     1      10.717   4.324   3.735  0.00  0.00    +0.156 HD
BRANCH  10  26
ATOM      1  F   UNL     1       8.729   6.777   3.688  0.00  0.00    -0.203 F 
ATOM      2  F   UNL     1       8.415   7.471   8.358  0.00  0.00    -0.205 F 
ATOM     26  C   UNL     1      10.368   5.819   5.117  0.00  0.00    +0.070 A 
ATOM     27  C   UNL     1       9.214   6.578   4.923  0.00  0.00    +0.147 A 
ATOM     28  C   UNL     1      10.862   5.618   6.405  0.00  0.00    +0.029 A 
ATOM     29  C   UNL     1       8.554   7.136   6.017  0.00  0.00    +0.078 A 
ATOM     30  C   UNL     1      10.203   6.177   7.500  0.00  0.00    +0.040 A 
ATOM     31  C   UNL     1       9.049   6.936   7.307  0.00  0.00    +0.126 A 
ENDBRANCH  10  26
ENDBRANCH  14   8
BRANCH  16  19
ATOM      5  O   UNL     1      13.902   4.251  -3.362  0.00  0.00    -0.271 OA
ATOM      9  N   UNL     1      11.880   3.806  -2.288  0.00  0.00    -0.300 N 
ATOM     19  C   UNL     1      13.222   4.141  -2.348  0.00  0.00    +0.241 C 
ATOM     33  H   UNL     1      11.440   3.678  -1.381  0.00  0.00    +0.150 HD
BRANCH   9  18
ATOM     18  C   UNL     1      11.087   3.534  -3.458  0.00  0.00    +0.159 C 
BRANCH  18  25
ATOM      7  O   UNL     1      10.590   1.408  -2.390  0.00  0.00    -0.274 OA
ATOM     11  N   UNL     1       9.007   2.341  -3.766  0.00  0.00    -0.328 N 
ATOM     25  C   UNL     1      10.238   2.309  -3.147  0.00  0.00    +0.231 C 
ATOM     37  H   UNL     1       8.336   1.592  -3.632  0.00  0.00    +0.145 HD
ATOM     38  H   UNL     1       8.719   3.104  -4.372  0.00  0.00    +0.145 HD
ENDBRANCH  18  25
BRANCH  18  20
ATOM     20  C   UNL     1      10.192   4.718  -3.842  0.00  0.00    +0.034 C 
BRANCH  20  21
ATOM     21  C   UNL     1      10.174   5.875  -2.821  0.00  0.00    -0.015 C 
ATOM     22  C   UNL     1       8.888   5.814  -1.994  0.00  0.00    +0.007 C 
ATOM     23  C   UNL     1      10.293   7.244  -3.490  0.00  0.00    +0.007 C 
ENDBRANCH  20  21
ENDBRANCH  18  20
ENDBRANCH   9  18
ENDBRANCH  16  19
BRANCH  12   3
ATOM      3  O   UNL     1      14.530   3.103   1.934  0.00  0.00    -0.387 OA
ATOM     34  H   UNL     1      14.922   2.892   2.800  0.00  0.00    +0.210 HD
ENDBRANCH  12   3
BRANCH  13   4
ATOM      4  O   UNL     1      16.291   5.874   0.319  0.00  0.00    -0.389 OA
ATOM     35  H   UNL     1      15.507   6.436   0.191  0.00  0.00    +0.210 HD
ENDBRANCH  13   4
TORSDOF 9
ENDMDL
MODEL 7
REMARK VINA RESULT:      -6.2     28.686     31.950
REMARK  Name = 7049300
REMARK  11 active torsions:
REMARK  status: ('A' for Active; 'I' for Inactive)
REMARK    1  A    between atoms: O_3  and  C_12
REMARK    2  A    between atoms: O_4  and  C_13
REMARK    3  A    between atoms: N_8  and  C_14
REMARK    4  A    between atoms: N_9  and  C_18
REMARK    5  A    between atoms: N_10  and  C_26
REMARK    6  A    between atoms: C_16  and  C_19
REMARK    7  A    between atoms: C_18  and  C_20
REMARK    8  A    between atoms: C_18  and  C_25
REMARK    9  A    between atoms: C_20  and  C_21
REMARK   10  A    between atoms: C_21  and  C_22
REMARK   11  A    between atoms: C_21  and  C_23
REMARK                            x       y       z     vdW  Elec       q    Type
REMARK                         _______ _______ _______ _____ _____    ______ ____
ROOT
ATOM     12  C   UNL     1     -11.240 -10.359  18.558  0.00  0.00    +0.167 C 
ATOM     13  C   UNL     1     -10.250 -10.886  19.604  0.00  0.00    +0.149 C 
ATOM     14  C   UNL     1     -10.693  -9.110  17.842  0.00  0.00    +0.129 C 
ATOM     15  C   UNL     1      -8.869 -11.184  18.995  0.00  0.00    +0.074 C 
ATOM     16  C   UNL     1      -8.443 -10.178  17.964  0.00  0.00    +0.015 C 
ATOM     17  C   UNL     1      -9.246  -9.238  17.445  0.00  0.00    +0.006 C 
ENDROOT
BRANCH  14   8
ATOM      6  O   UNL     1     -11.335  -6.487  16.886  0.00  0.00    -0.252 OA
ATOM      8  N   UNL     1     -11.471  -8.785  16.670  0.00  0.00    -0.290 N 
ATOM     10  N   UNL     1     -12.511  -7.466  15.106  0.00  0.00    -0.267 N 
ATOM     24  C   UNL     1     -11.739  -7.472  16.270  0.00  0.00    +0.304 C 
ATOM     32  H   UNL     1     -11.886  -9.544  16.138  0.00  0.00    +0.151 HD
ATOM     36  H   UNL     1     -12.763  -8.372  14.719  0.00  0.00    +0.156 HD
BRANCH  10  26
ATOM      1  F   UNL     1     -15.237  -7.048  14.704  0.00  0.00    -0.203 F 
ATOM      2  F   UNL     1     -14.376  -3.070  12.290  0.00  0.00    -0.205 F 
ATOM     26  C   UNL     1     -12.990  -6.346  14.386  0.00  0.00    +0.070 A 
ATOM     27  C   UNL     1     -14.360  -6.164  14.203  0.00  0.00    +0.147 A 
ATOM     28  C   UNL     1     -12.088  -5.421  13.862  0.00  0.00    +0.029 A 
ATOM     29  C   UNL     1     -14.829  -5.059  13.495  0.00  0.00    +0.078 A 
ATOM     30  C   UNL     1     -12.556  -4.315  13.153  0.00  0.00    +0.040 A 
ATOM     31  C   UNL     1     -13.926  -4.133  12.969  0.00  0.00    +0.126 A 
ENDBRANCH  10  26
ENDBRANCH  14   8
BRANCH  16  19
ATOM      5  O   UNL     1      -6.595  -9.288  16.835  0.00  0.00    -0.271 OA
ATOM      9  N   UNL     1      -6.375 -11.345  17.911  0.00  0.00    -0.300 N 
ATOM     19  C   UNL     1      -7.050 -10.207  17.506  0.00  0.00    +0.241 C 
ATOM     33  H   UNL     1      -6.841 -12.006  18.526  0.00  0.00    +0.150 HD
BRANCH   9  18
ATOM     18  C   UNL     1      -4.997 -11.598  17.580  0.00  0.00    +0.159 C 
BRANCH  18  25
ATOM      7  O   UNL     1      -4.149 -12.077  19.807  0.00  0.00    -0.274 OA
ATOM     11  N   UNL     1      -4.307 -13.801  18.298  0.00  0.00    -0.328 N 
ATOM     25  C   UNL     1      -4.428 -12.482  18.681  0.00  0.00    +0.231 C 
ATOM     37  H   UNL     1      -3.953 -14.500  18.943  0.00  0.00    +0.145 HD
ATOM     38  H   UNL     1      -4.563 -14.127  17.371  0.00  0.00    +0.145 HD
ENDBRANCH  18  25
BRANCH  18  20
ATOM     20  C   UNL     1      -4.843 -12.281  16.216  0.00  0.00    +0.034 C 
BRANCH  20  21
ATOM     21  C   UNL     1      -3.905 -11.555  15.230  0.00  0.00    -0.015 C 
ATOM     22  C   UNL     1      -2.904 -10.696  16.006  0.00  0.00    +0.007 C 
ATOM     23  C   UNL     1      -4.669 -10.684  14.233  0.00  0.00    +0.007 C 
ENDBRANCH  20  21
ENDBRANCH  18  20
ENDBRANCH   9  18
ENDBRANCH  16  19
BRANCH  12   3
ATOM      3  O   UNL     1     -11.491 -11.391  17.601  0.00  0.00    -0.387 OA
ATOM     34  H   UNL     1     -11.785 -10.962  16.779  0.00  0.00    +0.210 HD
ENDBRANCH  12   3
BRANCH  13   4
ATOM      4  O   UNL     1     -10.121  -9.952  20.674  0.00  0.00    -0.389 OA
ATOM     35  H   UNL     1      -9.871  -9.095  20.287  0.00  0.00    +0.210 HD
ENDBRANCH  13   4
TORSDOF 9
ENDMDL
MODEL 8
REMARK VINA RESULT:      -6.2      4.055      5.510
REMARK  Name = 7049300
REMARK  11 active torsions:
REMARK  status: ('A' for Active; 'I' for Inactive)
REMARK    1  A    between atoms: O_3  and  C_12
REMARK    2  A    between atoms: O_4  and  C_13
REMARK    3  A    between atoms: N_8  and  C_14
REMARK    4  A    between atoms: N_9  and  C_18
REMARK    5  A    between atoms: N_10  and  C_26
REMARK    6  A    between atoms: C_16  and  C_19
REMARK    7  A    between atoms: C_18  and  C_20
REMARK    8  A    between atoms: C_18  and  C_25
REMARK    9  A    between atoms: C_20  and  C_21
REMARK   10  A    between atoms: C_21  and  C_22
REMARK   11  A    between atoms: C_21  and  C_23
REMARK                            x       y       z     vdW  Elec       q    Type
REMARK                         _______ _______ _______ _____ _____    ______ ____
ROOT
ATOM     12  C   UNL     1      13.632   7.008  20.848  0.00  0.00    +0.167 C 
ATOM     13  C   UNL     1      12.260   7.108  20.169  0.00  0.00    +0.149 C 
ATOM     14  C   UNL     1      14.773   6.990  19.814  0.00  0.00    +0.129 C 
ATOM     15  C   UNL     1      12.159   8.332  19.244  0.00  0.00    +0.074 C 
ATOM     16  C   UNL     1      13.422   8.607  18.479  0.00  0.00    +0.015 C 
ATOM     17  C   UNL     1      14.598   8.007  18.717  0.00  0.00    +0.006 C 
ENDROOT
BRANCH  14   8
ATOM      6  O   UNL     1      17.252   5.765  19.065  0.00  0.00    -0.252 OA
ATOM      8  N   UNL     1      16.059   7.194  20.437  0.00  0.00    -0.290 N 
ATOM     10  N   UNL     1      18.312   6.944  20.796  0.00  0.00    -0.267 N 
ATOM     24  C   UNL     1      17.227   6.554  20.008  0.00  0.00    +0.304 C 
ATOM     32  H   UNL     1      16.112   7.790  21.258  0.00  0.00    +0.151 HD
ATOM     36  H   UNL     1      18.123   7.609  21.541  0.00  0.00    +0.156 HD
BRANCH  10  26
ATOM      1  F   UNL     1      20.418   8.768  20.887  0.00  0.00    -0.203 F 
ATOM      2  F   UNL     1      23.588   5.293  20.374  0.00  0.00    -0.205 F 
ATOM     26  C   UNL     1      19.660   6.526  20.687  0.00  0.00    +0.070 A 
ATOM     27  C   UNL     1      20.691   7.463  20.737  0.00  0.00    +0.147 A 
ATOM     28  C   UNL     1      19.955   5.171  20.531  0.00  0.00    +0.029 A 
ATOM     29  C   UNL     1      22.018   7.048  20.631  0.00  0.00    +0.078 A 
ATOM     30  C   UNL     1      21.282   4.755  20.425  0.00  0.00    +0.040 A 
ATOM     31  C   UNL     1      22.313   5.692  20.475  0.00  0.00    +0.126 A 
ENDBRANCH  10  26
ENDBRANCH  14   8
BRANCH  16  19
ATOM      5  O   UNL     1      12.608   9.411  16.436  0.00  0.00    -0.271 OA
ATOM      9  N   UNL     1      14.242  10.637  17.560  0.00  0.00    -0.300 N 
ATOM     19  C   UNL     1      13.368   9.579  17.383  0.00  0.00    +0.241 C 
ATOM     33  H   UNL     1      14.774  10.703  18.423  0.00  0.00    +0.150 HD
BRANCH   9  18
ATOM     18  C   UNL     1      14.369  11.716  16.615  0.00  0.00    +0.159 C 
BRANCH  18  25
ATOM      7  O   UNL     1      15.578  13.616  17.528  0.00  0.00    -0.274 OA
ATOM     11  N   UNL     1      13.333  13.428  17.972  0.00  0.00    -0.328 N 
ATOM     25  C   UNL     1      14.521  13.000  17.419  0.00  0.00    +0.231 C 
ATOM     37  H   UNL     1      13.292  14.280  18.521  0.00  0.00    +0.145 HD
ATOM     38  H   UNL     1      12.461  12.921  17.854  0.00  0.00    +0.145 HD
ENDBRANCH  18  25
BRANCH  18  20
ATOM     20  C   UNL     1      15.568  11.529  15.678  0.00  0.00    +0.034 C 
BRANCH  20  21
ATOM     21  C   UNL     1      15.327  11.972  14.220  0.00  0.00    -0.015 C 
ATOM     22  C   UNL     1      16.115  13.252  13.932  0.00  0.00    +0.007 C 
ATOM     23  C   UNL     1      13.846  12.199  13.918  0.00  0.00    +0.007 C 
ENDBRANCH  20  21
ENDBRANCH  18  20
ENDBRANCH   9  18
ENDBRANCH  16  19
BRANCH  12   3
ATOM      3  O   UNL     1      13.794   8.127  21.723  0.00  0.00    -0.387 OA
ATOM     34  H   UNL     1      14.361   7.842  22.460  0.00  0.00    +0.210 HD
ENDBRANCH  12   3
BRANCH  13   4
ATOM      4  O   UNL     1      11.988   5.916  19.434  0.00  0.00    -0.389 OA
ATOM     35  H   UNL     1      12.820   5.416  19.366  0.00  0.00    +0.210 HD
ENDBRANCH  13   4
TORSDOF 9
ENDMDL
MODEL 9
REMARK VINA RESULT:      -6.2     28.378     30.458
REMARK  Name = 7049300
REMARK  11 active torsions:
REMARK  status: ('A' for Active; 'I' for Inactive)
REMARK    1  A    between atoms: O_3  and  C_12
REMARK    2  A    between atoms: O_4  and  C_13
REMARK    3  A    between atoms: N_8  and  C_14
REMARK    4  A    between atoms: N_9  and  C_18
REMARK    5  A    between atoms: N_10  and  C_26
REMARK    6  A    between atoms: C_16  and  C_19
REMARK    7  A    between atoms: C_18  and  C_20
REMARK    8  A    between atoms: C_18  and  C_25
REMARK    9  A    between atoms: C_20  and  C_21
REMARK   10  A    between atoms: C_21  and  C_22
REMARK   11  A    between atoms: C_21  and  C_23
REMARK                            x       y       z     vdW  Elec       q    Type
REMARK                         _______ _______ _______ _____ _____    ______ ____
ROOT
ATOM     12  C   UNL     1      -4.101 -10.962  16.499  0.00  0.00    +0.167 C 
ATOM     13  C   UNL     1      -4.109 -11.663  17.863  0.00  0.00    +0.149 C 
ATOM     14  C   UNL     1      -5.461 -11.095  15.788  0.00  0.00    +0.129 C 
ATOM     15  C   UNL     1      -5.236 -11.146  18.773  0.00  0.00    +0.074 C 
ATOM     16  C   UNL     1      -6.517 -10.872  18.037  0.00  0.00    +0.015 C 
ATOM     17  C   UNL     1      -6.634 -10.854  16.701  0.00  0.00    +0.006 C 
ENDROOT
BRANCH  14   8
ATOM      6  O   UNL     1      -5.205 -11.802  13.024  0.00  0.00    -0.252 OA
ATOM      8  N   UNL     1      -5.560 -10.204  14.658  0.00  0.00    -0.290 N 
ATOM     10  N   UNL     1      -5.565  -9.553  12.456  0.00  0.00    -0.267 N 
ATOM     24  C   UNL     1      -5.422 -10.631  13.333  0.00  0.00    +0.304 C 
ATOM     32  H   UNL     1      -5.684  -9.211  14.831  0.00  0.00    +0.151 HD
ATOM     36  H   UNL     1      -5.744  -8.643  12.874  0.00  0.00    +0.156 HD
BRANCH  10  26
ATOM      1  F   UNL     1      -3.122  -9.512  11.116  0.00  0.00    -0.203 F 
ATOM      2  F   UNL     1      -5.304  -9.611   6.919  0.00  0.00    -0.205 F 
ATOM     26  C   UNL     1      -5.495  -9.566  11.043  0.00  0.00    +0.070 A 
ATOM     27  C   UNL     1      -4.257  -9.546  10.402  0.00  0.00    +0.147 A 
ATOM     28  C   UNL     1      -6.669  -9.602  10.291  0.00  0.00    +0.029 A 
ATOM     29  C   UNL     1      -4.191  -9.560   9.010  0.00  0.00    +0.078 A 
ATOM     30  C   UNL     1      -6.604  -9.616   8.897  0.00  0.00    +0.040 A 
ATOM     31  C   UNL     1      -5.366  -9.595   8.257  0.00  0.00    +0.126 A 
ENDBRANCH  10  26
ENDBRANCH  14   8
BRANCH  16  19
ATOM      5  O   UNL     1      -7.752 -10.873  20.026  0.00  0.00    -0.271 OA
ATOM      9  N   UNL     1      -8.768 -10.117  18.069  0.00  0.00    -0.300 N 
ATOM     19  C   UNL     1      -7.728 -10.627  18.826  0.00  0.00    +0.241 C 
ATOM     33  H   UNL     1      -8.606  -9.889  17.092  0.00  0.00    +0.150 HD
BRANCH   9  18
ATOM     18  C   UNL     1     -10.058  -9.798  18.624  0.00  0.00    +0.159 C 
BRANCH  18  25
ATOM      7  O   UNL     1     -11.791  -8.616  17.395  0.00  0.00    -0.274 OA
ATOM     11  N   UNL     1      -9.722  -7.641  17.586  0.00  0.00    -0.328 N 
ATOM     25  C   UNL     1     -10.630  -8.655  17.796  0.00  0.00    +0.231 C 
ATOM     37  H   UNL     1      -9.979  -6.811  17.061  0.00  0.00    +0.145 HD
ATOM     38  H   UNL     1      -8.772  -7.675  17.943  0.00  0.00    +0.145 HD
ENDBRANCH  18  25
BRANCH  18  20
ATOM     20  C   UNL     1     -11.012 -10.999  18.603  0.00  0.00    +0.034 C 
BRANCH  20  21
ATOM     21  C   UNL     1     -11.677 -11.321  19.957  0.00  0.00    -0.015 C 
ATOM     22  C   UNL     1     -12.587 -12.543  19.808  0.00  0.00    +0.007 C 
ATOM     23  C   UNL     1     -12.482 -10.143  20.506  0.00  0.00    +0.007 C 
ENDBRANCH  20  21
ENDBRANCH  18  20
ENDBRANCH   9  18
ENDBRANCH  16  19
BRANCH  12   3
ATOM      3  O   UNL     1      -3.793  -9.580  16.694  0.00  0.00    -0.387 OA
ATOM     34  H   UNL     1      -3.421  -9.243  15.860  0.00  0.00    +0.210 HD
ENDBRANCH  12   3
BRANCH  13   4
ATOM      4  O   UNL     1      -4.227 -13.074  17.691  0.00  0.00    -0.389 OA
ATOM     35  H   UNL     1      -4.066 -13.490  18.555  0.00  0.00    +0.210 HD
ENDBRANCH  13   4
TORSDOF 9
ENDMDL
MODEL 10
REMARK VINA RESULT:      -6.2      5.211      8.610
REMARK  Name = 7049300
REMARK  11 active torsions:
REMARK  status: ('A' for Active; 'I' for Inactive)
REMARK    1  A    between atoms: O_3  and  C_12
REMARK    2  A    between atoms: O_4  and  C_13
REMARK    3  A    between atoms: N_8  and  C_14
REMARK    4  A    between atoms: N_9  and  C_18
REMARK    5  A    between atoms: N_10  and  C_26
REMARK    6  A    between atoms: C_16  and  C_19
REMARK    7  A    between atoms: C_18  and  C_20
REMARK    8  A    between atoms: C_18  and  C_25
REMARK    9  A    between atoms: C_20  and  C_21
REMARK   10  A    between atoms: C_21  and  C_22
REMARK   11  A    between atoms: C_21  and  C_23
REMARK                            x       y       z     vdW  Elec       q    Type
REMARK                         _______ _______ _______ _____ _____    ______ ____
ROOT
ATOM     12  C   UNL     1      11.715   8.093  20.052  0.00  0.00    +0.167 C 
ATOM     13  C   UNL     1      12.507   7.067  19.232  0.00  0.00    +0.149 C 
ATOM     14  C   UNL     1      12.533   9.375  20.295  0.00  0.00    +0.129 C 
ATOM     15  C   UNL     1      12.996   7.648  17.894  0.00  0.00    +0.074 C 
ATOM     16  C   UNL     1      13.451   9.076  17.996  0.00  0.00    +0.015 C 
ATOM     17  C   UNL     1      13.259   9.858  19.067  0.00  0.00    +0.006 C 
ENDROOT
BRANCH  14   8
ATOM      6  O   UNL     1      12.930  10.846  22.720  0.00  0.00    -0.252 OA
ATOM      8  N   UNL     1      11.707  10.445  20.799  0.00  0.00    -0.290 N 
ATOM     10  N   UNL     1      11.007  12.099  22.229  0.00  0.00    -0.267 N 
ATOM     24  C   UNL     1      11.971  11.116  21.999  0.00  0.00    +0.304 C 
ATOM     32  H   UNL     1      10.864  10.691  20.288  0.00  0.00    +0.151 HD
ATOM     36  H   UNL     1      10.274  12.196  21.530  0.00  0.00    +0.156 HD
BRANCH  10  26
ATOM      1  F   UNL     1      11.265  14.854  21.896  0.00  0.00    -0.203 F 
ATOM      2  F   UNL     1      10.652  15.578  26.531  0.00  0.00    -0.205 F 
ATOM     26  C   UNL     1      10.918  12.990  23.326  0.00  0.00    +0.070 A 
ATOM     27  C   UNL     1      11.051  14.363  23.126  0.00  0.00    +0.147 A 
ATOM     28  C   UNL     1      10.696  12.490  24.608  0.00  0.00    +0.029 A 
ATOM     29  C   UNL     1      10.962  15.238  24.207  0.00  0.00    +0.078 A 
ATOM     30  C   UNL     1      10.607  13.365  25.691  0.00  0.00    +0.040 A 
ATOM     31  C   UNL     1      10.740  14.738  25.491  0.00  0.00    +0.126 A 
ENDBRANCH  10  26
ENDBRANCH  14   8
BRANCH  16  19
ATOM      5  O   UNL     1      14.244   9.050  15.792  0.00  0.00    -0.271 OA
ATOM      9  N   UNL     1      14.730  10.887  17.144  0.00  0.00    -0.300 N 
ATOM     19  C   UNL     1      14.174   9.652  16.858  0.00  0.00    +0.241 C 
ATOM     33  H   UNL     1      14.545  11.317  18.046  0.00  0.00    +0.150 HD
BRANCH   9  18
ATOM     18  C   UNL     1      15.489  11.646  16.185  0.00  0.00    +0.159 C 
BRANCH  18  25
ATOM      7  O   UNL     1      13.951  13.463  15.690  0.00  0.00    -0.274 OA
ATOM     11  N   UNL     1      14.287  11.844  14.096  0.00  0.00    -0.328 N 
ATOM     25  C   UNL     1      14.489  12.417  15.334  0.00  0.00    +0.231 C 
ATOM     37  H   UNL     1      13.655  12.266  13.424  0.00  0.00    +0.145 HD
ATOM     38  H   UNL     1      14.756  10.992  13.805  0.00  0.00    +0.145 HD
ENDBRANCH  18  25
BRANCH  18  20
ATOM     20  C   UNL     1      16.472  12.613  16.856  0.00  0.00    +0.034 C 
BRANCH  20  21
ATOM     21  C   UNL     1      16.323  12.730  18.387  0.00  0.00    -0.015 C 
ATOM     22  C   UNL     1      15.792  14.119  18.750  0.00  0.00    +0.007 C 
ATOM     23  C   UNL     1      17.638  12.472  19.122  0.00  0.00    +0.007 C 
ENDBRANCH  20  21
ENDBRANCH  18  20
ENDBRANCH   9  18
ENDBRANCH  16  19
BRANCH  12   3
ATOM      3  O   UNL     1      10.514   8.415  19.347  0.00  0.00    -0.387 OA
ATOM     34  H   UNL     1      10.482   7.855  18.552  0.00  0.00    +0.210 HD
ENDBRANCH  12   3
BRANCH  13   4
ATOM      4  O   UNL     1      13.616   6.584  19.989  0.00  0.00    -0.389 OA
ATOM     35  H   UNL     1      13.323   6.491  20.912  0.00  0.00    +0.210 HD
ENDBRANCH  13   4
TORSDOF 9
ENDMDL
