MODEL 1
REMARK VINA RESULT:      -6.8      0.000      0.000
REMARK  Name = 45783947
REMARK  13 active torsions:
REMARK  status: ('A' for Active; 'I' for Inactive)
REMARK    1  A    between atoms: S_1  and  N_6
REMARK    2  A    between atoms: S_1  and  C_22
REMARK    3  A    between atoms: N_6  and  C_16
REMARK    4  A    between atoms: C_9  and  C_13
REMARK    5  A    between atoms: C_10  and  C_16
REMARK    6  A    between atoms: C_12  and  C_17
REMARK    7  A    between atoms: C_13  and  C_18
REMARK    8  A    between atoms: C_13  and  C_19
REMARK    9  A    between atoms: C_14  and  C_20
REMARK   10  A    between atoms: C_17  and  C_21
REMARK   11  A    between atoms: C_22  and  C_23
REMARK   12  A    between atoms: C_23  and  C_25
REMARK   13  A    between atoms: C_24  and  C_26
REMARK                            x       y       z     vdW  Elec       q    Type
REMARK                         _______ _______ _______ _____ _____    ______ ____
ROOT
ATOM      9  C   UNL     1      20.448   5.902  21.796  0.00  0.00    +0.000 C 
ATOM     10  C   UNL     1      20.934   7.237  22.413  0.00  0.00    +0.030 C 
ATOM     11  C   UNL     1      19.626   6.167  20.526  0.00  0.00    +0.012 C 
ATOM     12  C   UNL     1      18.397   7.053  20.801  0.00  0.00    +0.024 C 
ATOM     14  C   UNL     1      18.752   8.262  21.642  0.00  0.00    -0.073 C 
ATOM     15  C   UNL     1      19.896   8.332  22.344  0.00  0.00    -0.023 C 
ATOM     20  C   UNL     1      17.782   9.411  21.619  0.00  0.00    +0.039 C 
ENDROOT
BRANCH   9  13
ATOM     13  C   UNL     1      21.617   4.966  21.471  0.00  0.00    -0.013 C 
ATOM     18  C   UNL     1      22.548   5.612  20.450  0.00  0.00    +0.007 C 
ATOM     19  C   UNL     1      21.099   3.625  20.959  0.00  0.00    +0.007 C 
ENDBRANCH   9  13
BRANCH  10  16
ATOM     16  C   UNL     1      21.378   7.044  23.867  0.00  0.00    +0.113 C 
BRANCH  16   6
ATOM      6  N   UNL     1      20.188   6.945  24.725  0.00  0.00    -0.194 NA
ATOM     32  H   UNL     1      19.362   7.428  24.346  0.00  0.00    +0.148 HD
BRANCH   6   1
ATOM      1  S   UNL     1      20.370   7.023  26.422  0.00  0.00    +0.029 S 
ATOM      4  O   UNL     1      19.948   5.772  27.018  0.00  0.00    -0.158 OA
ATOM      5  O   UNL     1      19.832   8.287  26.887  0.00  0.00    -0.158 OA
BRANCH   1  22
ATOM     22  C   UNL     1      22.141   7.121  26.553  0.00  0.00    +0.185 C 
BRANCH  22  23
ATOM     23  C   UNL     1      22.583   8.474  27.086  0.00  0.00    +0.021 C 
ATOM     25  C   UNL     1      23.358   8.334  28.387  0.00  0.00    +0.005 C 
ENDBRANCH  22  23
ENDBRANCH   1  22
ENDBRANCH   6   1
ENDBRANCH  16   6
ENDBRANCH  10  16
BRANCH  12  17
ATOM     17  C   UNL     1      17.268   6.245  21.452  0.00  0.00    +0.105 C 
BRANCH  17  21
ATOM      3  O   UNL     1      15.032   7.209  21.610  0.00  0.00    -0.420 OA
ATOM      7  N   UNL     1      15.499   6.300  19.619  0.00  0.00    -0.112 NA
ATOM      8  N   UNL     1      14.213   6.803  19.568  0.00  0.00    -0.107 NA
ATOM     21  C   UNL     1      15.938   6.560  20.829  0.00  0.00    +0.218 A 
ATOM     24  C   UNL     1      13.982   7.323  20.751  0.00  0.00    +0.251 A 
BRANCH  24  26
ATOM      2  F   UNL     1      11.725   5.897  21.606  0.00  0.00    -0.205 F 
ATOM     26  C   UNL     1      12.818   7.982  21.267  0.00  0.00    +0.074 A 
ATOM     27  C   UNL     1      11.715   7.237  21.683  0.00  0.00    +0.136 A 
ATOM     28  C   UNL     1      12.791   9.374  21.354  0.00  0.00    +0.016 A 
ATOM     29  C   UNL     1      10.585   7.882  22.184  0.00  0.00    +0.039 A 
ATOM     30  C   UNL     1      11.660  10.020  21.855  0.00  0.00    +0.001 A 
ATOM     31  C   UNL     1      10.558   9.274  22.270  0.00  0.00    +0.003 A 
ENDBRANCH  24  26
ENDBRANCH  17  21
ENDBRANCH  12  17
TORSDOF 9
ENDMDL
MODEL 2
REMARK VINA RESULT:      -6.7     29.002     31.227
REMARK  Name = 45783947
REMARK  13 active torsions:
REMARK  status: ('A' for Active; 'I' for Inactive)
REMARK    1  A    between atoms: S_1  and  N_6
REMARK    2  A    between atoms: S_1  and  C_22
REMARK    3  A    between atoms: N_6  and  C_16
REMARK    4  A    between atoms: C_9  and  C_13
REMARK    5  A    between atoms: C_10  and  C_16
REMARK    6  A    between atoms: C_12  and  C_17
REMARK    7  A    between atoms: C_13  and  C_18
REMARK    8  A    between atoms: C_13  and  C_19
REMARK    9  A    between atoms: C_14  and  C_20
REMARK   10  A    between atoms: C_17  and  C_21
REMARK   11  A    between atoms: C_22  and  C_23
REMARK   12  A    between atoms: C_23  and  C_25
REMARK   13  A    between atoms: C_24  and  C_26
REMARK                            x       y       z     vdW  Elec       q    Type
REMARK                         _______ _______ _______ _____ _____    ______ ____
ROOT
ATOM      9  C   UNL     1      -6.428 -11.003  16.048  0.00  0.00    +0.000 C 
ATOM     10  C   UNL     1      -6.972 -10.981  17.499  0.00  0.00    +0.030 C 
ATOM     11  C   UNL     1      -5.414 -12.144  15.873  0.00  0.00    +0.012 C 
ATOM     12  C   UNL     1      -4.221 -12.017  16.839  0.00  0.00    +0.024 C 
ATOM     14  C   UNL     1      -4.673 -11.724  18.255  0.00  0.00    -0.073 C 
ATOM     15  C   UNL     1      -5.910 -11.275  18.532  0.00  0.00    -0.023 C 
ATOM     20  C   UNL     1      -3.684 -12.005  19.352  0.00  0.00    +0.039 C 
ENDROOT
BRANCH   9  13
ATOM     13  C   UNL     1      -7.554 -11.149  15.020  0.00  0.00    -0.013 C 
ATOM     18  C   UNL     1      -7.410 -12.460  14.253  0.00  0.00    +0.007 C 
ATOM     19  C   UNL     1      -7.560  -9.960  14.064  0.00  0.00    +0.007 C 
ENDBRANCH   9  13
BRANCH  10  16
ATOM     16  C   UNL     1      -7.638  -9.639  17.818  0.00  0.00    +0.113 C 
BRANCH  16   6
ATOM      6  N   UNL     1      -8.874  -9.884  18.577  0.00  0.00    -0.194 NA
ATOM     32  H   UNL     1      -8.765 -10.568  19.337  0.00  0.00    +0.148 HD
BRANCH   6   1
ATOM      1  S   UNL     1     -10.367  -9.936  17.749  0.00  0.00    +0.029 S 
ATOM      4  O   UNL     1     -11.426  -9.458  18.615  0.00  0.00    -0.158 OA
ATOM      5  O   UNL     1     -10.479 -11.218  17.078  0.00  0.00    -0.158 OA
BRANCH   1  22
ATOM     22  C   UNL     1     -10.088  -8.705  16.496  0.00  0.00    +0.185 C 
BRANCH  22  23
ATOM     23  C   UNL     1     -10.392  -7.309  17.014  0.00  0.00    +0.021 C 
ATOM     25  C   UNL     1     -11.406  -6.597  16.134  0.00  0.00    +0.005 C 
ENDBRANCH  22  23
ENDBRANCH   1  22
ENDBRANCH   6   1
ENDBRANCH  16   6
ENDBRANCH  10  16
BRANCH  12  17
ATOM     17  C   UNL     1      -3.226 -10.958  16.351  0.00  0.00    +0.105 C 
BRANCH  17  21
ATOM      3  O   UNL     1      -3.670 -10.456  14.004  0.00  0.00    -0.420 OA
ATOM      7  N   UNL     1      -1.969 -11.873  14.332  0.00  0.00    -0.112 NA
ATOM      8  N   UNL     1      -2.107 -11.679  12.971  0.00  0.00    -0.107 NA
ATOM     21  C   UNL     1      -2.901 -11.139  14.896  0.00  0.00    +0.218 A 
ATOM     24  C   UNL     1      -3.112 -10.846  12.826  0.00  0.00    +0.251 A 
BRANCH  24  26
ATOM      2  F   UNL     1      -1.612  -9.364  10.978  0.00  0.00    -0.205 F 
ATOM     26  C   UNL     1      -3.699 -10.293  11.640  0.00  0.00    +0.074 A 
ATOM     27  C   UNL     1      -2.919  -9.561  10.746  0.00  0.00    +0.136 A 
ATOM     28  C   UNL     1      -5.056 -10.489  11.384  0.00  0.00    +0.016 A 
ATOM     29  C   UNL     1      -3.495  -9.025   9.594  0.00  0.00    +0.039 A 
ATOM     30  C   UNL     1      -5.633  -9.952  10.231  0.00  0.00    +0.001 A 
ATOM     31  C   UNL     1      -4.851  -9.221   9.337  0.00  0.00    +0.003 A 
ENDBRANCH  24  26
ENDBRANCH  17  21
ENDBRANCH  12  17
TORSDOF 9
ENDMDL
MODEL 3
REMARK VINA RESULT:      -6.5     29.085     31.058
REMARK  Name = 45783947
REMARK  13 active torsions:
REMARK  status: ('A' for Active; 'I' for Inactive)
REMARK    1  A    between atoms: S_1  and  N_6
REMARK    2  A    between atoms: S_1  and  C_22
REMARK    3  A    between atoms: N_6  and  C_16
REMARK    4  A    between atoms: C_9  and  C_13
REMARK    5  A    between atoms: C_10  and  C_16
REMARK    6  A    between atoms: C_12  and  C_17
REMARK    7  A    between atoms: C_13  and  C_18
REMARK    8  A    between atoms: C_13  and  C_19
REMARK    9  A    between atoms: C_14  and  C_20
REMARK   10  A    between atoms: C_17  and  C_21
REMARK   11  A    between atoms: C_22  and  C_23
REMARK   12  A    between atoms: C_23  and  C_25
REMARK   13  A    between atoms: C_24  and  C_26
REMARK                            x       y       z     vdW  Elec       q    Type
REMARK                         _______ _______ _______ _____ _____    ______ ____
ROOT
ATOM      9  C   UNL     1     -10.790  10.316  17.295  0.00  0.00    +0.000 C 
ATOM     10  C   UNL     1     -10.460   8.830  17.003  0.00  0.00    +0.030 C 
ATOM     11  C   UNL     1     -10.453  10.663  18.753  0.00  0.00    +0.012 C 
ATOM     12  C   UNL     1     -11.226   9.786  19.755  0.00  0.00    +0.024 C 
ATOM     14  C   UNL     1     -11.172   8.320  19.379  0.00  0.00    -0.073 C 
ATOM     15  C   UNL     1     -10.814   7.911  18.148  0.00  0.00    -0.023 C 
ATOM     20  C   UNL     1     -11.493   7.330  20.464  0.00  0.00    +0.039 C 
ENDROOT
BRANCH   9  13
ATOM     13  C   UNL     1     -10.040  11.261  16.351  0.00  0.00    -0.013 C 
ATOM     18  C   UNL     1      -9.322  12.348  17.144  0.00  0.00    +0.007 C 
ATOM     19  C   UNL     1     -11.002  11.876  15.338  0.00  0.00    +0.007 C 
ENDBRANCH   9  13
BRANCH  10  16
ATOM     16  C   UNL     1     -11.160   8.350  15.727  0.00  0.00    +0.113 C 
BRANCH  16   6
ATOM      6  N   UNL     1     -12.563   8.035  16.037  0.00  0.00    -0.194 NA
ATOM     32  H   UNL     1     -12.680   7.203  16.629  0.00  0.00    +0.148 HD
BRANCH   6   1
ATOM      1  S   UNL     1     -13.754   8.255  14.832  0.00  0.00    +0.029 S 
ATOM      4  O   UNL     1     -13.856   7.060  14.019  0.00  0.00    -0.158 OA
ATOM      5  O   UNL     1     -13.559   9.555  14.220  0.00  0.00    -0.158 OA
BRANCH   1  22
ATOM     22  C   UNL     1     -15.218   8.357  15.838  0.00  0.00    +0.185 C 
BRANCH  22  23
ATOM     23  C   UNL     1     -14.896   8.861  17.235  0.00  0.00    +0.021 C 
ATOM     25  C   UNL     1     -15.275   7.841  18.295  0.00  0.00    +0.005 C 
ENDBRANCH  22  23
ENDBRANCH   1  22
ENDBRANCH   6   1
ENDBRANCH  16   6
ENDBRANCH  10  16
BRANCH  12  17
ATOM     17  C   UNL     1     -12.676  10.262  19.900  0.00  0.00    +0.105 C 
BRANCH  17  21
ATOM      3  O   UNL     1     -12.511  10.369  22.332  0.00  0.00    -0.420 OA
ATOM      7  N   UNL     1     -13.384  12.202  21.391  0.00  0.00    -0.112 NA
ATOM      8  N   UNL     1     -13.350  12.399  22.759  0.00  0.00    -0.107 NA
ATOM     21  C   UNL     1     -12.885  11.005  21.188  0.00  0.00    +0.218 A 
ATOM     24  C   UNL     1     -12.834  11.304  23.267  0.00  0.00    +0.251 A 
BRANCH  24  26
ATOM      2  F   UNL     1     -14.876  10.609  25.057  0.00  0.00    -0.205 F 
ATOM     26  C   UNL     1     -12.562  10.949  24.630  0.00  0.00    +0.074 A 
ATOM     27  C   UNL     1     -13.606  10.609  25.489  0.00  0.00    +0.136 A 
ATOM     28  C   UNL     1     -11.247  10.944  25.095  0.00  0.00    +0.016 A 
ATOM     29  C   UNL     1     -13.337  10.264  26.813  0.00  0.00    +0.039 A 
ATOM     30  C   UNL     1     -10.977  10.599  26.420  0.00  0.00    +0.001 A 
ATOM     31  C   UNL     1     -12.022  10.259  27.278  0.00  0.00    +0.003 A 
ENDBRANCH  24  26
ENDBRANCH  17  21
ENDBRANCH  12  17
TORSDOF 9
ENDMDL
MODEL 4
REMARK VINA RESULT:      -6.4     29.099     31.443
REMARK  Name = 45783947
REMARK  13 active torsions:
REMARK  status: ('A' for Active; 'I' for Inactive)
REMARK    1  A    between atoms: S_1  and  N_6
REMARK    2  A    between atoms: S_1  and  C_22
REMARK    3  A    between atoms: N_6  and  C_16
REMARK    4  A    between atoms: C_9  and  C_13
REMARK    5  A    between atoms: C_10  and  C_16
REMARK    6  A    between atoms: C_12  and  C_17
REMARK    7  A    between atoms: C_13  and  C_18
REMARK    8  A    between atoms: C_13  and  C_19
REMARK    9  A    between atoms: C_14  and  C_20
REMARK   10  A    between atoms: C_17  and  C_21
REMARK   11  A    between atoms: C_22  and  C_23
REMARK   12  A    between atoms: C_23  and  C_25
REMARK   13  A    between atoms: C_24  and  C_26
REMARK                            x       y       z     vdW  Elec       q    Type
REMARK                         _______ _______ _______ _____ _____    ______ ____
ROOT
ATOM      9  C   UNL     1      -6.382 -10.905  15.829  0.00  0.00    +0.000 C 
ATOM     10  C   UNL     1      -7.000 -10.822  17.247  0.00  0.00    +0.030 C 
ATOM     11  C   UNL     1      -5.414 -12.093  15.734  0.00  0.00    +0.012 C 
ATOM     12  C   UNL     1      -4.269 -11.996  16.760  0.00  0.00    +0.024 C 
ATOM     14  C   UNL     1      -4.781 -11.648  18.142  0.00  0.00    -0.073 C 
ATOM     15  C   UNL     1      -6.008 -11.137  18.342  0.00  0.00    -0.023 C 
ATOM     20  C   UNL     1      -3.865 -11.945  19.297  0.00  0.00    +0.039 C 
ENDROOT
BRANCH   9  13
ATOM     13  C   UNL     1      -7.459 -11.026  14.746  0.00  0.00    -0.013 C 
ATOM     18  C   UNL     1      -7.509 -12.449  14.201  0.00  0.00    +0.007 C 
ATOM     19  C   UNL     1      -7.200 -10.025  13.623  0.00  0.00    +0.007 C 
ENDBRANCH   9  13
BRANCH  10  16
ATOM     16  C   UNL     1      -7.620  -9.444  17.500  0.00  0.00    +0.113 C 
BRANCH  16   6
ATOM      6  N   UNL     1      -8.846  -9.606  18.297  0.00  0.00    -0.194 NA
ATOM     32  H   UNL     1      -8.913 -10.515  18.774  0.00  0.00    +0.148 HD
BRANCH   6   1
ATOM      1  S   UNL     1     -10.319  -8.977  17.702  0.00  0.00    +0.029 S 
ATOM      4  O   UNL     1     -10.151  -7.579  17.358  0.00  0.00    -0.158 OA
ATOM      5  O   UNL     1     -11.391  -9.402  18.582  0.00  0.00    -0.158 OA
BRANCH   1  22
ATOM     22  C   UNL     1     -10.478  -9.897  16.189  0.00  0.00    +0.185 C 
BRANCH  22  23
ATOM     23  C   UNL     1     -11.275 -11.174  16.398  0.00  0.00    +0.021 C 
ATOM     25  C   UNL     1     -10.365 -12.357  16.682  0.00  0.00    +0.005 C 
ENDBRANCH  22  23
ENDBRANCH   1  22
ENDBRANCH   6   1
ENDBRANCH  16   6
ENDBRANCH  10  16
BRANCH  12  17
ATOM     17  C   UNL     1      -3.202 -10.995  16.302  0.00  0.00    +0.105 C 
BRANCH  17  21
ATOM      3  O   UNL     1      -3.563 -10.616  13.918  0.00  0.00    -0.420 OA
ATOM      7  N   UNL     1      -1.827 -11.949  14.381  0.00  0.00    -0.112 NA
ATOM      8  N   UNL     1      -1.914 -11.822  13.007  0.00  0.00    -0.107 NA
ATOM     21  C   UNL     1      -2.809 -11.228  14.871  0.00  0.00    +0.218 A 
ATOM     24  C   UNL     1      -2.942 -11.036  12.783  0.00  0.00    +0.251 A 
BRANCH  24  26
ATOM      2  F   UNL     1      -5.312 -12.088  11.720  0.00  0.00    -0.205 F 
ATOM     26  C   UNL     1      -3.498 -10.560  11.550  0.00  0.00    +0.074 A 
ATOM     27  C   UNL     1      -4.680 -11.110  11.054  0.00  0.00    +0.136 A 
ATOM     28  C   UNL     1      -2.853  -9.543  10.846  0.00  0.00    +0.016 A 
ATOM     29  C   UNL     1      -5.217 -10.644   9.854  0.00  0.00    +0.039 A 
ATOM     30  C   UNL     1      -3.391  -9.077   9.645  0.00  0.00    +0.001 A 
ATOM     31  C   UNL     1      -4.573  -9.627   9.151  0.00  0.00    +0.003 A 
ENDBRANCH  24  26
ENDBRANCH  17  21
ENDBRANCH  12  17
TORSDOF 9
ENDMDL
MODEL 5
REMARK VINA RESULT:      -6.4     29.065     31.042
REMARK  Name = 45783947
REMARK  13 active torsions:
REMARK  status: ('A' for Active; 'I' for Inactive)
REMARK    1  A    between atoms: S_1  and  N_6
REMARK    2  A    between atoms: S_1  and  C_22
REMARK    3  A    between atoms: N_6  and  C_16
REMARK    4  A    between atoms: C_9  and  C_13
REMARK    5  A    between atoms: C_10  and  C_16
REMARK    6  A    between atoms: C_12  and  C_17
REMARK    7  A    between atoms: C_13  and  C_18
REMARK    8  A    between atoms: C_13  and  C_19
REMARK    9  A    between atoms: C_14  and  C_20
REMARK   10  A    between atoms: C_17  and  C_21
REMARK   11  A    between atoms: C_22  and  C_23
REMARK   12  A    between atoms: C_23  and  C_25
REMARK   13  A    between atoms: C_24  and  C_26
REMARK                            x       y       z     vdW  Elec       q    Type
REMARK                         _______ _______ _______ _____ _____    ______ ____
ROOT
ATOM      9  C   UNL     1     -11.721  10.162  18.160  0.00  0.00    +0.000 C 
ATOM     10  C   UNL     1     -11.551   8.737  17.576  0.00  0.00    +0.030 C 
ATOM     11  C   UNL     1     -11.110  10.242  19.567  0.00  0.00    +0.012 C 
ATOM     12  C   UNL     1     -11.753   9.236  20.540  0.00  0.00    +0.024 C 
ATOM     14  C   UNL     1     -11.867   7.855  19.928  0.00  0.00    -0.073 C 
ATOM     15  C   UNL     1     -11.760   7.650  18.603  0.00  0.00    -0.023 C 
ATOM     20  C   UNL     1     -12.058   6.707  20.879  0.00  0.00    +0.039 C 
ENDROOT
BRANCH   9  13
ATOM     13  C   UNL     1     -11.086  11.226  17.258  0.00  0.00    -0.013 C 
ATOM     18  C   UNL     1      -9.742  10.740  16.726  0.00  0.00    +0.007 C 
ATOM     19  C   UNL     1     -10.925  12.540  18.018  0.00  0.00    +0.007 C 
ENDBRANCH   9  13
BRANCH  10  16
ATOM     16  C   UNL     1     -12.495   8.510  16.391  0.00  0.00    +0.113 C 
BRANCH  16   6
ATOM      6  N   UNL     1     -11.727   7.964  15.262  0.00  0.00    -0.194 NA
ATOM     32  H   UNL     1     -10.719   8.162  15.311  0.00  0.00    +0.148 HD
BRANCH   6   1
ATOM      1  S   UNL     1     -12.407   7.996  13.695  0.00  0.00    +0.029 S 
ATOM      4  O   UNL     1     -13.030   6.720  13.404  0.00  0.00    -0.158 OA
ATOM      5  O   UNL     1     -11.439   8.575  12.782  0.00  0.00    -0.158 OA
BRANCH   1  22
ATOM     22  C   UNL     1     -13.700   9.195  13.926  0.00  0.00    +0.185 C 
BRANCH  22  23
ATOM     23  C   UNL     1     -13.389  10.492  13.198  0.00  0.00    +0.021 C 
ATOM     25  C   UNL     1     -12.851  11.549  14.148  0.00  0.00    +0.005 C 
ENDBRANCH  22  23
ENDBRANCH   1  22
ENDBRANCH   6   1
ENDBRANCH  16   6
ENDBRANCH  10  16
BRANCH  12  17
ATOM     17  C   UNL     1     -13.119   9.734  21.025  0.00  0.00    +0.105 C 
BRANCH  17  21
ATOM      3  O   UNL     1     -12.614  10.007  23.397  0.00  0.00    -0.420 OA
ATOM      7  N   UNL     1     -13.174  11.907  22.355  0.00  0.00    -0.112 NA
ATOM      8  N   UNL     1     -12.917  12.206  23.680  0.00  0.00    -0.107 NA
ATOM     21  C   UNL     1     -12.985  10.613  22.236  0.00  0.00    +0.218 A 
ATOM     24  C   UNL     1     -12.594  11.068  24.249  0.00  0.00    +0.251 A 
BRANCH  24  26
ATOM      2  F   UNL     1     -14.511  10.792  26.276  0.00  0.00    -0.205 F 
ATOM     26  C   UNL     1     -12.230  10.776  25.606  0.00  0.00    +0.074 A 
ATOM     27  C   UNL     1     -13.214  10.647  26.585  0.00  0.00    +0.136 A 
ATOM     28  C   UNL     1     -10.885  10.622  25.943  0.00  0.00    +0.016 A 
ATOM     29  C   UNL     1     -12.855  10.363  27.903  0.00  0.00    +0.039 A 
ATOM     30  C   UNL     1     -10.525  10.338  27.262  0.00  0.00    +0.001 A 
ATOM     31  C   UNL     1     -11.511  10.209  28.240  0.00  0.00    +0.003 A 
ENDBRANCH  24  26
ENDBRANCH  17  21
ENDBRANCH  12  17
TORSDOF 9
ENDMDL
MODEL 6
REMARK VINA RESULT:      -6.4     29.147     32.184
REMARK  Name = 45783947
REMARK  13 active torsions:
REMARK  status: ('A' for Active; 'I' for Inactive)
REMARK    1  A    between atoms: S_1  and  N_6
REMARK    2  A    between atoms: S_1  and  C_22
REMARK    3  A    between atoms: N_6  and  C_16
REMARK    4  A    between atoms: C_9  and  C_13
REMARK    5  A    between atoms: C_10  and  C_16
REMARK    6  A    between atoms: C_12  and  C_17
REMARK    7  A    between atoms: C_13  and  C_18
REMARK    8  A    between atoms: C_13  and  C_19
REMARK    9  A    between atoms: C_14  and  C_20
REMARK   10  A    between atoms: C_17  and  C_21
REMARK   11  A    between atoms: C_22  and  C_23
REMARK   12  A    between atoms: C_23  and  C_25
REMARK   13  A    between atoms: C_24  and  C_26
REMARK                            x       y       z     vdW  Elec       q    Type
REMARK                         _______ _______ _______ _____ _____    ______ ____
ROOT
ATOM      9  C   UNL     1      -6.486  -9.650   9.759  0.00  0.00    +0.000 C 
ATOM     10  C   UNL     1      -5.510  -9.278   8.614  0.00  0.00    +0.030 C 
ATOM     11  C   UNL     1      -6.064  -8.965  11.067  0.00  0.00    +0.012 C 
ATOM     12  C   UNL     1      -4.638  -9.357  11.496  0.00  0.00    +0.024 C 
ATOM     14  C   UNL     1      -3.660  -9.273  10.342  0.00  0.00    -0.073 C 
ATOM     15  C   UNL     1      -4.069  -9.225   9.062  0.00  0.00    -0.023 C 
ATOM     20  C   UNL     1      -2.201  -9.198  10.696  0.00  0.00    +0.039 C 
ENDROOT
BRANCH   9  13
ATOM     13  C   UNL     1      -7.932  -9.271   9.419  0.00  0.00    -0.013 C 
ATOM     18  C   UNL     1      -8.039  -7.776   9.138  0.00  0.00    +0.007 C 
ATOM     19  C   UNL     1      -8.869  -9.678  10.553  0.00  0.00    +0.007 C 
ENDBRANCH   9  13
BRANCH  10  16
ATOM     16  C   UNL     1      -5.644 -10.250   7.437  0.00  0.00    +0.113 C 
BRANCH  16   6
ATOM      6  N   UNL     1      -5.999  -9.493   6.227  0.00  0.00    -0.194 NA
ATOM     32  H   UNL     1      -5.740  -8.499   6.268  0.00  0.00    +0.148 HD
BRANCH   6   1
ATOM      1  S   UNL     1      -7.469  -9.837   5.427  0.00  0.00    +0.029 S 
ATOM      4  O   UNL     1      -8.269 -10.735   6.235  0.00  0.00    -0.158 OA
ATOM      5  O   UNL     1      -7.179 -10.146   4.039  0.00  0.00    -0.158 OA
BRANCH   1  22
ATOM     22  C   UNL     1      -8.240  -8.235   5.462  0.00  0.00    +0.185 C 
BRANCH  22  23
ATOM     23  C   UNL     1      -9.697  -8.331   5.883  0.00  0.00    +0.021 C 
ATOM     25  C   UNL     1     -10.277  -6.962   6.199  0.00  0.00    +0.005 C 
ENDBRANCH  22  23
ENDBRANCH   1  22
ENDBRANCH   6   1
ENDBRANCH  16   6
ENDBRANCH  10  16
BRANCH  12  17
ATOM     17  C   UNL     1      -4.617 -10.750  12.133  0.00  0.00    +0.105 C 
BRANCH  17  21
ATOM      3  O   UNL     1      -4.916 -10.844  14.554  0.00  0.00    -0.420 OA
ATOM      7  N   UNL     1      -2.793 -10.565  13.903  0.00  0.00    -0.112 NA
ATOM      8  N   UNL     1      -2.816 -10.601  15.285  0.00  0.00    -0.107 NA
ATOM     21  C   UNL     1      -4.041 -10.712  13.520  0.00  0.00    +0.218 A 
ATOM     24  C   UNL     1      -4.075 -10.764  15.620  0.00  0.00    +0.251 A 
BRANCH  24  26
ATOM      2  F   UNL     1      -6.349  -9.279  16.312  0.00  0.00    -0.205 F 
ATOM     26  C   UNL     1      -4.688 -10.871  16.912  0.00  0.00    +0.074 A 
ATOM     27  C   UNL     1      -5.819 -10.115  17.218  0.00  0.00    +0.136 A 
ATOM     28  C   UNL     1      -4.149 -11.736  17.865  0.00  0.00    +0.016 A 
ATOM     29  C   UNL     1      -6.412 -10.222  18.476  0.00  0.00    +0.039 A 
ATOM     30  C   UNL     1      -4.742 -11.843  19.124  0.00  0.00    +0.001 A 
ATOM     31  C   UNL     1      -5.873 -11.086  19.428  0.00  0.00    +0.003 A 
ENDBRANCH  24  26
ENDBRANCH  17  21
ENDBRANCH  12  17
TORSDOF 9
ENDMDL
MODEL 7
REMARK VINA RESULT:      -6.3     29.832     32.409
REMARK  Name = 45783947
REMARK  13 active torsions:
REMARK  status: ('A' for Active; 'I' for Inactive)
REMARK    1  A    between atoms: S_1  and  N_6
REMARK    2  A    between atoms: S_1  and  C_22
REMARK    3  A    between atoms: N_6  and  C_16
REMARK    4  A    between atoms: C_9  and  C_13
REMARK    5  A    between atoms: C_10  and  C_16
REMARK    6  A    between atoms: C_12  and  C_17
REMARK    7  A    between atoms: C_13  and  C_18
REMARK    8  A    between atoms: C_13  and  C_19
REMARK    9  A    between atoms: C_14  and  C_20
REMARK   10  A    between atoms: C_17  and  C_21
REMARK   11  A    between atoms: C_22  and  C_23
REMARK   12  A    between atoms: C_23  and  C_25
REMARK   13  A    between atoms: C_24  and  C_26
REMARK                            x       y       z     vdW  Elec       q    Type
REMARK                         _______ _______ _______ _____ _____    ______ ____
ROOT
ATOM      9  C   UNL     1     -12.090   9.650  32.173  0.00  0.00    +0.000 C 
ATOM     10  C   UNL     1     -11.419  10.121  33.488  0.00  0.00    +0.030 C 
ATOM     11  C   UNL     1     -13.502   9.116  32.454  0.00  0.00    +0.012 C 
ATOM     12  C   UNL     1     -13.493   7.938  33.446  0.00  0.00    +0.024 C 
ATOM     14  C   UNL     1     -12.626   8.227  34.655  0.00  0.00    -0.073 C 
ATOM     15  C   UNL     1     -11.715   9.216  34.660  0.00  0.00    -0.023 C 
ATOM     20  C   UNL     1     -12.865   7.383  35.876  0.00  0.00    +0.039 C 
ENDROOT
BRANCH   9  13
ATOM     13  C   UNL     1     -12.158  10.774  31.134  0.00  0.00    -0.013 C 
ATOM     18  C   UNL     1     -13.570  11.345  31.059  0.00  0.00    +0.007 C 
ATOM     19  C   UNL     1     -11.706  10.265  29.769  0.00  0.00    +0.007 C 
ENDBRANCH   9  13
BRANCH  10  16
ATOM     16  C   UNL     1      -9.902  10.257  33.316  0.00  0.00    +0.113 C 
BRANCH  16   6
ATOM      6  N   UNL     1      -9.235   9.786  34.540  0.00  0.00    -0.194 NA
ATOM     32  H   UNL     1      -9.743   9.036  35.027  0.00  0.00    +0.148 HD
BRANCH   6   1
ATOM      1  S   UNL     1      -8.447  10.917  35.550  0.00  0.00    +0.029 S 
ATOM      4  O   UNL     1      -9.328  12.037  35.813  0.00  0.00    -0.158 OA
ATOM      5  O   UNL     1      -7.104  11.131  35.044  0.00  0.00    -0.158 OA
BRANCH   1  22
ATOM     22  C   UNL     1      -8.304   9.970  37.048  0.00  0.00    +0.185 C 
BRANCH  22  23
ATOM     23  C   UNL     1      -8.475   8.484  36.783  0.00  0.00    +0.021 C 
ATOM     25  C   UNL     1      -9.601   7.894  37.617  0.00  0.00    +0.005 C 
ENDBRANCH  22  23
ENDBRANCH   1  22
ENDBRANCH   6   1
ENDBRANCH  16   6
ENDBRANCH  10  16
BRANCH  12  17
ATOM     17  C   UNL     1     -13.059   6.639  32.758  0.00  0.00    +0.105 C 
BRANCH  17  21
ATOM      3  O   UNL     1     -13.965   4.488  32.046  0.00  0.00    -0.420 OA
ATOM      7  N   UNL     1     -15.273   5.605  33.478  0.00  0.00    -0.112 NA
ATOM      8  N   UNL     1     -15.903   4.416  33.162  0.00  0.00    -0.107 NA
ATOM     21  C   UNL     1     -14.146   5.604  32.804  0.00  0.00    +0.218 A 
ATOM     24  C   UNL     1     -15.104   3.797  32.323  0.00  0.00    +0.251 A 
BRANCH  24  26
ATOM      2  F   UNL     1     -14.304   1.402  33.541  0.00  0.00    -0.205 F 
ATOM     26  C   UNL     1     -15.243   2.528  31.669  0.00  0.00    +0.074 A 
ATOM     27  C   UNL     1     -14.833   1.359  32.309  0.00  0.00    +0.136 A 
ATOM     28  C   UNL     1     -15.791   2.467  30.388  0.00  0.00    +0.016 A 
ATOM     29  C   UNL     1     -14.969   0.128  31.668  0.00  0.00    +0.039 A 
ATOM     30  C   UNL     1     -15.928   1.234  29.746  0.00  0.00    +0.001 A 
ATOM     31  C   UNL     1     -15.517   0.066  30.387  0.00  0.00    +0.003 A 
ENDBRANCH  24  26
ENDBRANCH  17  21
ENDBRANCH  12  17
TORSDOF 9
ENDMDL
MODEL 8
REMARK VINA RESULT:      -6.1     19.615     22.307
REMARK  Name = 45783947
REMARK  13 active torsions:
REMARK  status: ('A' for Active; 'I' for Inactive)
REMARK    1  A    between atoms: S_1  and  N_6
REMARK    2  A    between atoms: S_1  and  C_22
REMARK    3  A    between atoms: N_6  and  C_16
REMARK    4  A    between atoms: C_9  and  C_13
REMARK    5  A    between atoms: C_10  and  C_16
REMARK    6  A    between atoms: C_12  and  C_17
REMARK    7  A    between atoms: C_13  and  C_18
REMARK    8  A    between atoms: C_13  and  C_19
REMARK    9  A    between atoms: C_14  and  C_20
REMARK   10  A    between atoms: C_17  and  C_21
REMARK   11  A    between atoms: C_22  and  C_23
REMARK   12  A    between atoms: C_23  and  C_25
REMARK   13  A    between atoms: C_24  and  C_26
REMARK                            x       y       z     vdW  Elec       q    Type
REMARK                         _______ _______ _______ _____ _____    ______ ____
ROOT
ATOM      9  C   UNL     1       9.760   7.448   4.472  0.00  0.00    +0.000 C 
ATOM     10  C   UNL     1       9.836   6.224   5.420  0.00  0.00    +0.030 C 
ATOM     11  C   UNL     1       9.283   7.016   3.077  0.00  0.00    +0.012 C 
ATOM     12  C   UNL     1      10.213   5.965   2.442  0.00  0.00    +0.024 C 
ATOM     14  C   UNL     1      10.552   4.854   3.415  0.00  0.00    -0.073 C 
ATOM     15  C   UNL     1      10.364   4.983   4.740  0.00  0.00    -0.023 C 
ATOM     20  C   UNL     1      11.070   3.572   2.824  0.00  0.00    +0.039 C 
ENDROOT
BRANCH   9  13
ATOM     13  C   UNL     1       8.834   8.537   5.022  0.00  0.00    -0.013 C 
ATOM     18  C   UNL     1       7.657   8.763   4.079  0.00  0.00    +0.007 C 
ATOM     19  C   UNL     1       9.609   9.833   5.242  0.00  0.00    +0.007 C 
ENDBRANCH   9  13
BRANCH  10  16
ATOM     16  C   UNL     1      10.689   6.534   6.654  0.00  0.00    +0.113 C 
BRANCH  16   6
ATOM      6  N   UNL     1      12.092   6.203   6.365  0.00  0.00    -0.194 NA
ATOM     32  H   UNL     1      12.392   5.295   6.744  0.00  0.00    +0.148 HD
BRANCH   6   1
ATOM      1  S   UNL     1      13.269   7.442   6.407  0.00  0.00    +0.029 S 
ATOM      4  O   UNL     1      14.504   6.926   6.963  0.00  0.00    -0.158 OA
ATOM      5  O   UNL     1      12.657   8.642   6.944  0.00  0.00    -0.158 OA
BRANCH   1  22
ATOM     22  C   UNL     1      13.522   7.709   4.668  0.00  0.00    +0.185 C 
BRANCH  22  23
ATOM     23  C   UNL     1      14.959   7.418   4.266  0.00  0.00    +0.021 C 
ATOM     25  C   UNL     1      15.029   6.713   2.921  0.00  0.00    +0.005 C 
ENDBRANCH  22  23
ENDBRANCH   1  22
ENDBRANCH   6   1
ENDBRANCH  16   6
ENDBRANCH  10  16
BRANCH  12  17
ATOM     17  C   UNL     1      11.484   6.616   1.887  0.00  0.00    +0.105 C 
BRANCH  17  21
ATOM      3  O   UNL     1      10.907   5.305  -0.089  0.00  0.00    -0.420 OA
ATOM      7  N   UNL     1      12.463   6.872  -0.451  0.00  0.00    -0.112 NA
ATOM      8  N   UNL     1      12.236   6.212  -1.644  0.00  0.00    -0.107 NA
ATOM     21  C   UNL     1      11.666   6.310   0.428  0.00  0.00    +0.218 A 
ATOM     24  C   UNL     1      11.321   5.306  -1.385  0.00  0.00    +0.251 A 
BRANCH  24  26
ATOM      2  F   UNL     1      12.160   2.632  -1.453  0.00  0.00    -0.205 F 
ATOM     26  C   UNL     1      10.702   4.337  -2.242  0.00  0.00    +0.074 A 
ATOM     27  C   UNL     1      11.149   3.016  -2.246  0.00  0.00    +0.136 A 
ATOM     28  C   UNL     1       9.649   4.720  -3.073  0.00  0.00    +0.016 A 
ATOM     29  C   UNL     1      10.544   2.077  -3.082  0.00  0.00    +0.039 A 
ATOM     30  C   UNL     1       9.043   3.780  -3.909  0.00  0.00    +0.001 A 
ATOM     31  C   UNL     1       9.491   2.460  -3.913  0.00  0.00    +0.003 A 
ENDBRANCH  24  26
ENDBRANCH  17  21
ENDBRANCH  12  17
TORSDOF 9
ENDMDL
MODEL 9
REMARK VINA RESULT:      -6.1     17.857     20.939
REMARK  Name = 45783947
REMARK  13 active torsions:
REMARK  status: ('A' for Active; 'I' for Inactive)
REMARK    1  A    between atoms: S_1  and  N_6
REMARK    2  A    between atoms: S_1  and  C_22
REMARK    3  A    between atoms: N_6  and  C_16
REMARK    4  A    between atoms: C_9  and  C_13
REMARK    5  A    between atoms: C_10  and  C_16
REMARK    6  A    between atoms: C_12  and  C_17
REMARK    7  A    between atoms: C_13  and  C_18
REMARK    8  A    between atoms: C_13  and  C_19
REMARK    9  A    between atoms: C_14  and  C_20
REMARK   10  A    between atoms: C_17  and  C_21
REMARK   11  A    between atoms: C_22  and  C_23
REMARK   12  A    between atoms: C_23  and  C_25
REMARK   13  A    between atoms: C_24  and  C_26
REMARK                            x       y       z     vdW  Elec       q    Type
REMARK                         _______ _______ _______ _____ _____    ______ ____
ROOT
ATOM      9  C   UNL     1       8.937   8.651   4.305  0.00  0.00    +0.000 C 
ATOM     10  C   UNL     1       8.455   8.948   5.748  0.00  0.00    +0.030 C 
ATOM     11  C   UNL     1       8.783   7.157   3.985  0.00  0.00    +0.012 C 
ATOM     12  C   UNL     1       9.579   6.267   4.958  0.00  0.00    +0.024 C 
ATOM     14  C   UNL     1       9.362   6.676   6.401  0.00  0.00    -0.073 C 
ATOM     15  C   UNL     1       8.846   7.872   6.734  0.00  0.00    -0.023 C 
ATOM     20  C   UNL     1       9.709   5.659   7.452  0.00  0.00    +0.039 C 
ENDROOT
BRANCH   9  13
ATOM     13  C   UNL     1       8.176   9.484   3.269  0.00  0.00    -0.013 C 
ATOM     18  C   UNL     1       6.696   9.563   3.630  0.00  0.00    +0.007 C 
ATOM     19  C   UNL     1       8.362   8.896   1.873  0.00  0.00    +0.007 C 
ENDBRANCH   9  13
BRANCH  10  16
ATOM     16  C   UNL     1       8.975  10.304   6.236  0.00  0.00    +0.113 C 
BRANCH  16   6
ATOM      6  N   UNL     1      10.341  10.505   5.731  0.00  0.00    -0.194 NA
ATOM     32  H   UNL     1      10.536  10.010   4.850  0.00  0.00    +0.148 HD
BRANCH   6   1
ATOM      1  S   UNL     1      11.641  10.575   6.837  0.00  0.00    +0.029 S 
ATOM      4  O   UNL     1      11.207  10.093   8.134  0.00  0.00    -0.158 OA
ATOM      5  O   UNL     1      12.293  11.864   6.705  0.00  0.00    -0.158 OA
BRANCH   1  22
ATOM     22  C   UNL     1      12.730   9.356   6.138  0.00  0.00    +0.185 C 
BRANCH  22  23
ATOM     23  C   UNL     1      12.881   8.155   7.056  0.00  0.00    +0.021 C 
ATOM     25  C   UNL     1      14.078   7.303   6.668  0.00  0.00    +0.005 C 
ENDBRANCH  22  23
ENDBRANCH   1  22
ENDBRANCH   6   1
ENDBRANCH  16   6
ENDBRANCH  10  16
BRANCH  12  17
ATOM     17  C   UNL     1      11.071   6.264   4.608  0.00  0.00    +0.105 C 
BRANCH  17  21
ATOM      3  O   UNL     1      12.355   5.566   2.653  0.00  0.00    -0.420 OA
ATOM      7  N   UNL     1      10.858   4.057   3.353  0.00  0.00    -0.112 NA
ATOM      8  N   UNL     1      11.507   3.535   2.249  0.00  0.00    -0.107 NA
ATOM     21  C   UNL     1      11.385   5.243   3.552  0.00  0.00    +0.218 A 
ATOM     24  C   UNL     1      12.370   4.450   1.874  0.00  0.00    +0.251 A 
BRANCH  24  26
ATOM      2  F   UNL     1      14.902   3.268   2.104  0.00  0.00    -0.205 F 
ATOM     26  C   UNL     1      13.312   4.454   0.792  0.00  0.00    +0.074 A 
ATOM     27  C   UNL     1      14.561   3.855   0.946  0.00  0.00    +0.136 A 
ATOM     28  C   UNL     1      12.973   5.059  -0.418  0.00  0.00    +0.016 A 
ATOM     29  C   UNL     1      15.474   3.861  -0.109  0.00  0.00    +0.039 A 
ATOM     30  C   UNL     1      13.886   5.066  -1.474  0.00  0.00    +0.001 A 
ATOM     31  C   UNL     1      15.136   4.466  -1.319  0.00  0.00    +0.003 A 
ENDBRANCH  24  26
ENDBRANCH  17  21
ENDBRANCH  12  17
TORSDOF 9
ENDMDL
MODEL 10
REMARK VINA RESULT:      -6.1     29.056     32.387
REMARK  Name = 45783947
REMARK  13 active torsions:
REMARK  status: ('A' for Active; 'I' for Inactive)
REMARK    1  A    between atoms: S_1  and  N_6
REMARK    2  A    between atoms: S_1  and  C_22
REMARK    3  A    between atoms: N_6  and  C_16
REMARK    4  A    between atoms: C_9  and  C_13
REMARK    5  A    between atoms: C_10  and  C_16
REMARK    6  A    between atoms: C_12  and  C_17
REMARK    7  A    between atoms: C_13  and  C_18
REMARK    8  A    between atoms: C_13  and  C_19
REMARK    9  A    between atoms: C_14  and  C_20
REMARK   10  A    between atoms: C_17  and  C_21
REMARK   11  A    between atoms: C_22  and  C_23
REMARK   12  A    between atoms: C_23  and  C_25
REMARK   13  A    between atoms: C_24  and  C_26
REMARK                            x       y       z     vdW  Elec       q    Type
REMARK                         _______ _______ _______ _____ _____    ______ ____
ROOT
ATOM      9  C   UNL     1     -12.285   9.856  18.794  0.00  0.00    +0.000 C 
ATOM     10  C   UNL     1     -10.914   9.175  19.034  0.00  0.00    +0.030 C 
ATOM     11  C   UNL     1     -13.162   9.752  20.050  0.00  0.00    +0.012 C 
ATOM     12  C   UNL     1     -13.410   8.291  20.469  0.00  0.00    +0.024 C 
ATOM     14  C   UNL     1     -12.130   7.481  20.469  0.00  0.00    -0.073 C 
ATOM     15  C   UNL     1     -11.021   7.898  19.834  0.00  0.00    -0.023 C 
ATOM     20  C   UNL     1     -12.139   6.200  21.256  0.00  0.00    +0.039 C 
ENDROOT
BRANCH   9  13
ATOM     13  C   UNL     1     -12.127  11.326  18.392  0.00  0.00    -0.013 C 
ATOM     18  C   UNL     1     -12.286  12.231  19.609  0.00  0.00    +0.007 C 
ATOM     19  C   UNL     1     -13.138  11.692  17.309  0.00  0.00    +0.007 C 
ENDBRANCH   9  13
BRANCH  10  16
ATOM     16  C   UNL     1     -10.199   8.890  17.709  0.00  0.00    +0.113 C 
BRANCH  16   6
ATOM      6  N   UNL     1     -11.116   8.171  16.812  0.00  0.00    -0.194 NA
ATOM     32  H   UNL     1     -11.202   7.168  17.023  0.00  0.00    +0.148 HD
BRANCH   6   1
ATOM      1  S   UNL     1     -11.155   8.579  15.154  0.00  0.00    +0.029 S 
ATOM      4  O   UNL     1     -10.340   7.648  14.400  0.00  0.00    -0.158 OA
ATOM      5  O   UNL     1     -10.959  10.011  15.025  0.00  0.00    -0.158 OA
BRANCH   1  22
ATOM     22  C   UNL     1     -12.860   8.243  14.776  0.00  0.00    +0.185 C 
BRANCH  22  23
ATOM     23  C   UNL     1     -13.710   8.207  16.035  0.00  0.00    +0.021 C 
ATOM     25  C   UNL     1     -15.184   8.040  15.707  0.00  0.00    +0.005 C 
ENDBRANCH  22  23
ENDBRANCH   1  22
ENDBRANCH   6   1
ENDBRANCH  16   6
ENDBRANCH  10  16
BRANCH  12  17
ATOM     17  C   UNL     1     -14.474   7.635  19.583  0.00  0.00    +0.105 C 
BRANCH  17  21
ATOM      3  O   UNL     1     -15.584   5.886  20.872  0.00  0.00    -0.420 OA
ATOM      7  N   UNL     1     -16.750   7.790  20.718  0.00  0.00    -0.112 NA
ATOM      8  N   UNL     1     -17.490   6.896  21.468  0.00  0.00    -0.107 NA
ATOM     21  C   UNL     1     -15.646   7.158  20.392  0.00  0.00    +0.218 A 
ATOM     24  C   UNL     1     -16.772   5.798  21.532  0.00  0.00    +0.251 A 
BRANCH  24  26
ATOM      2  F   UNL     1     -15.406   5.000  23.846  0.00  0.00    -0.205 F 
ATOM     26  C   UNL     1     -17.039   4.546  22.178  0.00  0.00    +0.074 A 
ATOM     27  C   UNL     1     -16.338   4.186  23.328  0.00  0.00    +0.136 A 
ATOM     28  C   UNL     1     -18.005   3.688  21.652  0.00  0.00    +0.016 A 
ATOM     29  C   UNL     1     -16.601   2.967  23.953  0.00  0.00    +0.039 A 
ATOM     30  C   UNL     1     -18.269   2.468  22.277  0.00  0.00    +0.001 A 
ATOM     31  C   UNL     1     -17.567   2.109  23.428  0.00  0.00    +0.003 A 
ENDBRANCH  24  26
ENDBRANCH  17  21
ENDBRANCH  12  17
TORSDOF 9
ENDMDL
