MODEL 1
REMARK VINA RESULT:      -6.6      0.000      0.000
REMARK  Name = 56775429
REMARK  11 active torsions:
REMARK  status: ('A' for Active; 'I' for Inactive)
REMARK    1  A    between atoms: O_6  and  C_24
REMARK    2  A    between atoms: O_6  and  C_27
REMARK    3  A    between atoms: N_7  and  C_10
REMARK    4  A    between atoms: N_7  and  C_15
REMARK    5  A    between atoms: N_9  and  C_19
REMARK    6  A    between atoms: N_9  and  C_25
REMARK    7  A    between atoms: N_9  and  C_26
REMARK    8  A    between atoms: C_10  and  C_13
REMARK    9  A    between atoms: C_13  and  C_14
REMARK   10  A    between atoms: C_15  and  C_17
REMARK   11  A    between atoms: C_18  and  C_19
REMARK                            x       y       z     vdW  Elec       q    Type
REMARK                         _______ _______ _______ _____ _____    ______ ____
ROOT
ATOM      7  N   UNL     1      13.711   8.031  20.072  0.00  0.00    -0.302 NA
ATOM     28  H   UNL     1      14.214   8.714  20.637  0.00  0.00    +0.123 HD
ENDROOT
BRANCH   7  10
ATOM      4  O   UNL     1      11.586   7.498  22.160  0.00  0.00    -0.376 OA
ATOM     10  C   UNL     1      12.263   8.065  20.216  0.00  0.00    +0.072 C 
ATOM     11  C   UNL     1      11.914   8.757  21.529  0.00  0.00    +0.184 C 
ATOM     12  C   UNL     1      11.808   6.790  20.920  0.00  0.00    +0.184 C 
BRANCH  10  13
ATOM     13  C   UNL     1      11.544   8.503  18.932  0.00  0.00    +0.085 C 
BRANCH  13  14
ATOM      5  O   UNL     1      13.796   8.095  16.190  0.00  0.00    -0.358 OA
ATOM      8  N   UNL     1      12.929   7.593  17.154  0.00  0.00    -0.083 NA
ATOM     14  C   UNL     1      12.496   8.666  17.821  0.00  0.00    +0.086 A 
ATOM     16  C   UNL     1      13.048   9.860  17.328  0.00  0.00    +0.072 A 
ATOM     18  C   UNL     1      13.858   9.445  16.303  0.00  0.00    +0.151 A 
BRANCH  18  19
ATOM     19  C   UNL     1      14.756  10.161  15.330  0.00  0.00    +0.161 C 
BRANCH  19   9
ATOM      9  N   UNL     1      14.575  11.612  15.387  0.00  0.00    -0.301 NA
ATOM     25  C   UNL     1      15.871  12.289  15.397  0.00  0.00    +0.105 C 
ATOM     26  C   UNL     1      13.766  12.070  14.258  0.00  0.00    +0.105 C 
ENDBRANCH  19   9
ENDBRANCH  18  19
ENDBRANCH  13  14
ENDBRANCH  10  13
ENDBRANCH   7  10
BRANCH   7  15
ATOM     15  C   UNL     1      14.206   6.690  20.369  0.00  0.00    +0.117 C 
BRANCH  15  17
ATOM     17  C   UNL     1      15.710   6.625  20.327  0.00  0.00    -0.033 A 
ATOM     20  C   UNL     1      16.459   7.085  21.410  0.00  0.00    +0.008 A 
ATOM     21  C   UNL     1      16.354   6.105  19.203  0.00  0.00    +0.008 A 
ATOM     22  C   UNL     1      17.852   7.025  21.370  0.00  0.00    +0.046 A 
ATOM     23  C   UNL     1      17.747   6.045  19.164  0.00  0.00    +0.046 A 
ATOM     24  C   UNL     1      18.496   6.505  20.247  0.00  0.00    +0.130 A 
BRANCH  24   6
ATOM      6  O   UNL     1      19.855   6.447  20.209  0.00  0.00    -0.406 OA
BRANCH   6  27
ATOM      1  F   UNL     1      20.596   5.200  21.939  0.00  0.00    -0.133 F 
ATOM      2  F   UNL     1      19.758   4.162  20.208  0.00  0.00    -0.133 F 
ATOM      3  F   UNL     1      21.732   5.147  20.074  0.00  0.00    -0.133 F 
ATOM     27  C   UNL     1      20.489   5.230  20.591  0.00  0.00    +0.575 C 
ENDBRANCH   6  27
ENDBRANCH  24   6
ENDBRANCH  15  17
ENDBRANCH   7  15
TORSDOF 9
ENDMDL
MODEL 2
REMARK VINA RESULT:      -6.4      4.474      6.821
REMARK  Name = 56775429
REMARK  11 active torsions:
REMARK  status: ('A' for Active; 'I' for Inactive)
REMARK    1  A    between atoms: O_6  and  C_24
REMARK    2  A    between atoms: O_6  and  C_27
REMARK    3  A    between atoms: N_7  and  C_10
REMARK    4  A    between atoms: N_7  and  C_15
REMARK    5  A    between atoms: N_9  and  C_19
REMARK    6  A    between atoms: N_9  and  C_25
REMARK    7  A    between atoms: N_9  and  C_26
REMARK    8  A    between atoms: C_10  and  C_13
REMARK    9  A    between atoms: C_13  and  C_14
REMARK   10  A    between atoms: C_15  and  C_17
REMARK   11  A    between atoms: C_18  and  C_19
REMARK                            x       y       z     vdW  Elec       q    Type
REMARK                         _______ _______ _______ _____ _____    ______ ____
ROOT
ATOM      7  N   UNL     1      16.460   7.545  21.776  0.00  0.00    -0.302 NA
ATOM     28  H   UNL     1      15.645   8.146  21.894  0.00  0.00    +0.123 HD
ENDROOT
BRANCH   7  10
ATOM      4  O   UNL     1      19.434   7.073  21.470  0.00  0.00    -0.376 OA
ATOM     10  C   UNL     1      17.640   8.209  21.242  0.00  0.00    +0.072 C 
ATOM     11  C   UNL     1      18.443   7.204  20.425  0.00  0.00    +0.184 C 
ATOM     12  C   UNL     1      18.773   8.090  22.256  0.00  0.00    +0.184 C 
BRANCH  10  13
ATOM     13  C   UNL     1      17.329   9.583  20.631  0.00  0.00    +0.085 C 
BRANCH  13  14
ATOM      5  O   UNL     1      14.378  10.699  22.306  0.00  0.00    -0.358 OA
ATOM      8  N   UNL     1      15.708  10.294  22.298  0.00  0.00    -0.083 NA
ATOM     14  C   UNL     1      15.983  10.041  21.015  0.00  0.00    +0.086 A 
ATOM     16  C   UNL     1      14.879  10.266  20.176  0.00  0.00    +0.072 A 
ATOM     18  C   UNL     1      13.895  10.679  21.038  0.00  0.00    +0.151 A 
BRANCH  18  19
ATOM     19  C   UNL     1      12.459  11.093  20.858  0.00  0.00    +0.161 C 
BRANCH  19   9
ATOM      9  N   UNL     1      11.801  11.347  22.141  0.00  0.00    -0.301 NA
ATOM     25  C   UNL     1      11.033  12.590  22.084  0.00  0.00    +0.105 C 
ATOM     26  C   UNL     1      10.934  10.226  22.500  0.00  0.00    +0.105 C 
ENDBRANCH  19   9
ENDBRANCH  18  19
ENDBRANCH  13  14
ENDBRANCH  10  13
ENDBRANCH   7  10
BRANCH   7  15
ATOM     15  C   UNL     1      16.110   6.405  20.933  0.00  0.00    +0.117 C 
BRANCH  15  17
ATOM     17  C   UNL     1      14.979   6.728  19.993  0.00  0.00    -0.033 A 
ATOM     20  C   UNL     1      13.669   6.780  20.469  0.00  0.00    +0.008 A 
ATOM     21  C   UNL     1      15.242   6.976  18.645  0.00  0.00    +0.008 A 
ATOM     22  C   UNL     1      12.622   7.078  19.598  0.00  0.00    +0.046 A 
ATOM     23  C   UNL     1      14.194   7.275  17.774  0.00  0.00    +0.046 A 
ATOM     24  C   UNL     1      12.884   7.326  18.251  0.00  0.00    +0.130 A 
BRANCH  24   6
ATOM      6  O   UNL     1      11.861   7.617  17.402  0.00  0.00    -0.406 OA
BRANCH   6  27
ATOM      1  F   UNL     1      10.561   9.186  16.432  0.00  0.00    -0.133 F 
ATOM      2  F   UNL     1      12.230   9.858  17.672  0.00  0.00    -0.133 F 
ATOM      3  F   UNL     1      12.602   8.946  15.693  0.00  0.00    -0.133 F 
ATOM     27  C   UNL     1      11.831   8.908  16.800  0.00  0.00    +0.575 C 
ENDBRANCH   6  27
ENDBRANCH  24   6
ENDBRANCH  15  17
ENDBRANCH   7  15
TORSDOF 9
ENDMDL
MODEL 3
REMARK VINA RESULT:      -6.2      4.937      9.242
REMARK  Name = 56775429
REMARK  11 active torsions:
REMARK  status: ('A' for Active; 'I' for Inactive)
REMARK    1  A    between atoms: O_6  and  C_24
REMARK    2  A    between atoms: O_6  and  C_27
REMARK    3  A    between atoms: N_7  and  C_10
REMARK    4  A    between atoms: N_7  and  C_15
REMARK    5  A    between atoms: N_9  and  C_19
REMARK    6  A    between atoms: N_9  and  C_25
REMARK    7  A    between atoms: N_9  and  C_26
REMARK    8  A    between atoms: C_10  and  C_13
REMARK    9  A    between atoms: C_13  and  C_14
REMARK   10  A    between atoms: C_15  and  C_17
REMARK   11  A    between atoms: C_18  and  C_19
REMARK                            x       y       z     vdW  Elec       q    Type
REMARK                         _______ _______ _______ _____ _____    ______ ____
ROOT
ATOM      7  N   UNL     1      18.089   6.726  21.639  0.00  0.00    -0.302 NA
ATOM     28  H   UNL     1      17.425   7.159  22.280  0.00  0.00    +0.123 HD
ENDROOT
BRANCH   7  10
ATOM      4  O   UNL     1      19.796   8.393  23.501  0.00  0.00    -0.376 OA
ATOM     10  C   UNL     1      19.458   7.206  21.758  0.00  0.00    +0.072 C 
ATOM     11  C   UNL     1      19.934   6.987  23.190  0.00  0.00    +0.184 C 
ATOM     12  C   UNL     1      19.431   8.684  22.133  0.00  0.00    +0.184 C 
BRANCH  10  13
ATOM     13  C   UNL     1      20.355   6.749  20.600  0.00  0.00    +0.085 C 
BRANCH  13  14
ATOM      5  O   UNL     1      21.119   3.273  20.911  0.00  0.00    -0.358 OA
ATOM      8  N   UNL     1      20.298   4.320  20.507  0.00  0.00    -0.083 NA
ATOM     14  C   UNL     1      20.946   5.428  20.877  0.00  0.00    +0.086 A 
ATOM     16  C   UNL     1      22.167   5.147  21.511  0.00  0.00    +0.072 A 
ATOM     18  C   UNL     1      22.228   3.778  21.507  0.00  0.00    +0.151 A 
BRANCH  18  19
ATOM     19  C   UNL     1      23.236   2.778  22.008  0.00  0.00    +0.161 C 
BRANCH  19   9
ATOM      9  N   UNL     1      23.794   1.974  20.920  0.00  0.00    -0.301 NA
ATOM     25  C   UNL     1      24.601   2.809  20.031  0.00  0.00    +0.105 C 
ATOM     26  C   UNL     1      24.595   0.875  21.456  0.00  0.00    +0.105 C 
ENDBRANCH  19   9
ENDBRANCH  18  19
ENDBRANCH  13  14
ENDBRANCH  10  13
ENDBRANCH   7  10
BRANCH   7  15
ATOM     15  C   UNL     1      17.624   6.893  20.265  0.00  0.00    +0.117 C 
BRANCH  15  17
ATOM     17  C   UNL     1      16.122   6.964  20.185  0.00  0.00    -0.033 A 
ATOM     20  C   UNL     1      15.362   7.005  21.354  0.00  0.00    +0.008 A 
ATOM     21  C   UNL     1      15.491   6.988  18.941  0.00  0.00    +0.008 A 
ATOM     22  C   UNL     1      13.971   7.069  21.280  0.00  0.00    +0.046 A 
ATOM     23  C   UNL     1      14.099   7.053  18.867  0.00  0.00    +0.046 A 
ATOM     24  C   UNL     1      13.339   7.094  20.037  0.00  0.00    +0.130 A 
BRANCH  24   6
ATOM      6  O   UNL     1      11.982   7.157  19.965  0.00  0.00    -0.406 OA
BRANCH   6  27
ATOM      1  F   UNL     1      10.652   8.566  18.807  0.00  0.00    -0.133 F 
ATOM      2  F   UNL     1      10.518   8.585  20.988  0.00  0.00    -0.133 F 
ATOM      3  F   UNL     1      12.291   9.423  19.970  0.00  0.00    -0.133 F 
ATOM     27  C   UNL     1      11.367   8.441  19.948  0.00  0.00    +0.575 C 
ENDBRANCH   6  27
ENDBRANCH  24   6
ENDBRANCH  15  17
ENDBRANCH   7  15
TORSDOF 9
ENDMDL
MODEL 4
REMARK VINA RESULT:      -6.2     27.513     30.554
REMARK  Name = 56775429
REMARK  11 active torsions:
REMARK  status: ('A' for Active; 'I' for Inactive)
REMARK    1  A    between atoms: O_6  and  C_24
REMARK    2  A    between atoms: O_6  and  C_27
REMARK    3  A    between atoms: N_7  and  C_10
REMARK    4  A    between atoms: N_7  and  C_15
REMARK    5  A    between atoms: N_9  and  C_19
REMARK    6  A    between atoms: N_9  and  C_25
REMARK    7  A    between atoms: N_9  and  C_26
REMARK    8  A    between atoms: C_10  and  C_13
REMARK    9  A    between atoms: C_13  and  C_14
REMARK   10  A    between atoms: C_15  and  C_17
REMARK   11  A    between atoms: C_18  and  C_19
REMARK                            x       y       z     vdW  Elec       q    Type
REMARK                         _______ _______ _______ _____ _____    ______ ____
ROOT
ATOM      7  N   UNL     1      -5.451 -10.035  16.812  0.00  0.00    -0.302 NA
ATOM     28  H   UNL     1      -5.011  -9.200  16.427  0.00  0.00    +0.123 HD
ENDROOT
BRANCH   7  10
ATOM      4  O   UNL     1      -3.362 -11.849  15.587  0.00  0.00    -0.376 OA
ATOM     10  C   UNL     1      -4.528 -11.089  17.206  0.00  0.00    +0.072 C 
ATOM     11  C   UNL     1      -3.168 -10.813  16.576  0.00  0.00    +0.184 C 
ATOM     12  C   UNL     1      -4.619 -12.226  16.193  0.00  0.00    +0.184 C 
BRANCH  10  13
ATOM     13  C   UNL     1      -4.599 -11.418  18.704  0.00  0.00    +0.085 C 
BRANCH  13  14
ATOM      5  O   UNL     1      -7.846 -10.930  20.109  0.00  0.00    -0.358 OA
ATOM      8  N   UNL     1      -6.547 -10.514  19.843  0.00  0.00    -0.083 NA
ATOM     14  C   UNL     1      -5.996 -11.520  19.159  0.00  0.00    +0.086 A 
ATOM     16  C   UNL     1      -6.889 -12.587  18.965  0.00  0.00    +0.072 A 
ATOM     18  C   UNL     1      -8.038 -12.165  19.582  0.00  0.00    +0.151 A 
BRANCH  18  19
ATOM     19  C   UNL     1      -9.401 -12.775  19.776  0.00  0.00    +0.161 C 
BRANCH  19   9
ATOM      9  N   UNL     1     -10.454 -11.759  19.796  0.00  0.00    -0.301 NA
ATOM     25  C   UNL     1     -10.872 -11.429  18.434  0.00  0.00    +0.105 C 
ATOM     26  C   UNL     1     -11.596 -12.224  20.583  0.00  0.00    +0.105 C 
ENDBRANCH  19   9
ENDBRANCH  18  19
ENDBRANCH  13  14
ENDBRANCH  10  13
ENDBRANCH   7  10
BRANCH   7  15
ATOM     15  C   UNL     1      -6.424 -10.560  15.858  0.00  0.00    +0.117 C 
BRANCH  15  17
ATOM     17  C   UNL     1      -7.709  -9.776  15.878  0.00  0.00    -0.033 A 
ATOM     20  C   UNL     1      -8.093  -9.094  17.032  0.00  0.00    +0.008 A 
ATOM     21  C   UNL     1      -8.516  -9.732  14.740  0.00  0.00    +0.008 A 
ATOM     22  C   UNL     1      -9.284  -8.369  17.050  0.00  0.00    +0.046 A 
ATOM     23  C   UNL     1      -9.707  -9.005  14.758  0.00  0.00    +0.046 A 
ATOM     24  C   UNL     1     -10.091  -8.324  15.913  0.00  0.00    +0.130 A 
BRANCH  24   6
ATOM      6  O   UNL     1     -11.253  -7.616  15.931  0.00  0.00    -0.406 OA
BRANCH   6  27
ATOM      1  F   UNL     1     -11.287  -5.655  17.048  0.00  0.00    -0.133 F 
ATOM      2  F   UNL     1      -9.996  -5.815  15.292  0.00  0.00    -0.133 F 
ATOM      3  F   UNL     1     -12.192  -5.721  15.061  0.00  0.00    -0.133 F 
ATOM     27  C   UNL     1     -11.180  -6.199  15.815  0.00  0.00    +0.575 C 
ENDBRANCH   6  27
ENDBRANCH  24   6
ENDBRANCH  15  17
ENDBRANCH   7  15
TORSDOF 9
ENDMDL
MODEL 5
REMARK VINA RESULT:      -6.0     26.624     28.528
REMARK  Name = 56775429
REMARK  11 active torsions:
REMARK  status: ('A' for Active; 'I' for Inactive)
REMARK    1  A    between atoms: O_6  and  C_24
REMARK    2  A    between atoms: O_6  and  C_27
REMARK    3  A    between atoms: N_7  and  C_10
REMARK    4  A    between atoms: N_7  and  C_15
REMARK    5  A    between atoms: N_9  and  C_19
REMARK    6  A    between atoms: N_9  and  C_25
REMARK    7  A    between atoms: N_9  and  C_26
REMARK    8  A    between atoms: C_10  and  C_13
REMARK    9  A    between atoms: C_13  and  C_14
REMARK   10  A    between atoms: C_15  and  C_17
REMARK   11  A    between atoms: C_18  and  C_19
REMARK                            x       y       z     vdW  Elec       q    Type
REMARK                         _______ _______ _______ _____ _____    ______ ____
ROOT
ATOM      7  N   UNL     1      -4.678 -10.174  16.945  0.00  0.00    -0.302 NA
ATOM     28  H   UNL     1      -4.403  -9.357  17.489  0.00  0.00    +0.123 HD
ENDROOT
BRANCH   7  10
ATOM      4  O   UNL     1      -4.635 -11.684  19.568  0.00  0.00    -0.376 OA
ATOM     10  C   UNL     1      -5.466 -11.159  17.672  0.00  0.00    +0.072 C 
ATOM     11  C   UNL     1      -5.603 -10.707  19.122  0.00  0.00    +0.184 C 
ATOM     12  C   UNL     1      -4.528 -12.224  18.232  0.00  0.00    +0.184 C 
BRANCH  10  13
ATOM     13  C   UNL     1      -6.724 -11.600  16.910  0.00  0.00    +0.085 C 
BRANCH  13  14
ATOM      5  O   UNL     1      -9.731  -9.978  17.949  0.00  0.00    -0.358 OA
ATOM      8  N   UNL     1      -8.868 -11.068  17.923  0.00  0.00    -0.083 NA
ATOM     14  C   UNL     1      -7.845 -10.678  17.158  0.00  0.00    +0.086 A 
ATOM     16  C   UNL     1      -8.004  -9.368  16.678  0.00  0.00    +0.072 A 
ATOM     18  C   UNL     1      -9.206  -8.973  17.205  0.00  0.00    +0.151 A 
BRANCH  18  19
ATOM     19  C   UNL     1     -10.013  -7.705  17.122  0.00  0.00    +0.161 C 
BRANCH  19   9
ATOM      9  N   UNL     1     -10.281  -7.319  15.736  0.00  0.00    -0.301 NA
ATOM     25  C   UNL     1     -11.114  -8.324  15.078  0.00  0.00    +0.105 C 
ATOM     26  C   UNL     1     -10.927  -6.008  15.687  0.00  0.00    +0.105 C 
ENDBRANCH  19   9
ENDBRANCH  18  19
ENDBRANCH  13  14
ENDBRANCH  10  13
ENDBRANCH   7  10
BRANCH   7  15
ATOM     15  C   UNL     1      -3.491 -10.810  16.382  0.00  0.00    +0.117 C 
BRANCH  15  17
ATOM     17  C   UNL     1      -3.474 -10.734  14.878  0.00  0.00    -0.033 A 
ATOM     20  C   UNL     1      -4.671 -10.769  14.164  0.00  0.00    +0.008 A 
ATOM     21  C   UNL     1      -2.259 -10.629  14.199  0.00  0.00    +0.008 A 
ATOM     22  C   UNL     1      -4.655 -10.699  12.771  0.00  0.00    +0.046 A 
ATOM     23  C   UNL     1      -2.244 -10.559  12.805  0.00  0.00    +0.046 A 
ATOM     24  C   UNL     1      -3.442 -10.594  12.092  0.00  0.00    +0.130 A 
BRANCH  24   6
ATOM      6  O   UNL     1      -3.427 -10.526  10.733  0.00  0.00    -0.406 OA
BRANCH   6  27
ATOM      1  F   UNL     1      -4.176  -8.397  10.778  0.00  0.00    -0.133 F 
ATOM      2  F   UNL     1      -2.096  -8.743  10.203  0.00  0.00    -0.133 F 
ATOM      3  F   UNL     1      -3.741  -9.292   8.833  0.00  0.00    -0.133 F 
ATOM     27  C   UNL     1      -3.348  -9.242  10.123  0.00  0.00    +0.575 C 
ENDBRANCH   6  27
ENDBRANCH  24   6
ENDBRANCH  15  17
ENDBRANCH   7  15
TORSDOF 9
ENDMDL
MODEL 6
REMARK VINA RESULT:      -5.9      5.246      7.669
REMARK  Name = 56775429
REMARK  11 active torsions:
REMARK  status: ('A' for Active; 'I' for Inactive)
REMARK    1  A    between atoms: O_6  and  C_24
REMARK    2  A    between atoms: O_6  and  C_27
REMARK    3  A    between atoms: N_7  and  C_10
REMARK    4  A    between atoms: N_7  and  C_15
REMARK    5  A    between atoms: N_9  and  C_19
REMARK    6  A    between atoms: N_9  and  C_25
REMARK    7  A    between atoms: N_9  and  C_26
REMARK    8  A    between atoms: C_10  and  C_13
REMARK    9  A    between atoms: C_13  and  C_14
REMARK   10  A    between atoms: C_15  and  C_17
REMARK   11  A    between atoms: C_18  and  C_19
REMARK                            x       y       z     vdW  Elec       q    Type
REMARK                         _______ _______ _______ _____ _____    ______ ____
ROOT
ATOM      7  N   UNL     1      14.707  10.363  17.376  0.00  0.00    -0.302 NA
ATOM     28  H   UNL     1      15.618  10.814  17.310  0.00  0.00    +0.123 HD
ENDROOT
BRANCH   7  10
ATOM      4  O   UNL     1      13.781  10.932  14.552  0.00  0.00    -0.376 OA
ATOM     10  C   UNL     1      14.288   9.647  16.180  0.00  0.00    +0.072 C 
ATOM     11  C   UNL     1      14.989  10.256  14.971  0.00  0.00    +0.184 C 
ATOM     12  C   UNL     1      13.034  10.312  15.622  0.00  0.00    +0.184 C 
BRANCH  10  13
ATOM     13  C   UNL     1      14.305   8.122  16.358  0.00  0.00    +0.085 C 
BRANCH  13  14
ATOM      5  O   UNL     1      11.753   7.226  18.690  0.00  0.00    -0.358 OA
ATOM      8  N   UNL     1      12.180   7.627  17.430  0.00  0.00    -0.083 NA
ATOM     14  C   UNL     1      13.509   7.716  17.528  0.00  0.00    +0.086 A 
ATOM     16  C   UNL     1      13.973   7.387  18.813  0.00  0.00    +0.072 A 
ATOM     18  C   UNL     1      12.829   7.086  19.504  0.00  0.00    +0.151 A 
BRANCH  18  19
ATOM     19  C   UNL     1      12.549   6.652  20.919  0.00  0.00    +0.161 C 
BRANCH  19   9
ATOM      9  N   UNL     1      11.125   6.401  21.140  0.00  0.00    -0.301 NA
ATOM     25  C   UNL     1      10.922   5.063  21.693  0.00  0.00    +0.105 C 
ATOM     26  C   UNL     1      10.561   7.414  22.032  0.00  0.00    +0.105 C 
ENDBRANCH  19   9
ENDBRANCH  18  19
ENDBRANCH  13  14
ENDBRANCH  10  13
ENDBRANCH   7  10
BRANCH   7  15
ATOM     15  C   UNL     1      13.696  11.352  17.740  0.00  0.00    +0.117 C 
BRANCH  15  17
ATOM     17  C   UNL     1      13.385  11.322  19.212  0.00  0.00    -0.033 A 
ATOM     20  C   UNL     1      12.364  10.501  19.693  0.00  0.00    +0.008 A 
ATOM     21  C   UNL     1      14.117  12.115  20.096  0.00  0.00    +0.008 A 
ATOM     22  C   UNL     1      12.076  10.474  21.057  0.00  0.00    +0.046 A 
ATOM     23  C   UNL     1      13.829  12.087  21.461  0.00  0.00    +0.046 A 
ATOM     24  C   UNL     1      12.808  11.266  21.941  0.00  0.00    +0.130 A 
BRANCH  24   6
ATOM      6  O   UNL     1      12.526  11.239  23.272  0.00  0.00    -0.406 OA
BRANCH   6  27
ATOM      1  F   UNL     1      12.215  13.312  24.108  0.00  0.00    -0.133 F 
ATOM      2  F   UNL     1      10.643  12.466  22.847  0.00  0.00    -0.133 F 
ATOM      3  F   UNL     1      10.975  11.693  24.891  0.00  0.00    -0.133 F 
ATOM     27  C   UNL     1      11.574  12.168  23.779  0.00  0.00    +0.575 C 
ENDBRANCH   6  27
ENDBRANCH  24   6
ENDBRANCH  15  17
ENDBRANCH   7  15
TORSDOF 9
ENDMDL
MODEL 7
REMARK VINA RESULT:      -5.9      2.898      4.695
REMARK  Name = 56775429
REMARK  11 active torsions:
REMARK  status: ('A' for Active; 'I' for Inactive)
REMARK    1  A    between atoms: O_6  and  C_24
REMARK    2  A    between atoms: O_6  and  C_27
REMARK    3  A    between atoms: N_7  and  C_10
REMARK    4  A    between atoms: N_7  and  C_15
REMARK    5  A    between atoms: N_9  and  C_19
REMARK    6  A    between atoms: N_9  and  C_25
REMARK    7  A    between atoms: N_9  and  C_26
REMARK    8  A    between atoms: C_10  and  C_13
REMARK    9  A    between atoms: C_13  and  C_14
REMARK   10  A    between atoms: C_15  and  C_17
REMARK   11  A    between atoms: C_18  and  C_19
REMARK                            x       y       z     vdW  Elec       q    Type
REMARK                         _______ _______ _______ _____ _____    ______ ____
ROOT
ATOM      7  N   UNL     1      15.116   6.863  19.704  0.00  0.00    -0.302 NA
ATOM     28  H   UNL     1      15.688   7.042  18.879  0.00  0.00    +0.123 HD
ENDROOT
BRANCH   7  10
ATOM      4  O   UNL     1      12.139   6.412  19.405  0.00  0.00    -0.376 OA
ATOM     10  C   UNL     1      13.869   7.611  19.760  0.00  0.00    +0.072 C 
ATOM     11  C   UNL     1      12.860   6.824  20.589  0.00  0.00    +0.184 C 
ATOM     12  C   UNL     1      13.003   7.215  18.569  0.00  0.00    +0.184 C 
BRANCH  10  13
ATOM     13  C   UNL     1      14.078   9.101  20.065  0.00  0.00    +0.085 C 
BRANCH  13  14
ATOM      5  O   UNL     1      11.023  10.345  21.436  0.00  0.00    -0.358 OA
ATOM      8  N   UNL     1      11.793   9.869  20.381  0.00  0.00    -0.083 NA
ATOM     14  C   UNL     1      12.994   9.626  20.913  0.00  0.00    +0.086 A 
ATOM     16  C   UNL     1      13.043   9.927  22.284  0.00  0.00    +0.072 A 
ATOM     18  C   UNL     1      11.778  10.375  22.563  0.00  0.00    +0.151 A 
BRANCH  18  19
ATOM     19  C   UNL     1      11.099  10.868  23.813  0.00  0.00    +0.161 C 
BRANCH  19   9
ATOM      9  N   UNL     1      11.609  12.174  24.232  0.00  0.00    -0.301 NA
ATOM     25  C   UNL     1      11.430  13.158  23.165  0.00  0.00    +0.105 C 
ATOM     26  C   UNL     1      10.938  12.616  25.453  0.00  0.00    +0.105 C 
ENDBRANCH  19   9
ENDBRANCH  18  19
ENDBRANCH  13  14
ENDBRANCH  10  13
ENDBRANCH   7  10
BRANCH   7  15
ATOM     15  C   UNL     1      15.901   7.119  20.909  0.00  0.00    +0.117 C 
BRANCH  15  17
ATOM     17  C   UNL     1      17.315   6.620  20.774  0.00  0.00    -0.033 A 
ATOM     20  C   UNL     1      18.292   7.041  21.676  0.00  0.00    +0.008 A 
ATOM     21  C   UNL     1      17.648   5.738  19.746  0.00  0.00    +0.008 A 
ATOM     22  C   UNL     1      19.602   6.580  21.550  0.00  0.00    +0.046 A 
ATOM     23  C   UNL     1      18.959   5.276  19.621  0.00  0.00    +0.046 A 
ATOM     24  C   UNL     1      19.936   5.698  20.523  0.00  0.00    +0.130 A 
BRANCH  24   6
ATOM      6  O   UNL     1      21.214   5.248  20.401  0.00  0.00    -0.406 OA
BRANCH   6  27
ATOM      1  F   UNL     1      21.458   4.255  22.413  0.00  0.00    -0.133 F 
ATOM      2  F   UNL     1      20.756   3.034  20.743  0.00  0.00    -0.133 F 
ATOM      3  F   UNL     1      22.857   3.714  20.825  0.00  0.00    -0.133 F 
ATOM     27  C   UNL     1      21.576   4.051  21.082  0.00  0.00    +0.575 C 
ENDBRANCH   6  27
ENDBRANCH  24   6
ENDBRANCH  15  17
ENDBRANCH   7  15
TORSDOF 9
ENDMDL
MODEL 8
REMARK VINA RESULT:      -5.9     32.524     33.653
REMARK  Name = 56775429
REMARK  11 active torsions:
REMARK  status: ('A' for Active; 'I' for Inactive)
REMARK    1  A    between atoms: O_6  and  C_24
REMARK    2  A    between atoms: O_6  and  C_27
REMARK    3  A    between atoms: N_7  and  C_10
REMARK    4  A    between atoms: N_7  and  C_15
REMARK    5  A    between atoms: N_9  and  C_19
REMARK    6  A    between atoms: N_9  and  C_25
REMARK    7  A    between atoms: N_9  and  C_26
REMARK    8  A    between atoms: C_10  and  C_13
REMARK    9  A    between atoms: C_13  and  C_14
REMARK   10  A    between atoms: C_15  and  C_17
REMARK   11  A    between atoms: C_18  and  C_19
REMARK                            x       y       z     vdW  Elec       q    Type
REMARK                         _______ _______ _______ _____ _____    ______ ____
ROOT
ATOM      7  N   UNL     1     -15.199   2.118  30.034  0.00  0.00    -0.302 NA
ATOM     28  H   UNL     1     -14.523   2.359  29.310  0.00  0.00    +0.123 HD
ENDROOT
BRANCH   7  10
ATOM      4  O   UNL     1     -14.580  -0.828  29.723  0.00  0.00    -0.376 OA
ATOM     10  C   UNL     1     -14.841   0.967  30.850  0.00  0.00    +0.072 C 
ATOM     11  C   UNL     1     -13.694   0.223  30.174  0.00  0.00    +0.184 C 
ATOM     12  C   UNL     1     -15.692  -0.224  30.421  0.00  0.00    +0.184 C 
BRANCH  10  13
ATOM     13  C   UNL     1     -14.729   1.304  32.343  0.00  0.00    +0.085 C 
BRANCH  13  14
ATOM      5  O   UNL     1     -13.331   4.590  32.367  0.00  0.00    -0.358 OA
ATOM      8  N   UNL     1     -13.323   3.254  31.984  0.00  0.00    -0.083 NA
ATOM     14  C   UNL     1     -14.416   2.729  32.544  0.00  0.00    +0.086 A 
ATOM     16  C   UNL     1     -15.145   3.674  33.284  0.00  0.00    +0.072 A 
ATOM     18  C   UNL     1     -14.420   4.829  33.139  0.00  0.00    +0.151 A 
BRANCH  18  19
ATOM     19  C   UNL     1     -14.590   6.236  33.646  0.00  0.00    +0.161 C 
BRANCH  19   9
ATOM      9  N   UNL     1     -13.672   7.166  32.987  0.00  0.00    -0.301 NA
ATOM     25  C   UNL     1     -14.401   8.040  32.069  0.00  0.00    +0.105 C 
ATOM     26  C   UNL     1     -12.949   7.958  33.981  0.00  0.00    +0.105 C 
ENDBRANCH  19   9
ENDBRANCH  18  19
ENDBRANCH  13  14
ENDBRANCH  10  13
ENDBRANCH   7  10
BRANCH   7  15
ATOM     15  C   UNL     1     -16.510   1.905  29.427  0.00  0.00    +0.117 C 
BRANCH  15  17
ATOM     17  C   UNL     1     -16.466   2.055  27.930  0.00  0.00    -0.033 A 
ATOM     20  C   UNL     1     -16.730   0.957  27.111  0.00  0.00    +0.008 A 
ATOM     21  C   UNL     1     -16.162   3.292  27.361  0.00  0.00    +0.008 A 
ATOM     22  C   UNL     1     -16.689   1.096  25.724  0.00  0.00    +0.046 A 
ATOM     23  C   UNL     1     -16.121   3.431  25.973  0.00  0.00    +0.046 A 
ATOM     24  C   UNL     1     -16.385   2.332  25.155  0.00  0.00    +0.130 A 
BRANCH  24   6
ATOM      6  O   UNL     1     -16.345   2.467  23.802  0.00  0.00    -0.406 OA
BRANCH   6  27
ATOM      1  F   UNL     1     -17.759   1.195  22.586  0.00  0.00    -0.133 F 
ATOM      2  F   UNL     1     -18.616   2.720  23.896  0.00  0.00    -0.133 F 
ATOM      3  F   UNL     1     -17.553   3.302  22.048  0.00  0.00    -0.133 F 
ATOM     27  C   UNL     1     -17.575   2.439  23.085  0.00  0.00    +0.575 C 
ENDBRANCH   6  27
ENDBRANCH  24   6
ENDBRANCH  15  17
ENDBRANCH   7  15
TORSDOF 9
ENDMDL
MODEL 9
REMARK VINA RESULT:      -5.9     29.276     32.082
REMARK  Name = 56775429
REMARK  11 active torsions:
REMARK  status: ('A' for Active; 'I' for Inactive)
REMARK    1  A    between atoms: O_6  and  C_24
REMARK    2  A    between atoms: O_6  and  C_27
REMARK    3  A    between atoms: N_7  and  C_10
REMARK    4  A    between atoms: N_7  and  C_15
REMARK    5  A    between atoms: N_9  and  C_19
REMARK    6  A    between atoms: N_9  and  C_25
REMARK    7  A    between atoms: N_9  and  C_26
REMARK    8  A    between atoms: C_10  and  C_13
REMARK    9  A    between atoms: C_13  and  C_14
REMARK   10  A    between atoms: C_15  and  C_17
REMARK   11  A    between atoms: C_18  and  C_19
REMARK                            x       y       z     vdW  Elec       q    Type
REMARK                         _______ _______ _______ _____ _____    ______ ____
ROOT
ATOM      7  N   UNL     1     -16.152   4.114  26.709  0.00  0.00    -0.302 NA
ATOM     28  H   UNL     1     -16.527   4.896  27.244  0.00  0.00    +0.123 HD
ENDROOT
BRANCH   7  10
ATOM      4  O   UNL     1     -18.433   4.874  24.869  0.00  0.00    -0.376 OA
ATOM     10  C   UNL     1     -16.475   4.132  25.289  0.00  0.00    +0.072 C 
ATOM     11  C   UNL     1     -17.118   5.471  24.947  0.00  0.00    +0.184 C 
ATOM     12  C   UNL     1     -17.875   3.559  25.096  0.00  0.00    +0.184 C 
BRANCH  10  13
ATOM     13  C   UNL     1     -15.330   3.612  24.409  0.00  0.00    +0.085 C 
BRANCH  13  14
ATOM      5  O   UNL     1     -15.631   5.087  21.170  0.00  0.00    -0.358 OA
ATOM      8  N   UNL     1     -16.014   4.173  22.145  0.00  0.00    -0.083 NA
ATOM     14  C   UNL     1     -15.202   4.411  23.178  0.00  0.00    +0.086 A 
ATOM     16  C   UNL     1     -14.295   5.452  22.918  0.00  0.00    +0.072 A 
ATOM     18  C   UNL     1     -14.607   5.842  21.641  0.00  0.00    +0.151 A 
BRANCH  18  19
ATOM     19  C   UNL     1     -14.062   6.893  20.711  0.00  0.00    +0.161 C 
BRANCH  19   9
ATOM      9  N   UNL     1     -12.887   7.560  21.271  0.00  0.00    -0.301 NA
ATOM     25  C   UNL     1     -11.729   7.376  20.397  0.00  0.00    +0.105 C 
ATOM     26  C   UNL     1     -13.155   8.984  21.471  0.00  0.00    +0.105 C 
ENDBRANCH  19   9
ENDBRANCH  18  19
ENDBRANCH  13  14
ENDBRANCH  10  13
ENDBRANCH   7  10
BRANCH   7  15
ATOM     15  C   UNL     1     -16.598   2.856  27.302  0.00  0.00    +0.117 C 
BRANCH  15  17
ATOM     17  C   UNL     1     -15.907   2.576  28.609  0.00  0.00    -0.033 A 
ATOM     20  C   UNL     1     -15.263   3.607  29.294  0.00  0.00    +0.008 A 
ATOM     21  C   UNL     1     -15.909   1.284  29.135  0.00  0.00    +0.008 A 
ATOM     22  C   UNL     1     -14.622   3.346  30.504  0.00  0.00    +0.046 A 
ATOM     23  C   UNL     1     -15.268   1.023  30.347  0.00  0.00    +0.046 A 
ATOM     24  C   UNL     1     -14.624   2.055  31.031  0.00  0.00    +0.130 A 
BRANCH  24   6
ATOM      6  O   UNL     1     -13.998   1.801  32.213  0.00  0.00    -0.406 OA
BRANCH   6  27
ATOM      1  F   UNL     1     -14.355   1.427  34.409  0.00  0.00    -0.133 F 
ATOM      2  F   UNL     1     -14.033   3.487  33.757  0.00  0.00    -0.133 F 
ATOM      3  F   UNL     1     -15.920   2.443  33.274  0.00  0.00    -0.133 F 
ATOM     27  C   UNL     1     -14.585   2.306  33.408  0.00  0.00    +0.575 C 
ENDBRANCH   6  27
ENDBRANCH  24   6
ENDBRANCH  15  17
ENDBRANCH   7  15
TORSDOF 9
ENDMDL
MODEL 10
REMARK VINA RESULT:      -5.9     28.547     31.891
REMARK  Name = 56775429
REMARK  11 active torsions:
REMARK  status: ('A' for Active; 'I' for Inactive)
REMARK    1  A    between atoms: O_6  and  C_24
REMARK    2  A    between atoms: O_6  and  C_27
REMARK    3  A    between atoms: N_7  and  C_10
REMARK    4  A    between atoms: N_7  and  C_15
REMARK    5  A    between atoms: N_9  and  C_19
REMARK    6  A    between atoms: N_9  and  C_25
REMARK    7  A    between atoms: N_9  and  C_26
REMARK    8  A    between atoms: C_10  and  C_13
REMARK    9  A    between atoms: C_13  and  C_14
REMARK   10  A    between atoms: C_15  and  C_17
REMARK   11  A    between atoms: C_18  and  C_19
REMARK                            x       y       z     vdW  Elec       q    Type
REMARK                         _______ _______ _______ _____ _____    ______ ____
ROOT
ATOM      7  N   UNL     1     -15.992   5.243  24.851  0.00  0.00    -0.302 NA
ATOM     28  H   UNL     1     -14.984   5.188  24.708  0.00  0.00    +0.123 HD
ENDROOT
BRANCH   7  10
ATOM      4  O   UNL     1     -16.309   2.720  23.209  0.00  0.00    -0.376 OA
ATOM     10  C   UNL     1     -16.674   3.958  24.910  0.00  0.00    +0.072 C 
ATOM     11  C   UNL     1     -15.694   2.861  24.510  0.00  0.00    +0.184 C 
ATOM     12  C   UNL     1     -17.326   3.685  23.559  0.00  0.00    +0.184 C 
BRANCH  10  13
ATOM     13  C   UNL     1     -17.506   3.780  26.188  0.00  0.00    +0.085 C 
BRANCH  13  14
ATOM      5  O   UNL     1     -16.505   0.870  28.000  0.00  0.00    -0.358 OA
ATOM      8  N   UNL     1     -17.273   1.514  27.037  0.00  0.00    -0.083 NA
ATOM     14  C   UNL     1     -16.889   2.793  27.089  0.00  0.00    +0.086 A 
ATOM     16  C   UNL     1     -15.893   3.013  28.055  0.00  0.00    +0.072 A 
ATOM     18  C   UNL     1     -15.688   1.772  28.599  0.00  0.00    +0.151 A 
BRANCH  18  19
ATOM     19  C   UNL     1     -14.778   1.243  29.676  0.00  0.00    +0.161 C 
BRANCH  19   9
ATOM      9  N   UNL     1     -14.825  -0.217  29.761  0.00  0.00    -0.301 NA
ATOM     25  C   UNL     1     -13.535  -0.793  29.382  0.00  0.00    +0.105 C 
ATOM     26  C   UNL     1     -15.197  -0.637  31.111  0.00  0.00    +0.105 C 
ENDBRANCH  19   9
ENDBRANCH  18  19
ENDBRANCH  13  14
ENDBRANCH  10  13
ENDBRANCH   7  10
BRANCH   7  15
ATOM     15  C   UNL     1     -16.590   6.073  23.809  0.00  0.00    +0.117 C 
BRANCH  15  17
ATOM     17  C   UNL     1     -15.547   6.681  22.909  0.00  0.00    -0.033 A 
ATOM     20  C   UNL     1     -15.020   5.941  21.851  0.00  0.00    +0.008 A 
ATOM     21  C   UNL     1     -15.108   7.986  23.135  0.00  0.00    +0.008 A 
ATOM     22  C   UNL     1     -14.054   6.505  21.019  0.00  0.00    +0.046 A 
ATOM     23  C   UNL     1     -14.141   8.551  22.301  0.00  0.00    +0.046 A 
ATOM     24  C   UNL     1     -13.614   7.809  21.243  0.00  0.00    +0.130 A 
BRANCH  24   6
ATOM      6  O   UNL     1     -12.672   8.359  20.431  0.00  0.00    -0.406 OA
BRANCH   6  27
ATOM      1  F   UNL     1     -11.212   6.860  21.276  0.00  0.00    -0.133 F 
ATOM      2  F   UNL     1     -11.612   6.806  19.129  0.00  0.00    -0.133 F 
ATOM      3  F   UNL     1     -10.426   8.453  20.005  0.00  0.00    -0.133 F 
ATOM     27  C   UNL     1     -11.475   7.625  20.193  0.00  0.00    +0.575 C 
ENDBRANCH   6  27
ENDBRANCH  24   6
ENDBRANCH  15  17
ENDBRANCH   7  15
TORSDOF 9
ENDMDL
