REMARK  Name = 26742458
REMARK  6 active torsions:
REMARK  status: ('A' for Active; 'I' for Inactive)
REMARK    1  A    between atoms: N_4  and  C_15
REMARK    2  A    between atoms: N_7  and  C_24
REMARK    3  A    between atoms: C_9  and  C_16
REMARK    4  A    between atoms: C_10  and  C_15
REMARK    5  A    between atoms: C_18  and  C_21
REMARK    6  A    between atoms: C_19  and  C_22
REMARK                            x       y       z     vdW  Elec       q    Type
REMARK                         _______ _______ _______ _____ _____    ______ ____
ROOT
ATOM      3  N   UNL     1       0.029   2.672   0.820  0.00  0.00    -0.297 NA
ATOM      8  C   UNL     1      -0.690   2.057  -1.606  0.00  0.00    +0.002 C 
ATOM      9  C   UNL     1      -1.887   1.901  -0.628  0.00  0.00    +0.055 C 
ATOM     10  C   UNL     1       0.999   1.711   0.231  0.00  0.00    +0.074 C 
ATOM     11  C   UNL     1       0.482   1.177  -1.122  0.00  0.00    +0.024 C 
ATOM     12  C   UNL     1      -0.225   3.526  -1.509  0.00  0.00    +0.019 C 
ATOM     13  C   UNL     1      -1.335   2.086   0.814  0.00  0.00    +0.094 C 
ATOM     14  C   UNL     1       0.015   3.885  -0.032  0.00  0.00    +0.085 C 
ENDROOT
BRANCH   9  16
ATOM      5  N   UNL     1      -2.422  -0.225  -1.713  0.00  0.00    -0.237 NA
ATOM      6  N   UNL     1      -4.298  -1.577  -1.033  0.00  0.00    -0.229 NA
ATOM     16  C   UNL     1      -2.763   0.663  -0.756  0.00  0.00    +0.050 A 
ATOM     17  C   UNL     1      -3.842   0.503   0.089  0.00  0.00    +0.055 A 
ATOM     18  C   UNL     1      -4.581  -0.648  -0.097  0.00  0.00    +0.110 A 
ATOM     19  C   UNL     1      -3.221  -1.306  -1.795  0.00  0.00    +0.127 A 
ATOM     22  C   UNL     1      -2.876  -2.312  -2.840  0.00  0.00    +0.088 C 
BRANCH  18  21
ATOM      2  O   UNL     1      -6.369  -2.106   0.425  0.00  0.00    -0.461 OA
ATOM     21  C   UNL     1      -5.733  -0.940   0.714  0.00  0.00    +0.153 A 
ATOM     23  C   UNL     1      -6.362  -0.291   1.751  0.00  0.00    +0.051 A 
ATOM     25  C   UNL     1      -7.455  -1.110   2.122  0.00  0.00    +0.042 A 
ATOM     26  C   UNL     1      -7.415  -2.202   1.286  0.00  0.00    +0.196 A 
ENDBRANCH  18  21
ENDBRANCH   9  16
BRANCH  10  15
ATOM     15  C   UNL     1       1.353   0.576   1.194  0.00  0.00    +0.124 C 
BRANCH  15   4
ATOM      1  O   UNL     1       4.183   0.895   1.498  0.00  0.00    -0.253 OA
ATOM      4  N   UNL     1       2.372  -0.262   0.642  0.00  0.00    -0.298 N 
ATOM      7  N   UNL     1       4.502  -1.020   0.178  0.00  0.00    -0.269 N 
ATOM     20  C   UNL     1       3.748  -0.043   0.835  0.00  0.00    +0.304 C 
ATOM     32  H   UNL     1       2.086  -1.056   0.077  0.00  0.00    +0.150 HD
ATOM     33  H   UNL     1       3.983  -1.731  -0.331  0.00  0.00    +0.156 HD
BRANCH   7  24
ATOM     24  C   UNL     1       5.910  -1.145   0.133  0.00  0.00    +0.035 A 
ATOM     27  C   UNL     1       6.495  -2.192  -0.579  0.00  0.00    +0.023 A 
ATOM     28  C   UNL     1       6.714  -0.221   0.800  0.00  0.00    +0.023 A 
ATOM     29  C   UNL     1       7.883  -2.316  -0.623  0.00  0.00    +0.002 A 
ATOM     30  C   UNL     1       8.103  -0.344   0.755  0.00  0.00    +0.002 A 
ATOM     31  C   UNL     1       8.687  -1.391   0.044  0.00  0.00    +0.000 A 
ENDBRANCH   7  24
ENDBRANCH  15   4
ENDBRANCH  10  15
TORSDOF 5
