REMARK  Name = 51138049
REMARK  9 active torsions:
REMARK  status: ('A' for Active; 'I' for Inactive)
REMARK    1  A    between atoms: N_3  and  C_20
REMARK    2  A    between atoms: N_4  and  C_25
REMARK    3  A    between atoms: C_7  and  C_11
REMARK    4  A    between atoms: C_10  and  C_18
REMARK    5  A    between atoms: C_11  and  C_15
REMARK    6  A    between atoms: C_15  and  C_22
REMARK    7  A    between atoms: C_15  and  C_23
REMARK    8  A    between atoms: C_20  and  C_24
REMARK    9  A    between atoms: C_25  and  C_28
REMARK                            x       y       z     vdW  Elec       q    Type
REMARK                         _______ _______ _______ _____ _____    ______ ____
ROOT
ATOM      2  N   UNL     1      -1.254  -0.254  -0.184  0.00  0.00    -0.299 NA
ATOM      3  N   UNL     1       3.541   0.833   0.972  0.00  0.00    -0.342 N 
ATOM      7  C   UNL     1      -0.704  -1.474   0.421  0.00  0.00    +0.085 C 
ATOM      8  C   UNL     1       0.804  -1.464   0.696  0.00  0.00    -0.021 A 
ATOM      9  C   UNL     1       1.623  -0.299   0.735  0.00  0.00    +0.008 A 
ATOM     10  C   UNL     1      -1.154   0.936   0.648  0.00  0.00    +0.145 C 
ATOM     12  C   UNL     1       1.370   1.107   0.566  0.00  0.00    -0.020 A 
ATOM     13  C   UNL     1       0.068   1.776   0.281  0.00  0.00    +0.065 C 
ATOM     14  C   UNL     1       2.989  -0.425   1.012  0.00  0.00    +0.050 A 
ATOM     16  C   UNL     1       2.577   1.762   0.711  0.00  0.00    +0.091 A 
ATOM     17  C   UNL     1       1.443  -2.689   1.016  0.00  0.00    +0.006 A 
ATOM     19  C   UNL     1       3.609  -1.647   1.278  0.00  0.00    +0.026 A 
ATOM     21  C   UNL     1       2.807  -2.780   1.289  0.00  0.00    +0.002 A 
ATOM     35  H   UNL     1      -0.852  -0.093  -1.107  0.00  0.00    +0.123 HD
ENDROOT
BRANCH  10  18
ATOM      1  O   UNL     1      -2.434   2.569  -0.530  0.00  0.00    -0.274 OA
ATOM      4  N   UNL     1      -3.436   1.392   1.211  0.00  0.00    -0.308 N 
ATOM     18  C   UNL     1      -2.396   1.723   0.359  0.00  0.00    +0.231 C 
ATOM     36  H   UNL     1      -3.303   0.656   1.899  0.00  0.00    +0.149 HD
BRANCH   4  25
ATOM     25  C   UNL     1      -4.734   2.023   1.155  0.00  0.00    +0.159 C 
BRANCH  25  28
ATOM      6  N   UNL     1      -5.503   1.406  -1.065  0.00  0.00    -0.258 NA
ATOM     28  C   UNL     1      -5.686   1.273   0.268  0.00  0.00    +0.058 A 
ATOM     31  C   UNL     1      -6.682   0.500   0.841  0.00  0.00    +0.025 A 
ATOM     32  C   UNL     1      -7.547  -0.182  -0.008  0.00  0.00    +0.003 A 
ATOM     33  C   UNL     1      -6.363   0.729  -1.859  0.00  0.00    +0.111 A 
ATOM     34  C   UNL     1      -7.391  -0.070  -1.385  0.00  0.00    +0.020 A 
ENDBRANCH  25  28
ENDBRANCH   4  25
ENDBRANCH  10  18
BRANCH   7  11
ATOM     11  C   UNL     1      -1.121  -2.606  -0.535  0.00  0.00    +0.026 C 
BRANCH  11  15
ATOM     15  C   UNL     1      -2.595  -2.998  -0.390  0.00  0.00    -0.015 C 
ATOM     22  C   UNL     1      -2.902  -4.162  -1.335  0.00  0.00    +0.007 C 
ATOM     23  C   UNL     1      -3.545  -1.835  -0.677  0.00  0.00    +0.007 C 
ENDBRANCH  11  15
ENDBRANCH   7  11
BRANCH   3  20
ATOM     20  C   UNL     1       4.936   1.149   1.192  0.00  0.00    +0.157 C 
BRANCH  20  24
ATOM      5  N   UNL     1       7.425   0.362  -2.229  0.00  0.00    -0.263 NA
ATOM     24  C   UNL     1       5.808   0.873  -0.007  0.00  0.00    -0.025 A 
ATOM     26  C   UNL     1       6.895   0.013   0.104  0.00  0.00    +0.025 A 
ATOM     27  C   UNL     1       5.529   1.478  -1.227  0.00  0.00    +0.025 A 
ATOM     29  C   UNL     1       7.665  -0.208  -1.027  0.00  0.00    +0.111 A 
ATOM     30  C   UNL     1       6.360   1.192  -2.298  0.00  0.00    +0.111 A 
ENDBRANCH  20  24
ENDBRANCH   3  20
TORSDOF 7
