REMARK  Name = 7134359
REMARK  9 active torsions:
REMARK  status: ('A' for Active; 'I' for Inactive)
REMARK    1  A    between atoms: N_8  and  C_13
REMARK    2  A    between atoms: N_9  and  C_20
REMARK    3  A    between atoms: C_14  and  C_18
REMARK    4  A    between atoms: C_19  and  C_22
REMARK    5  A    between atoms: C_20  and  C_23
REMARK    6  A    between atoms: C_20  and  C_25
REMARK    7  A    between atoms: C_21  and  C_24
REMARK    8  A    between atoms: C_23  and  C_27
REMARK    9  A    between atoms: C_28  and  C_33
REMARK                            x       y       z     vdW  Elec       q    Type
REMARK                         _______ _______ _______ _____ _____    ______ ____
ROOT
ATOM      3  O   UNL     1       4.625  -0.014   0.807  0.00  0.00    -0.267 OA
ATOM      7  N   UNL     1       2.611   0.852   0.041  0.00  0.00    -0.283 N 
ATOM     13  C   UNL     1      -0.304   1.087  -0.027  0.00  0.00    +0.077 C 
ATOM     14  C   UNL     1       1.796  -0.127   0.771  0.00  0.00    +0.164 C 
ATOM     15  C   UNL     1       0.400   0.379   1.133  0.00  0.00    +0.054 C 
ATOM     16  C   UNL     1       0.602   2.172  -0.602  0.00  0.00    +0.041 C 
ATOM     17  C   UNL     1       1.944   1.598  -1.040  0.00  0.00    +0.111 C 
ATOM     19  C   UNL     1       3.995   0.930   0.325  0.00  0.00    +0.283 C 
ENDROOT
BRANCH  19  22
ATOM      4  O   UNL     1       3.949   3.324   0.101  0.00  0.00    -0.458 OA
ATOM     22  C   UNL     1       4.676   2.184   0.025  0.00  0.00    +0.189 A 
ATOM     26  C   UNL     1       5.970   2.443  -0.337  0.00  0.00    +0.054 A 
ATOM     29  C   UNL     1       6.052   3.847  -0.496  0.00  0.00    +0.042 A 
ATOM     30  C   UNL     1       4.797   4.337  -0.219  0.00  0.00    +0.196 A 
ENDBRANCH  19  22
BRANCH  14  18
ATOM      2  O   UNL     1       2.275  -1.403  -1.190  0.00  0.00    -0.274 OA
ATOM      9  N   UNL     1       1.042  -2.387   0.521  0.00  0.00    -0.302 N 
ATOM     18  C   UNL     1       1.749  -1.361  -0.081  0.00  0.00    +0.234 C 
ATOM     38  H   UNL     1       0.769  -2.291   1.495  0.00  0.00    +0.150 HD
BRANCH   9  20
ATOM     20  C   UNL     1       0.831  -3.674  -0.102  0.00  0.00    +0.163 C 
BRANCH  20  25
ATOM      6  O   UNL     1       2.638  -4.483   1.308  0.00  0.00    -0.274 OA
ATOM     10  N   UNL     1       2.353  -5.431  -0.765  0.00  0.00    -0.328 N 
ATOM     25  C   UNL     1       2.036  -4.539   0.238  0.00  0.00    +0.231 C 
ATOM     39  H   UNL     1       1.832  -5.481  -1.635  0.00  0.00    +0.145 HD
ATOM     40  H   UNL     1       3.128  -6.078  -0.661  0.00  0.00    +0.145 HD
ENDBRANCH  20  25
BRANCH  20  23
ATOM     23  C   UNL     1      -0.460  -4.346   0.378  0.00  0.00    +0.067 C 
BRANCH  23  27
ATOM     27  C   UNL     1      -1.690  -3.518   0.093  0.00  0.00    -0.045 A 
ATOM     31  C   UNL     1      -2.126  -2.603   1.038  0.00  0.00    +0.004 A 
ATOM     32  C   UNL     1      -2.360  -3.687  -1.108  0.00  0.00    +0.004 A 
ATOM     34  C   UNL     1      -3.262  -1.837   0.775  0.00  0.00    +0.000 A 
ATOM     35  C   UNL     1      -3.496  -2.922  -1.371  0.00  0.00    +0.000 A 
ATOM     36  C   UNL     1      -3.947  -1.997  -0.430  0.00  0.00    +0.000 A 
ENDBRANCH  23  27
ENDBRANCH  20  23
ENDBRANCH   9  20
ENDBRANCH  14  18
BRANCH  13   8
ATOM      5  O   UNL     1      -2.606   1.399  -1.627  0.00  0.00    -0.270 OA
ATOM      8  N   UNL     1      -1.564   1.646   0.405  0.00  0.00    -0.308 N 
ATOM     21  C   UNL     1      -2.657   1.766  -0.452  0.00  0.00    +0.254 C 
ATOM     37  H   UNL     1      -1.638   1.996   1.356  0.00  0.00    +0.149 HD
BRANCH  21  24
ATOM      1  S   UNL     1      -3.889   2.776   1.774  0.00  0.00    +0.041 S 
ATOM     11  N   UNL     1      -6.009   3.107   0.481  0.00  0.00    -0.146 NA
ATOM     12  N   UNL     1      -5.487   3.268   1.686  0.00  0.00    -0.110 NA
ATOM     24  C   UNL     1      -3.879   2.325   0.144  0.00  0.00    +0.117 A 
ATOM     28  C   UNL     1      -5.088   2.567  -0.403  0.00  0.00    +0.081 A 
ATOM     33  C   UNL     1      -5.518   2.324  -1.795  0.00  0.00    +0.069 C 
ENDBRANCH  21  24
ENDBRANCH  13   8
TORSDOF 8
