MODEL 1
REMARK VINA RESULT:      -6.6      0.000      0.000
REMARK  Name = 28960195
REMARK  11 active torsions:
REMARK  status: ('A' for Active; 'I' for Inactive)
REMARK    1  A    between atoms: O_2  and  C_17
REMARK    2  A    between atoms: N_6  and  C_15
REMARK    3  A    between atoms: N_6  and  C_18
REMARK    4  A    between atoms: N_6  and  C_20
REMARK    5  A    between atoms: N_7  and  C_19
REMARK    6  A    between atoms: C_8  and  C_12
REMARK    7  A    between atoms: C_9  and  C_14
REMARK    8  A    between atoms: C_12  and  C_15
REMARK    9  A    between atoms: C_14  and  C_17
REMARK   10  A    between atoms: C_16  and  C_21
REMARK   11  A    between atoms: C_18  and  C_19
REMARK                            x       y       z     vdW  Elec       q    Type
REMARK                         _______ _______ _______ _____ _____    ______ ____
ROOT
ATOM      1  O   UNL     1      -1.490  -9.915  12.363  0.00  0.00    -0.270 OA
ATOM      5  N   UNL     1      -2.661 -11.367  13.776  0.00  0.00    -0.297 N 
ATOM      8  C   UNL     1      -4.512 -11.775  15.384  0.00  0.00    +0.012 C 
ATOM      9  C   UNL     1      -3.469 -11.745  16.531  0.00  0.00    +0.006 C 
ATOM     10  C   UNL     1      -3.833 -12.204  14.070  0.00  0.00    +0.112 C 
ATOM     11  C   UNL     1      -2.242 -10.896  16.157  0.00  0.00    +0.023 C 
ATOM     13  C   UNL     1      -1.644 -11.343  14.826  0.00  0.00    +0.108 C 
ATOM     16  C   UNL     1      -2.467 -10.621  12.611  0.00  0.00    +0.247 C 
ENDROOT
BRANCH  16  21
ATOM     21  C   UNL     1      -3.508 -10.669  11.579  0.00  0.00    +0.037 A 
ATOM     28  C   UNL     1      -3.477 -11.663  10.602  0.00  0.00    +0.013 A 
ATOM     29  C   UNL     1      -4.531  -9.720  11.576  0.00  0.00    +0.013 A 
ATOM     32  C   UNL     1      -4.469 -11.709   9.621  0.00  0.00    +0.001 A 
ATOM     33  C   UNL     1      -5.523  -9.766  10.597  0.00  0.00    +0.001 A 
ATOM     35  C   UNL     1      -5.492 -10.760   9.619  0.00  0.00    +0.000 A 
ENDBRANCH  16  21
BRANCH   8  12
ATOM     12  C   UNL     1      -5.261 -10.451  15.188  0.00  0.00    +0.024 C 
BRANCH  12  15
ATOM     15  C   UNL     1      -6.714 -10.661  14.791  0.00  0.00    +0.105 C 
BRANCH  15   6
ATOM      6  N   UNL     1      -7.601 -10.278  15.863  0.00  0.00    -0.329 N 
BRANCH   6  20
ATOM     20  C   UNL     1      -7.595 -10.951  17.093  0.00  0.00    +0.030 A 
ATOM     24  C   UNL     1      -7.342 -10.247  18.271  0.00  0.00    +0.023 A 
ATOM     25  C   UNL     1      -7.844 -12.322  17.140  0.00  0.00    +0.023 A 
ATOM     30  C   UNL     1      -7.336 -10.915  19.495  0.00  0.00    +0.002 A 
ATOM     31  C   UNL     1      -7.838 -12.990  18.365  0.00  0.00    +0.002 A 
ATOM     34  C   UNL     1      -7.585 -12.287  19.542  0.00  0.00    +0.000 A 
ENDBRANCH   6  20
BRANCH   6  18
ATOM     18  C   UNL     1      -8.530  -9.167  15.641  0.00  0.00    +0.120 C 
BRANCH  18  19
ATOM     19  C   UNL     1      -9.958  -9.640  15.880  0.00  0.00    +0.103 C 
BRANCH  19   7
ATOM      4  O   UNL     1     -11.586  -5.893  14.914  0.00  0.00    -0.377 OA
ATOM      7  N   UNL     1     -10.890  -8.520  15.761  0.00  0.00    -0.297 NA
ATOM     22  C   UNL     1     -11.162  -8.215  14.350  0.00  0.00    +0.112 C 
ATOM     23  C   UNL     1     -10.365  -7.329  16.442  0.00  0.00    +0.112 C 
ATOM     26  C   UNL     1     -12.127  -7.037  14.251  0.00  0.00    +0.175 C 
ATOM     27  C   UNL     1     -11.349  -6.173  16.295  0.00  0.00    +0.175 C 
ENDBRANCH  19   7
ENDBRANCH  18  19
ENDBRANCH   6  18
ENDBRANCH  15   6
ENDBRANCH  12  15
ENDBRANCH   8  12
BRANCH   9  14
ATOM     14  C   UNL     1      -4.057 -11.284  17.864  0.00  0.00    +0.124 C 
BRANCH  14  17
ATOM      3  O   UNL     1      -3.421 -12.174  20.042  0.00  0.00    -0.251 OA
ATOM     17  C   UNL     1      -3.902 -12.334  18.931  0.00  0.00    +0.305 C 
BRANCH  17   2
ATOM      2  O   UNL     1      -4.385 -13.519  18.479  0.00  0.00    -0.481 OA
ATOM     36  H   UNL     1      -5.290 -13.697  18.816  0.00  0.00    +0.295 HD
ENDBRANCH  17   2
ENDBRANCH  14  17
ENDBRANCH   9  14
TORSDOF 11
ENDMDL
MODEL 2
REMARK VINA RESULT:      -6.1      2.245      3.714
REMARK  Name = 28960195
REMARK  11 active torsions:
REMARK  status: ('A' for Active; 'I' for Inactive)
REMARK    1  A    between atoms: O_2  and  C_17
REMARK    2  A    between atoms: N_6  and  C_15
REMARK    3  A    between atoms: N_6  and  C_18
REMARK    4  A    between atoms: N_6  and  C_20
REMARK    5  A    between atoms: N_7  and  C_19
REMARK    6  A    between atoms: C_8  and  C_12
REMARK    7  A    between atoms: C_9  and  C_14
REMARK    8  A    between atoms: C_12  and  C_15
REMARK    9  A    between atoms: C_14  and  C_17
REMARK   10  A    between atoms: C_16  and  C_21
REMARK   11  A    between atoms: C_18  and  C_19
REMARK                            x       y       z     vdW  Elec       q    Type
REMARK                         _______ _______ _______ _____ _____    ______ ____
ROOT
ATOM      1  O   UNL     1      -1.340  -9.943  12.414  0.00  0.00    -0.270 OA
ATOM      5  N   UNL     1      -2.654 -11.282  13.814  0.00  0.00    -0.297 N 
ATOM      8  C   UNL     1      -4.597 -11.536  15.342  0.00  0.00    +0.012 C 
ATOM      9  C   UNL     1      -3.609 -11.522  16.537  0.00  0.00    +0.006 C 
ATOM     10  C   UNL     1      -3.882 -12.045  14.077  0.00  0.00    +0.112 C 
ATOM     11  C   UNL     1      -2.320 -10.754  16.196  0.00  0.00    +0.023 C 
ATOM     13  C   UNL     1      -1.687 -11.277  14.911  0.00  0.00    +0.108 C 
ATOM     16  C   UNL     1      -2.364 -10.588  12.637  0.00  0.00    +0.247 C 
ENDROOT
BRANCH  16  21
ATOM     21  C   UNL     1      -3.358 -10.615  11.558  0.00  0.00    +0.037 A 
ATOM     28  C   UNL     1      -3.384 -11.682  10.661  0.00  0.00    +0.013 A 
ATOM     29  C   UNL     1      -4.277  -9.574  11.430  0.00  0.00    +0.013 A 
ATOM     32  C   UNL     1      -4.330 -11.708   9.635  0.00  0.00    +0.001 A 
ATOM     33  C   UNL     1      -5.223  -9.600  10.405  0.00  0.00    +0.001 A 
ATOM     35  C   UNL     1      -5.250 -10.667   9.508  0.00  0.00    +0.000 A 
ENDBRANCH  16  21
BRANCH   8  12
ATOM     12  C   UNL     1      -5.263 -10.181  15.069  0.00  0.00    +0.024 C 
BRANCH  12  15
ATOM     15  C   UNL     1      -6.645 -10.079  15.694  0.00  0.00    +0.105 C 
BRANCH  15   6
ATOM      6  N   UNL     1      -7.524 -11.097  15.169  0.00  0.00    -0.329 N 
BRANCH   6  20
ATOM     20  C   UNL     1      -7.826 -11.168  13.801  0.00  0.00    +0.030 A 
ATOM     24  C   UNL     1      -7.532 -12.327  13.082  0.00  0.00    +0.023 A 
ATOM     25  C   UNL     1      -8.421 -10.082  13.160  0.00  0.00    +0.023 A 
ATOM     30  C   UNL     1      -7.833 -12.399  11.722  0.00  0.00    +0.002 A 
ATOM     31  C   UNL     1      -8.722 -10.154  11.800  0.00  0.00    +0.002 A 
ATOM     34  C   UNL     1      -8.428 -11.312  11.081  0.00  0.00    +0.000 A 
ENDBRANCH   6  20
BRANCH   6  18
ATOM     18  C   UNL     1      -8.112 -12.062  16.099  0.00  0.00    +0.120 C 
BRANCH  18  19
ATOM     19  C   UNL     1      -9.616 -11.838  16.185  0.00  0.00    +0.103 C 
BRANCH  19   7
ATOM      4  O   UNL     1      -9.608 -10.841  20.263  0.00  0.00    -0.377 OA
ATOM      7  N   UNL     1     -10.030 -11.693  17.579  0.00  0.00    -0.297 NA
ATOM     22  C   UNL     1     -10.107 -10.275  17.957  0.00  0.00    +0.112 C 
ATOM     23  C   UNL     1      -9.106 -12.402  18.474  0.00  0.00    +0.112 C 
ATOM     26  C   UNL     1     -10.529 -10.149  19.417  0.00  0.00    +0.175 C 
ATOM     27  C   UNL     1      -9.551 -12.227  19.923  0.00  0.00    +0.175 C 
ENDBRANCH  19   7
ENDBRANCH  18  19
ENDBRANCH   6  18
ENDBRANCH  15   6
ENDBRANCH  12  15
ENDBRANCH   8  12
BRANCH   9  14
ATOM     14  C   UNL     1      -4.232 -10.986  17.825  0.00  0.00    +0.124 C 
BRANCH  14  17
ATOM      3  O   UNL     1      -3.439 -12.124  19.830  0.00  0.00    -0.251 OA
ATOM     17  C   UNL     1      -4.240 -12.026  18.912  0.00  0.00    +0.305 C 
BRANCH  17   2
ATOM      2  O   UNL     1      -5.290 -12.867  18.733  0.00  0.00    -0.481 OA
ATOM     36  H   UNL     1      -5.982 -12.738  19.418  0.00  0.00    +0.295 HD
ENDBRANCH  17   2
ENDBRANCH  14  17
ENDBRANCH   9  14
TORSDOF 11
ENDMDL
MODEL 3
REMARK VINA RESULT:      -6.0     24.191     27.288
REMARK  Name = 28960195
REMARK  11 active torsions:
REMARK  status: ('A' for Active; 'I' for Inactive)
REMARK    1  A    between atoms: O_2  and  C_17
REMARK    2  A    between atoms: N_6  and  C_15
REMARK    3  A    between atoms: N_6  and  C_18
REMARK    4  A    between atoms: N_6  and  C_20
REMARK    5  A    between atoms: N_7  and  C_19
REMARK    6  A    between atoms: C_8  and  C_12
REMARK    7  A    between atoms: C_9  and  C_14
REMARK    8  A    between atoms: C_12  and  C_15
REMARK    9  A    between atoms: C_14  and  C_17
REMARK   10  A    between atoms: C_16  and  C_21
REMARK   11  A    between atoms: C_18  and  C_19
REMARK                            x       y       z     vdW  Elec       q    Type
REMARK                         _______ _______ _______ _____ _____    ______ ____
ROOT
ATOM      1  O   UNL     1       9.424   6.763   2.929  0.00  0.00    -0.270 OA
ATOM      5  N   UNL     1       8.631   6.694   5.129  0.00  0.00    -0.297 N 
ATOM      8  C   UNL     1       8.942   7.195   7.543  0.00  0.00    +0.012 C 
ATOM      9  C   UNL     1       9.261   5.695   7.773  0.00  0.00    +0.006 C 
ATOM     10  C   UNL     1       8.044   7.356   6.302  0.00  0.00    +0.112 C 
ATOM     11  C   UNL     1       9.828   5.037   6.503  0.00  0.00    +0.023 C 
ATOM     13  C   UNL     1       8.914   5.270   5.304  0.00  0.00    +0.108 C 
ATOM     16  C   UNL     1       8.928   7.312   3.911  0.00  0.00    +0.247 C 
ENDROOT
BRANCH  16  21
ATOM     21  C   UNL     1       8.630   8.741   3.772  0.00  0.00    +0.037 A 
ATOM     28  C   UNL     1       7.324   9.161   3.522  0.00  0.00    +0.013 A 
ATOM     29  C   UNL     1       9.654   9.681   3.892  0.00  0.00    +0.013 A 
ATOM     32  C   UNL     1       7.042  10.521   3.391  0.00  0.00    +0.001 A 
ATOM     33  C   UNL     1       9.371  11.041   3.762  0.00  0.00    +0.001 A 
ATOM     35  C   UNL     1       8.065  11.461   3.511  0.00  0.00    +0.000 A 
ENDBRANCH  16  21
BRANCH   8  12
ATOM     12  C   UNL     1      10.185   8.085   7.419  0.00  0.00    +0.024 C 
BRANCH  12  15
ATOM     15  C   UNL     1       9.844   9.566   7.454  0.00  0.00    +0.105 C 
BRANCH  15   6
ATOM      6  N   UNL     1      10.823  10.302   8.217  0.00  0.00    -0.329 N 
BRANCH   6  20
ATOM     20  C   UNL     1      10.467  11.011   9.374  0.00  0.00    +0.030 A 
ATOM     24  C   UNL     1      11.454  11.623  10.147  0.00  0.00    +0.023 A 
ATOM     25  C   UNL     1       9.128  11.105   9.750  0.00  0.00    +0.023 A 
ATOM     30  C   UNL     1      11.101  12.329  11.297  0.00  0.00    +0.002 A 
ATOM     31  C   UNL     1       8.775  11.811  10.901  0.00  0.00    +0.002 A 
ATOM     34  C   UNL     1       9.762  12.423  11.674  0.00  0.00    +0.000 A 
ENDBRANCH   6  20
BRANCH   6  18
ATOM     18  C   UNL     1      12.213  10.306   7.755  0.00  0.00    +0.120 C 
BRANCH  18  19
ATOM     19  C   UNL     1      12.259  10.689   6.281  0.00  0.00    +0.103 C 
BRANCH  19   7
ATOM      4  O   UNL     1      15.137   7.869   5.104  0.00  0.00    -0.377 OA
ATOM      7  N   UNL     1      13.415  10.074   5.632  0.00  0.00    -0.297 NA
ATOM     22  C   UNL     1      12.998   8.963   4.766  0.00  0.00    +0.112 C 
ATOM     23  C   UNL     1      14.382   9.598   6.631  0.00  0.00    +0.112 C 
ATOM     26  C   UNL     1      14.220   8.330   4.110  0.00  0.00    +0.175 C 
ATOM     27  C   UNL     1      15.573   8.950   5.931  0.00  0.00    +0.175 C 
ENDBRANCH  19   7
ENDBRANCH  18  19
ENDBRANCH   6  18
ENDBRANCH  15   6
ENDBRANCH  12  15
ENDBRANCH   8  12
BRANCH   9  14
ATOM     14  C   UNL     1      10.187   5.454   8.965  0.00  0.00    +0.124 C 
BRANCH  14  17
ATOM      3  O   UNL     1       8.258   4.912  10.352  0.00  0.00    -0.251 OA
ATOM     17  C   UNL     1       9.454   4.828  10.119  0.00  0.00    +0.305 C 
BRANCH  17   2
ATOM      2  O   UNL     1      10.328   4.133  10.892  0.00  0.00    -0.481 OA
ATOM     36  H   UNL     1      11.244   4.180  10.540  0.00  0.00    +0.295 HD
ENDBRANCH  17   2
ENDBRANCH  14  17
ENDBRANCH   9  14
TORSDOF 11
ENDMDL
MODEL 4
REMARK VINA RESULT:      -5.9     27.710     30.302
REMARK  Name = 28960195
REMARK  11 active torsions:
REMARK  status: ('A' for Active; 'I' for Inactive)
REMARK    1  A    between atoms: O_2  and  C_17
REMARK    2  A    between atoms: N_6  and  C_15
REMARK    3  A    between atoms: N_6  and  C_18
REMARK    4  A    between atoms: N_6  and  C_20
REMARK    5  A    between atoms: N_7  and  C_19
REMARK    6  A    between atoms: C_8  and  C_12
REMARK    7  A    between atoms: C_9  and  C_14
REMARK    8  A    between atoms: C_12  and  C_15
REMARK    9  A    between atoms: C_14  and  C_17
REMARK   10  A    between atoms: C_16  and  C_21
REMARK   11  A    between atoms: C_18  and  C_19
REMARK                            x       y       z     vdW  Elec       q    Type
REMARK                         _______ _______ _______ _____ _____    ______ ____
ROOT
ATOM      1  O   UNL     1      15.308   5.882  19.563  0.00  0.00    -0.270 OA
ATOM      5  N   UNL     1      15.885   7.520  21.132  0.00  0.00    -0.297 N 
ATOM      8  C   UNL     1      16.498   9.869  21.661  0.00  0.00    +0.012 C 
ATOM      9  C   UNL     1      17.967   9.406  21.832  0.00  0.00    +0.006 C 
ATOM     10  C   UNL     1      15.542   8.696  21.944  0.00  0.00    +0.112 C 
ATOM     11  C   UNL     1      18.263   8.146  21.001  0.00  0.00    +0.023 C 
ATOM     13  C   UNL     1      17.256   7.039  21.296  0.00  0.00    +0.108 C 
ATOM     16  C   UNL     1      15.024   6.863  20.249  0.00  0.00    +0.247 C 
ENDROOT
BRANCH  16  21
ATOM     21  C   UNL     1      13.656   7.374  20.110  0.00  0.00    +0.037 A 
ATOM     28  C   UNL     1      13.320   8.184  19.025  0.00  0.00    +0.013 A 
ATOM     29  C   UNL     1      12.691   7.050  21.063  0.00  0.00    +0.013 A 
ATOM     32  C   UNL     1      12.018   8.669  18.894  0.00  0.00    +0.001 A 
ATOM     33  C   UNL     1      11.389   7.534  20.932  0.00  0.00    +0.001 A 
ATOM     35  C   UNL     1      11.054   8.344  19.847  0.00  0.00    +0.000 A 
ENDBRANCH  16  21
BRANCH   8  12
ATOM     12  C   UNL     1      16.195  10.484  20.288  0.00  0.00    +0.024 C 
BRANCH  12  15
ATOM     15  C   UNL     1      15.692  11.916  20.393  0.00  0.00    +0.105 C 
BRANCH  15   6
ATOM      6  N   UNL     1      14.258  11.970  20.240  0.00  0.00    -0.329 N 
BRANCH   6  20
ATOM     20  C   UNL     1      13.401  11.899  21.347  0.00  0.00    +0.030 A 
ATOM     24  C   UNL     1      12.079  11.486  21.179  0.00  0.00    +0.023 A 
ATOM     25  C   UNL     1      13.869  12.241  22.615  0.00  0.00    +0.023 A 
ATOM     30  C   UNL     1      11.225  11.414  22.280  0.00  0.00    +0.002 A 
ATOM     31  C   UNL     1      13.015  12.170  23.717  0.00  0.00    +0.002 A 
ATOM     34  C   UNL     1      11.693  11.756  23.548  0.00  0.00    +0.000 A 
ENDBRANCH   6  20
BRANCH   6  18
ATOM     18  C   UNL     1      13.703  12.093  18.891  0.00  0.00    +0.120 C 
BRANCH  18  19
ATOM     19  C   UNL     1      14.755  12.676  17.956  0.00  0.00    +0.103 C 
BRANCH  19   7
ATOM      4  O   UNL     1      14.993  10.480  14.386  0.00  0.00    -0.377 OA
ATOM      7  N   UNL     1      15.157  11.683  16.961  0.00  0.00    -0.297 NA
ATOM     22  C   UNL     1      15.720  12.335  15.771  0.00  0.00    +0.112 C 
ATOM     23  C   UNL     1      14.018  10.837  16.579  0.00  0.00    +0.112 C 
ATOM     26  C   UNL     1      16.120  11.281  14.743  0.00  0.00    +0.175 C 
ATOM     27  C   UNL     1      14.458   9.817  15.533  0.00  0.00    +0.175 C 
ENDBRANCH  19   7
ENDBRANCH  18  19
ENDBRANCH   6  18
ENDBRANCH  15   6
ENDBRANCH  12  15
ENDBRANCH   8  12
BRANCH   9  14
ATOM     14  C   UNL     1      18.983  10.506  21.525  0.00  0.00    +0.124 C 
BRANCH  14  17
ATOM      3  O   UNL     1      18.799  12.795  22.341  0.00  0.00    -0.251 OA
ATOM     17  C   UNL     1      18.944  11.601  22.555  0.00  0.00    +0.305 C 
BRANCH  17   2
ATOM      2  O   UNL     1      19.094  11.068  23.795  0.00  0.00    -0.481 OA
ATOM     36  H   UNL     1      20.017  11.154  24.120  0.00  0.00    +0.295 HD
ENDBRANCH  17   2
ENDBRANCH  14  17
ENDBRANCH   9  14
TORSDOF 11
ENDMDL
MODEL 5
REMARK VINA RESULT:      -5.9     25.262     28.564
REMARK  Name = 28960195
REMARK  11 active torsions:
REMARK  status: ('A' for Active; 'I' for Inactive)
REMARK    1  A    between atoms: O_2  and  C_17
REMARK    2  A    between atoms: N_6  and  C_15
REMARK    3  A    between atoms: N_6  and  C_18
REMARK    4  A    between atoms: N_6  and  C_20
REMARK    5  A    between atoms: N_7  and  C_19
REMARK    6  A    between atoms: C_8  and  C_12
REMARK    7  A    between atoms: C_9  and  C_14
REMARK    8  A    between atoms: C_12  and  C_15
REMARK    9  A    between atoms: C_14  and  C_17
REMARK   10  A    between atoms: C_16  and  C_21
REMARK   11  A    between atoms: C_18  and  C_19
REMARK                            x       y       z     vdW  Elec       q    Type
REMARK                         _______ _______ _______ _____ _____    ______ ____
ROOT
ATOM      1  O   UNL     1      12.851   5.849   7.765  0.00  0.00    -0.270 OA
ATOM      5  N   UNL     1      13.325   7.720   6.441  0.00  0.00    -0.297 N 
ATOM      8  C   UNL     1      13.470   8.787   4.201  0.00  0.00    +0.012 C 
ATOM      9  C   UNL     1      15.012   8.638   4.274  0.00  0.00    +0.006 C 
ATOM     10  C   UNL     1      12.883   8.858   5.623  0.00  0.00    +0.112 C 
ATOM     11  C   UNL     1      15.425   7.464   5.178  0.00  0.00    +0.023 C 
ATOM     13  C   UNL     1      14.775   7.571   6.555  0.00  0.00    +0.108 C 
ATOM     16  C   UNL     1      12.486   6.807   7.084  0.00  0.00    +0.247 C 
ENDROOT
BRANCH  16  21
ATOM     21  C   UNL     1      11.037   6.987   6.947  0.00  0.00    +0.037 A 
ATOM     28  C   UNL     1      10.311   6.170   6.081  0.00  0.00    +0.013 A 
ATOM     29  C   UNL     1      10.384   7.975   7.684  0.00  0.00    +0.013 A 
ATOM     32  C   UNL     1       8.932   6.342   5.952  0.00  0.00    +0.001 A 
ATOM     33  C   UNL     1       9.006   8.146   7.556  0.00  0.00    +0.001 A 
ATOM     35  C   UNL     1       8.280   7.329   6.690  0.00  0.00    +0.000 A 
ENDBRANCH  16  21
BRANCH   8  12
ATOM     12  C   UNL     1      12.775   7.684   3.392  0.00  0.00    +0.024 C 
BRANCH  12  15
ATOM     15  C   UNL     1      11.784   8.243   2.385  0.00  0.00    +0.105 C 
BRANCH  15   6
ATOM      6  N   UNL     1      10.450   7.760   2.653  0.00  0.00    -0.329 N 
BRANCH   6  20
ATOM     20  C   UNL     1       9.476   8.586   3.233  0.00  0.00    +0.030 A 
ATOM     24  C   UNL     1       9.858   9.623   4.084  0.00  0.00    +0.023 A 
ATOM     25  C   UNL     1       8.126   8.370   2.960  0.00  0.00    +0.023 A 
ATOM     30  C   UNL     1       8.890  10.445   4.661  0.00  0.00    +0.002 A 
ATOM     31  C   UNL     1       7.157   9.191   3.537  0.00  0.00    +0.002 A 
ATOM     34  C   UNL     1       7.539  10.229   4.388  0.00  0.00    +0.000 A 
ENDBRANCH   6  20
BRANCH   6  18
ATOM     18  C   UNL     1      10.126   6.373   2.315  0.00  0.00    +0.120 C 
BRANCH  18  19
ATOM     19  C   UNL     1      10.484   6.105   0.858  0.00  0.00    +0.103 C 
BRANCH  19   7
ATOM      4  O   UNL     1      13.650   3.369   1.184  0.00  0.00    -0.377 OA
ATOM      7  N   UNL     1      11.281   4.885   0.746  0.00  0.00    -0.297 NA
ATOM     22  C   UNL     1      11.624   4.361   2.075  0.00  0.00    +0.112 C 
ATOM     23  C   UNL     1      12.505   5.132  -0.028  0.00  0.00    +0.112 C 
ATOM     26  C   UNL     1      12.465   3.096   1.933  0.00  0.00    +0.175 C 
ATOM     27  C   UNL     1      13.326   3.849  -0.122  0.00  0.00    +0.175 C 
ENDBRANCH  19   7
ENDBRANCH  18  19
ENDBRANCH   6  18
ENDBRANCH  15   6
ENDBRANCH  12  15
ENDBRANCH   8  12
BRANCH   9  14
ATOM     14  C   UNL     1      15.669   8.517   2.899  0.00  0.00    +0.124 C 
BRANCH  14  17
ATOM      3  O   UNL     1      17.619   9.952   3.175  0.00  0.00    -0.251 OA
ATOM     17  C   UNL     1      17.134   8.854   2.952  0.00  0.00    +0.305 C 
BRANCH  17   2
ATOM      2  O   UNL     1      17.868   7.737   2.714  0.00  0.00    -0.481 OA
ATOM     36  H   UNL     1      17.991   7.579   1.752  0.00  0.00    +0.295 HD
ENDBRANCH  17   2
ENDBRANCH  14  17
ENDBRANCH   9  14
TORSDOF 11
ENDMDL
MODEL 6
REMARK VINA RESULT:      -5.9      2.574      7.169
REMARK  Name = 28960195
REMARK  11 active torsions:
REMARK  status: ('A' for Active; 'I' for Inactive)
REMARK    1  A    between atoms: O_2  and  C_17
REMARK    2  A    between atoms: N_6  and  C_15
REMARK    3  A    between atoms: N_6  and  C_18
REMARK    4  A    between atoms: N_6  and  C_20
REMARK    5  A    between atoms: N_7  and  C_19
REMARK    6  A    between atoms: C_8  and  C_12
REMARK    7  A    between atoms: C_9  and  C_14
REMARK    8  A    between atoms: C_12  and  C_15
REMARK    9  A    between atoms: C_14  and  C_17
REMARK   10  A    between atoms: C_16  and  C_21
REMARK   11  A    between atoms: C_18  and  C_19
REMARK                            x       y       z     vdW  Elec       q    Type
REMARK                         _______ _______ _______ _____ _____    ______ ____
ROOT
ATOM      1  O   UNL     1      -8.195 -11.524  19.315  0.00  0.00    -0.270 OA
ATOM      5  N   UNL     1      -6.756 -10.312  17.923  0.00  0.00    -0.297 N 
ATOM      8  C   UNL     1      -5.522 -10.091  15.778  0.00  0.00    +0.012 C 
ATOM      9  C   UNL     1      -4.222 -10.475  16.531  0.00  0.00    +0.006 C 
ATOM     10  C   UNL     1      -6.524  -9.450  16.756  0.00  0.00    +0.112 C 
ATOM     11  C   UNL     1      -4.521 -11.336  17.771  0.00  0.00    +0.023 C 
ATOM     13  C   UNL     1      -5.552 -10.667  18.674  0.00  0.00    +0.108 C 
ATOM     16  C   UNL     1      -7.998 -10.798  18.341  0.00  0.00    +0.247 C 
ENDROOT
BRANCH  16  21
ATOM     21  C   UNL     1      -9.183 -10.422  17.564  0.00  0.00    +0.037 A 
ATOM     28  C   UNL     1      -9.597 -11.216  16.495  0.00  0.00    +0.013 A 
ATOM     29  C   UNL     1      -9.896  -9.270  17.893  0.00  0.00    +0.013 A 
ATOM     32  C   UNL     1     -10.725 -10.858  15.756  0.00  0.00    +0.001 A 
ATOM     33  C   UNL     1     -11.025  -8.912  17.155  0.00  0.00    +0.001 A 
ATOM     35  C   UNL     1     -11.439  -9.706  16.087  0.00  0.00    +0.000 A 
ENDBRANCH  16  21
BRANCH   8  12
ATOM     12  C   UNL     1      -6.177 -11.259  15.031  0.00  0.00    +0.024 C 
BRANCH  12  15
ATOM     15  C   UNL     1      -6.911 -10.807  13.778  0.00  0.00    +0.105 C 
BRANCH  15   6
ATOM      6  N   UNL     1      -6.326 -11.398  12.598  0.00  0.00    -0.329 N 
BRANCH   6  20
ATOM     20  C   UNL     1      -4.939 -11.399  12.391  0.00  0.00    +0.030 A 
ATOM     24  C   UNL     1      -4.237 -12.605  12.378  0.00  0.00    +0.023 A 
ATOM     25  C   UNL     1      -4.261 -10.196  12.196  0.00  0.00    +0.023 A 
ATOM     30  C   UNL     1      -2.858 -12.607  12.171  0.00  0.00    +0.002 A 
ATOM     31  C   UNL     1      -2.882 -10.198  11.989  0.00  0.00    +0.002 A 
ATOM     34  C   UNL     1      -2.180 -11.403  11.976  0.00  0.00    +0.000 A 
ENDBRANCH   6  20
BRANCH   6  18
ATOM     18  C   UNL     1      -7.215 -11.996  11.601  0.00  0.00    +0.120 C 
BRANCH  18  19
ATOM     19  C   UNL     1      -7.522 -10.976  10.512  0.00  0.00    +0.103 C 
BRANCH  19   7
ATOM      4  O   UNL     1      -5.647 -10.601   6.776  0.00  0.00    -0.377 OA
ATOM      7  N   UNL     1      -6.529 -11.058   9.443  0.00  0.00    -0.297 NA
ATOM     22  C   UNL     1      -6.149  -9.717   8.979  0.00  0.00    +0.112 C 
ATOM     23  C   UNL     1      -7.037 -11.855   8.319  0.00  0.00    +0.112 C 
ATOM     26  C   UNL     1      -5.122  -9.829   7.857  0.00  0.00    +0.175 C 
ATOM     27  C   UNL     1      -5.988 -11.918   7.212  0.00  0.00    +0.175 C 
ENDBRANCH  19   7
ENDBRANCH  18  19
ENDBRANCH   6  18
ENDBRANCH  15   6
ENDBRANCH  12  15
ENDBRANCH   8  12
BRANCH   9  14
ATOM     14  C   UNL     1      -3.189 -11.159  15.636  0.00  0.00    +0.124 C 
BRANCH  14  17
ATOM      3  O   UNL     1      -1.297  -9.742  15.042  0.00  0.00    -0.251 OA
ATOM     17  C   UNL     1      -1.825 -10.546  15.795  0.00  0.00    +0.305 C 
BRANCH  17   2
ATOM      2  O   UNL     1      -1.240 -11.020  16.925  0.00  0.00    -0.481 OA
ATOM     36  H   UNL     1      -1.885 -11.483  17.503  0.00  0.00    +0.295 HD
ENDBRANCH  17   2
ENDBRANCH  14  17
ENDBRANCH   9  14
TORSDOF 11
ENDMDL
MODEL 7
REMARK VINA RESULT:      -5.7     25.007     28.970
REMARK  Name = 28960195
REMARK  11 active torsions:
REMARK  status: ('A' for Active; 'I' for Inactive)
REMARK    1  A    between atoms: O_2  and  C_17
REMARK    2  A    between atoms: N_6  and  C_15
REMARK    3  A    between atoms: N_6  and  C_18
REMARK    4  A    between atoms: N_6  and  C_20
REMARK    5  A    between atoms: N_7  and  C_19
REMARK    6  A    between atoms: C_8  and  C_12
REMARK    7  A    between atoms: C_9  and  C_14
REMARK    8  A    between atoms: C_12  and  C_15
REMARK    9  A    between atoms: C_14  and  C_17
REMARK   10  A    between atoms: C_16  and  C_21
REMARK   11  A    between atoms: C_18  and  C_19
REMARK                            x       y       z     vdW  Elec       q    Type
REMARK                         _______ _______ _______ _____ _____    ______ ____
ROOT
ATOM      1  O   UNL     1      12.441   6.133   7.933  0.00  0.00    -0.270 OA
ATOM      5  N   UNL     1      12.911   7.574   6.151  0.00  0.00    -0.297 N 
ATOM      8  C   UNL     1      13.338   7.930   3.729  0.00  0.00    +0.012 C 
ATOM      9  C   UNL     1      14.844   8.094   4.059  0.00  0.00    +0.006 C 
ATOM     10  C   UNL     1      12.488   8.315   4.954  0.00  0.00    +0.112 C 
ATOM     11  C   UNL     1      15.227   7.341   5.344  0.00  0.00    +0.023 C 
ATOM     13  C   UNL     1      14.320   7.734   6.507  0.00  0.00    +0.108 C 
ATOM     16  C   UNL     1      12.090   6.759   6.934  0.00  0.00    +0.247 C 
ENDROOT
BRANCH  16  21
ATOM     21  C   UNL     1      10.682   6.622   6.546  0.00  0.00    +0.037 A 
ATOM     28  C   UNL     1       9.729   7.502   7.057  0.00  0.00    +0.013 A 
ATOM     29  C   UNL     1      10.297   5.611   5.666  0.00  0.00    +0.013 A 
ATOM     32  C   UNL     1       8.390   7.372   6.687  0.00  0.00    +0.001 A 
ATOM     33  C   UNL     1       8.958   5.481   5.295  0.00  0.00    +0.001 A 
ATOM     35  C   UNL     1       8.005   6.362   5.806  0.00  0.00    +0.000 A 
ENDBRANCH  16  21
BRANCH   8  12
ATOM     12  C   UNL     1      12.957   6.528   3.236  0.00  0.00    +0.024 C 
BRANCH  12  15
ATOM     15  C   UNL     1      12.024   6.570   2.036  0.00  0.00    +0.105 C 
BRANCH  15   6
ATOM      6  N   UNL     1      12.237   5.429   1.179  0.00  0.00    -0.329 N 
BRANCH   6  20
ATOM     20  C   UNL     1      13.523   5.057   0.760  0.00  0.00    +0.030 A 
ATOM     24  C   UNL     1      14.142   3.939   1.319  0.00  0.00    +0.023 A 
ATOM     25  C   UNL     1      14.182   5.804  -0.216  0.00  0.00    +0.023 A 
ATOM     30  C   UNL     1      15.421   3.569   0.903  0.00  0.00    +0.002 A 
ATOM     31  C   UNL     1      15.461   5.434  -0.632  0.00  0.00    +0.002 A 
ATOM     34  C   UNL     1      16.080   4.316  -0.073  0.00  0.00    +0.000 A 
ENDBRANCH   6  20
BRANCH   6  18
ATOM     18  C   UNL     1      11.073   4.658   0.736  0.00  0.00    +0.120 C 
BRANCH  18  19
ATOM     19  C   UNL     1      10.534   5.246  -0.561  0.00  0.00    +0.103 C 
BRANCH  19   7
ATOM      4  O   UNL     1      10.516   2.778  -3.956  0.00  0.00    -0.377 OA
ATOM      7  N   UNL     1      10.192   4.180  -1.500  0.00  0.00    -0.297 NA
ATOM     22  C   UNL     1      11.346   3.303  -1.737  0.00  0.00    +0.112 C 
ATOM     23  C   UNL     1       9.714   4.738  -2.772  0.00  0.00    +0.112 C 
ATOM     26  C   UNL     1      10.968   2.205  -2.728  0.00  0.00    +0.175 C 
ATOM     27  C   UNL     1       9.373   3.607  -3.738  0.00  0.00    +0.175 C 
ENDBRANCH  19   7
ENDBRANCH  18  19
ENDBRANCH   6  18
ENDBRANCH  15   6
ENDBRANCH  12  15
ENDBRANCH   8  12
BRANCH   9  14
ATOM     14  C   UNL     1      15.759   7.688   2.904  0.00  0.00    +0.124 C 
BRANCH  14  17
ATOM      3  O   UNL     1      17.119   9.684   3.233  0.00  0.00    -0.251 OA
ATOM     17  C   UNL     1      17.009   8.524   2.867  0.00  0.00    +0.305 C 
BRANCH  17   2
ATOM      2  O   UNL     1      18.033   7.793   2.357  0.00  0.00    -0.481 OA
ATOM     36  H   UNL     1      18.261   7.032   2.934  0.00  0.00    +0.295 HD
ENDBRANCH  17   2
ENDBRANCH  14  17
ENDBRANCH   9  14
TORSDOF 11
ENDMDL
MODEL 8
REMARK VINA RESULT:      -5.7      2.713      5.459
REMARK  Name = 28960195
REMARK  11 active torsions:
REMARK  status: ('A' for Active; 'I' for Inactive)
REMARK    1  A    between atoms: O_2  and  C_17
REMARK    2  A    between atoms: N_6  and  C_15
REMARK    3  A    between atoms: N_6  and  C_18
REMARK    4  A    between atoms: N_6  and  C_20
REMARK    5  A    between atoms: N_7  and  C_19
REMARK    6  A    between atoms: C_8  and  C_12
REMARK    7  A    between atoms: C_9  and  C_14
REMARK    8  A    between atoms: C_12  and  C_15
REMARK    9  A    between atoms: C_14  and  C_17
REMARK   10  A    between atoms: C_16  and  C_21
REMARK   11  A    between atoms: C_18  and  C_19
REMARK                            x       y       z     vdW  Elec       q    Type
REMARK                         _______ _______ _______ _____ _____    ______ ____
ROOT
ATOM      1  O   UNL     1      -3.362 -12.686  10.478  0.00  0.00    -0.270 OA
ATOM      5  N   UNL     1      -4.214 -10.506  10.433  0.00  0.00    -0.297 N 
ATOM      8  C   UNL     1      -5.942  -8.860  11.120  0.00  0.00    +0.012 C 
ATOM      9  C   UNL     1      -6.551  -8.963   9.698  0.00  0.00    +0.006 C 
ATOM     10  C   UNL     1      -4.442  -9.205  11.075  0.00  0.00    +0.112 C 
ATOM     11  C   UNL     1      -6.244 -10.325   9.050  0.00  0.00    +0.023 C 
ATOM     13  C   UNL     1      -4.749 -10.626   9.077  0.00  0.00    +0.108 C 
ATOM     16  C   UNL     1      -3.551 -11.593  11.010  0.00  0.00    +0.247 C 
ENDROOT
BRANCH  16  21
ATOM     21  C   UNL     1      -3.028 -11.437  12.372  0.00  0.00    +0.037 A 
ATOM     28  C   UNL     1      -3.393 -12.342  13.367  0.00  0.00    +0.013 A 
ATOM     29  C   UNL     1      -2.164 -10.383  12.670  0.00  0.00    +0.013 A 
ATOM     32  C   UNL     1      -2.894 -12.194  14.662  0.00  0.00    +0.001 A 
ATOM     33  C   UNL     1      -1.665 -10.235  13.964  0.00  0.00    +0.001 A 
ATOM     35  C   UNL     1      -2.030 -11.141  14.960  0.00  0.00    +0.000 A 
ENDBRANCH  16  21
BRANCH   8  12
ATOM     12  C   UNL     1      -6.656  -9.723  12.169  0.00  0.00    +0.024 C 
BRANCH  12  15
ATOM     15  C   UNL     1      -6.018  -9.609  13.544  0.00  0.00    +0.105 C 
BRANCH  15   6
ATOM      6  N   UNL     1      -6.779 -10.345  14.526  0.00  0.00    -0.329 N 
BRANCH   6  20
ATOM     20  C   UNL     1      -6.168 -10.895  15.662  0.00  0.00    +0.030 A 
ATOM     24  C   UNL     1      -5.362 -10.098  16.475  0.00  0.00    +0.023 A 
ATOM     25  C   UNL     1      -6.368 -12.238  15.980  0.00  0.00    +0.023 A 
ATOM     30  C   UNL     1      -4.755 -10.645  17.606  0.00  0.00    +0.002 A 
ATOM     31  C   UNL     1      -5.761 -12.785  17.112  0.00  0.00    +0.002 A 
ATOM     34  C   UNL     1      -4.955 -11.988  17.924  0.00  0.00    +0.000 A 
ENDBRANCH   6  20
BRANCH   6  18
ATOM     18  C   UNL     1      -8.217 -10.520  14.311  0.00  0.00    +0.120 C 
BRANCH  18  19
ATOM     19  C   UNL     1      -8.986  -9.902  15.471  0.00  0.00    +0.103 C 
BRANCH  19   7
ATOM      4  O   UNL     1     -11.836  -6.834  15.186  0.00  0.00    -0.377 OA
ATOM      7  N   UNL     1      -9.693  -8.701  15.031  0.00  0.00    -0.297 NA
ATOM     22  C   UNL     1      -9.777  -7.716  16.117  0.00  0.00    +0.112 C 
ATOM     23  C   UNL     1     -11.040  -9.036  14.551  0.00  0.00    +0.112 C 
ATOM     26  C   UNL     1     -10.528  -6.478  15.638  0.00  0.00    +0.175 C 
ATOM     27  C   UNL     1     -11.763  -7.768  14.107  0.00  0.00    +0.175 C 
ENDBRANCH  19   7
ENDBRANCH  18  19
ENDBRANCH   6  18
ENDBRANCH  15   6
ENDBRANCH  12  15
ENDBRANCH   8  12
BRANCH   9  14
ATOM     14  C   UNL     1      -8.052  -8.677   9.665  0.00  0.00    +0.124 C 
BRANCH  14  17
ATOM      3  O   UNL     1      -9.473  -6.992   8.625  0.00  0.00    -0.251 OA
ATOM     17  C   UNL     1      -8.372  -7.496   8.791  0.00  0.00    +0.305 C 
BRANCH  17   2
ATOM      2  O   UNL     1      -7.238  -7.048   8.195  0.00  0.00    -0.481 OA
ATOM     36  H   UNL     1      -6.543  -7.741   8.165  0.00  0.00    +0.295 HD
ENDBRANCH  17   2
ENDBRANCH  14  17
ENDBRANCH   9  14
TORSDOF 11
ENDMDL
MODEL 9
REMARK VINA RESULT:      -5.6      2.454      3.922
REMARK  Name = 28960195
REMARK  11 active torsions:
REMARK  status: ('A' for Active; 'I' for Inactive)
REMARK    1  A    between atoms: O_2  and  C_17
REMARK    2  A    between atoms: N_6  and  C_15
REMARK    3  A    between atoms: N_6  and  C_18
REMARK    4  A    between atoms: N_6  and  C_20
REMARK    5  A    between atoms: N_7  and  C_19
REMARK    6  A    between atoms: C_8  and  C_12
REMARK    7  A    between atoms: C_9  and  C_14
REMARK    8  A    between atoms: C_12  and  C_15
REMARK    9  A    between atoms: C_14  and  C_17
REMARK   10  A    between atoms: C_16  and  C_21
REMARK   11  A    between atoms: C_18  and  C_19
REMARK                            x       y       z     vdW  Elec       q    Type
REMARK                         _______ _______ _______ _____ _____    ______ ____
ROOT
ATOM      1  O   UNL     1      -1.732 -10.431  14.508  0.00  0.00    -0.270 OA
ATOM      5  N   UNL     1      -3.458 -11.569  15.604  0.00  0.00    -0.297 N 
ATOM      8  C   UNL     1      -5.873 -11.812  16.138  0.00  0.00    +0.012 C 
ATOM      9  C   UNL     1      -5.583 -11.216  17.539  0.00  0.00    +0.006 C 
ATOM     10  C   UNL     1      -4.605 -12.487  15.583  0.00  0.00    +0.112 C 
ATOM     11  C   UNL     1      -4.346 -10.301  17.519  0.00  0.00    +0.023 C 
ATOM     13  C   UNL     1      -3.139 -11.014  16.918  0.00  0.00    +0.108 C 
ATOM     16  C   UNL     1      -2.689 -11.204  14.496  0.00  0.00    +0.247 C 
ENDROOT
BRANCH  16  21
ATOM     21  C   UNL     1      -3.039 -11.780  13.193  0.00  0.00    +0.037 A 
ATOM     28  C   UNL     1      -3.767 -11.029  12.271  0.00  0.00    +0.013 A 
ATOM     29  C   UNL     1      -2.643 -13.079  12.877  0.00  0.00    +0.013 A 
ATOM     32  C   UNL     1      -4.098 -11.578  11.031  0.00  0.00    +0.001 A 
ATOM     33  C   UNL     1      -2.973 -13.628  11.637  0.00  0.00    +0.001 A 
ATOM     35  C   UNL     1      -3.701 -12.877  10.715  0.00  0.00    +0.000 A 
ENDBRANCH  16  21
BRANCH   8  12
ATOM     12  C   UNL     1      -6.419 -10.794  15.129  0.00  0.00    +0.024 C 
BRANCH  12  15
ATOM     15  C   UNL     1      -7.725 -11.249  14.497  0.00  0.00    +0.105 C 
BRANCH  15   6
ATOM      6  N   UNL     1      -8.703 -10.187  14.514  0.00  0.00    -0.329 N 
BRANCH   6  20
ATOM     20  C   UNL     1      -9.383  -9.837  15.689  0.00  0.00    +0.030 A 
ATOM     24  C   UNL     1      -9.352  -8.520  16.147  0.00  0.00    +0.023 A 
ATOM     25  C   UNL     1     -10.092 -10.805  16.400  0.00  0.00    +0.023 A 
ATOM     30  C   UNL     1     -10.029  -8.170  17.315  0.00  0.00    +0.002 A 
ATOM     31  C   UNL     1     -10.769 -10.456  17.569  0.00  0.00    +0.002 A 
ATOM     34  C   UNL     1     -10.737  -9.139  18.026  0.00  0.00    +0.000 A 
ENDBRANCH   6  20
BRANCH   6  18
ATOM     18  C   UNL     1      -8.985  -9.475  13.266  0.00  0.00    +0.120 C 
BRANCH  18  19
ATOM     19  C   UNL     1      -9.169 -10.480  12.135  0.00  0.00    +0.103 C 
BRANCH  19   7
ATOM      4  O   UNL     1      -7.393  -8.027   9.229  0.00  0.00    -0.377 OA
ATOM      7  N   UNL     1      -8.449 -10.040  10.942  0.00  0.00    -0.297 NA
ATOM     22  C   UNL     1      -7.252  -9.272  11.307  0.00  0.00    +0.112 C 
ATOM     23  C   UNL     1      -9.320  -9.234  10.075  0.00  0.00    +0.112 C 
ATOM     26  C   UNL     1      -6.525  -8.814  10.047  0.00  0.00    +0.175 C 
ATOM     27  C   UNL     1      -8.545  -8.778   8.843  0.00  0.00    +0.175 C 
ENDBRANCH  19   7
ENDBRANCH  18  19
ENDBRANCH   6  18
ENDBRANCH  15   6
ENDBRANCH  12  15
ENDBRANCH   8  12
BRANCH   9  14
ATOM     14  C   UNL     1      -6.783 -10.487  18.142  0.00  0.00    +0.124 C 
BRANCH  14  17
ATOM      3  O   UNL     1      -6.092 -11.215  20.363  0.00  0.00    -0.251 OA
ATOM     17  C   UNL     1      -6.958 -10.817  19.599  0.00  0.00    +0.305 C 
BRANCH  17   2
ATOM      2  O   UNL     1      -8.248 -10.603  19.964  0.00  0.00    -0.481 OA
ATOM     36  H   UNL     1      -8.468 -11.055  20.808  0.00  0.00    +0.295 HD
ENDBRANCH  17   2
ENDBRANCH  14  17
ENDBRANCH   9  14
TORSDOF 11
ENDMDL
MODEL 10
REMARK VINA RESULT:      -5.6     20.705     23.819
REMARK  Name = 28960195
REMARK  11 active torsions:
REMARK  status: ('A' for Active; 'I' for Inactive)
REMARK    1  A    between atoms: O_2  and  C_17
REMARK    2  A    between atoms: N_6  and  C_15
REMARK    3  A    between atoms: N_6  and  C_18
REMARK    4  A    between atoms: N_6  and  C_20
REMARK    5  A    between atoms: N_7  and  C_19
REMARK    6  A    between atoms: C_8  and  C_12
REMARK    7  A    between atoms: C_9  and  C_14
REMARK    8  A    between atoms: C_12  and  C_15
REMARK    9  A    between atoms: C_14  and  C_17
REMARK   10  A    between atoms: C_16  and  C_21
REMARK   11  A    between atoms: C_18  and  C_19
REMARK                            x       y       z     vdW  Elec       q    Type
REMARK                         _______ _______ _______ _____ _____    ______ ____
ROOT
ATOM      1  O   UNL     1       4.774 -13.748  36.505  0.00  0.00    -0.270 OA
ATOM      5  N   UNL     1       3.911 -11.582  36.305  0.00  0.00    -0.297 N 
ATOM      8  C   UNL     1       4.210  -9.200  35.664  0.00  0.00    +0.012 C 
ATOM      9  C   UNL     1       4.326  -8.849  37.169  0.00  0.00    +0.006 C 
ATOM     10  C   UNL     1       3.379 -10.484  35.487  0.00  0.00    +0.112 C 
ATOM     11  C   UNL     1       4.842 -10.045  37.989  0.00  0.00    +0.023 C 
ATOM     13  C   UNL     1       4.004 -11.294  37.736  0.00  0.00    +0.108 C 
ATOM     16  C   UNL     1       4.323 -12.828  35.825  0.00  0.00    +0.247 C 
ENDROOT
BRANCH  16  21
ATOM     21  C   UNL     1       4.216 -13.081  34.384  0.00  0.00    +0.037 A 
ATOM     28  C   UNL     1       5.337 -12.941  33.566  0.00  0.00    +0.013 A 
ATOM     29  C   UNL     1       2.993 -13.463  33.832  0.00  0.00    +0.013 A 
ATOM     32  C   UNL     1       5.235 -13.184  32.196  0.00  0.00    +0.001 A 
ATOM     33  C   UNL     1       2.891 -13.706  32.462  0.00  0.00    +0.001 A 
ATOM     35  C   UNL     1       4.012 -13.566  31.644  0.00  0.00    +0.000 A 
ENDBRANCH  16  21
BRANCH   8  12
ATOM     12  C   UNL     1       5.561  -9.337  34.950  0.00  0.00    +0.024 C 
BRANCH  12  15
ATOM     15  C   UNL     1       5.594  -8.594  33.624  0.00  0.00    +0.105 C 
BRANCH  15   6
ATOM      6  N   UNL     1       6.913  -8.642  33.040  0.00  0.00    -0.329 N 
BRANCH   6  20
ATOM     20  C   UNL     1       7.273  -9.646  32.128  0.00  0.00    +0.030 A 
ATOM     24  C   UNL     1       6.736  -9.644  30.841  0.00  0.00    +0.023 A 
ATOM     25  C   UNL     1       8.169 -10.645  32.509  0.00  0.00    +0.023 A 
ATOM     30  C   UNL     1       7.095 -10.641  29.934  0.00  0.00    +0.002 A 
ATOM     31  C   UNL     1       8.527 -11.642  31.602  0.00  0.00    +0.002 A 
ATOM     34  C   UNL     1       7.990 -11.640  30.315  0.00  0.00    +0.000 A 
ENDBRANCH   6  20
BRANCH   6  18
ATOM     18  C   UNL     1       7.887  -7.619  33.424  0.00  0.00    +0.120 C 
BRANCH  18  19
ATOM     19  C   UNL     1       7.195  -6.266  33.523  0.00  0.00    +0.103 C 
BRANCH  19   7
ATOM      4  O   UNL     1       9.939  -4.768  36.325  0.00  0.00    -0.377 OA
ATOM      7  N   UNL     1       7.995  -5.343  34.326  0.00  0.00    -0.297 NA
ATOM     22  C   UNL     1       9.429  -5.548  34.085  0.00  0.00    +0.112 C 
ATOM     23  C   UNL     1       7.697  -5.503  35.756  0.00  0.00    +0.112 C 
ATOM     26  C   UNL     1      10.243  -4.583  34.942  0.00  0.00    +0.175 C 
ATOM     27  C   UNL     1       8.551  -4.538  36.574  0.00  0.00    +0.175 C 
ENDBRANCH  19   7
ENDBRANCH  18  19
ENDBRANCH   6  18
ENDBRANCH  15   6
ENDBRANCH  12  15
ENDBRANCH   8  12
BRANCH   9  14
ATOM     14  C   UNL     1       5.177  -7.607  37.433  0.00  0.00    +0.124 C 
BRANCH  14  17
ATOM      3  O   UNL     1       3.641  -6.803  39.147  0.00  0.00    -0.251 OA
ATOM     17  C   UNL     1       4.426  -6.582  38.238  0.00  0.00    +0.305 C 
BRANCH  17   2
ATOM      2  O   UNL     1       4.750  -5.336  37.806  0.00  0.00    -0.481 OA
ATOM     36  H   UNL     1       4.213  -5.068  37.028  0.00  0.00    +0.295 HD
ENDBRANCH  17   2
ENDBRANCH  14  17
ENDBRANCH   9  14
TORSDOF 11
ENDMDL
