REMARK  Name = 26742287
REMARK  6 active torsions:
REMARK  status: ('A' for Active; 'I' for Inactive)
REMARK    1  A    between atoms: O_3  and  C_20
REMARK    2  A    between atoms: O_3  and  C_26
REMARK    3  A    between atoms: O_4  and  C_25
REMARK    4  A    between atoms: O_4  and  C_29
REMARK    5  A    between atoms: C_14  and  C_19
REMARK    6  A    between atoms: C_16  and  C_20
REMARK                            x       y       z     vdW  Elec       q    Type
REMARK                         _______ _______ _______ _____ _____    ______ ____
ROOT
ATOM      1  O   UNL     1      -1.349  -3.740   2.684  0.00  0.00    -0.268 OA
ATOM      2  O   UNL     1       2.196  -3.035  -1.146  0.00  0.00    -0.272 OA
ATOM      5  N   UNL     1       0.206  -1.983  -1.719  0.00  0.00    -0.298 N 
ATOM      6  N   UNL     1      -1.694  -2.388   0.802  0.00  0.00    -0.311 N 
ATOM      7  C   UNL     1      -1.847  -3.385  -1.555  0.00  0.00    +0.027 C 
ATOM      8  C   UNL     1      -2.009  -0.953  -1.238  0.00  0.00    +0.054 C 
ATOM      9  C   UNL     1      -2.702  -2.165  -1.859  0.00  0.00    +0.018 C 
ATOM     10  C   UNL     1      -0.437  -3.225  -2.148  0.00  0.00    +0.113 C 
ATOM     11  C   UNL     1      -1.810  -3.587  -0.040  0.00  0.00    +0.130 C 
ATOM     12  C   UNL     1      -0.615  -0.775  -1.876  0.00  0.00    +0.117 C 
ATOM     13  C   UNL     1      -1.881  -1.092   0.282  0.00  0.00    +0.034 A 
ATOM     14  C   UNL     1      -1.915  -0.025   1.121  0.00  0.00    +0.002 A 
ATOM     15  C   UNL     1      -1.504  -2.630   2.174  0.00  0.00    +0.252 A 
ATOM     16  C   UNL     1       1.526  -2.007  -1.270  0.00  0.00    +0.253 C 
ATOM     17  C   UNL     1      -1.719  -0.235   2.543  0.00  0.00    +0.015 A 
ATOM     18  C   UNL     1      -1.510  -1.445   3.062  0.00  0.00    +0.071 A 
ENDROOT
BRANCH  14  19
ATOM     19  C   UNL     1      -2.129   1.352   0.623  0.00  0.00    -0.016 A 
ATOM     21  C   UNL     1      -1.038   2.134   0.244  0.00  0.00    +0.012 A 
ATOM     22  C   UNL     1      -3.421   1.869   0.535  0.00  0.00    +0.012 A 
ATOM     23  C   UNL     1      -1.239   3.432  -0.224  0.00  0.00    +0.046 A 
ATOM     24  C   UNL     1      -3.623   3.167   0.067  0.00  0.00    +0.046 A 
ATOM     25  C   UNL     1      -2.531   3.949  -0.312  0.00  0.00    +0.120 A 
BRANCH  25   4
ATOM      4  O   UNL     1      -2.727   5.216  -0.768  0.00  0.00    -0.495 OA
ATOM     29  C   UNL     1      -1.567   5.960  -1.138  0.00  0.00    +0.277 C 
ENDBRANCH  25   4
ENDBRANCH  14  19
BRANCH  16  20
ATOM     20  C   UNL     1       2.142  -0.678  -0.913  0.00  0.00    +0.324 C 
BRANCH  20   3
ATOM      3  O   UNL     1       3.446  -0.948  -0.459  0.00  0.00    -0.483 OA
BRANCH   3  26
ATOM     26  C   UNL     1       4.197   0.120  -0.021  0.00  0.00    +0.121 A 
ATOM     27  C   UNL     1       3.658   1.407  -0.041  0.00  0.00    +0.045 A 
ATOM     28  C   UNL     1       5.497  -0.084   0.441  0.00  0.00    +0.045 A 
ATOM     30  C   UNL     1       4.419   2.489   0.402  0.00  0.00    +0.004 A 
ATOM     31  C   UNL     1       6.258   0.998   0.883  0.00  0.00    +0.004 A 
ATOM     32  C   UNL     1       5.719   2.284   0.864  0.00  0.00    +0.000 A 
ENDBRANCH   3  26
ENDBRANCH  20   3
ENDBRANCH  16  20
TORSDOF 5
