REMARK  Name = 75536775
REMARK  9 active torsions:
REMARK  status: ('A' for Active; 'I' for Inactive)
REMARK    1  A    between atoms: O_2  and  C_10
REMARK    2  A    between atoms: O_4  and  C_23
REMARK    3  A    between atoms: N_6  and  C_9
REMARK    4  A    between atoms: N_6  and  C_14
REMARK    5  A    between atoms: N_7  and  C_13
REMARK    6  A    between atoms: N_8  and  C_22
REMARK    7  A    between atoms: C_11  and  C_13
REMARK    8  A    between atoms: C_14  and  C_15
REMARK    9  A    between atoms: C_21  and  C_23
REMARK                            x       y       z     vdW  Elec       q    Type
REMARK                         _______ _______ _______ _____ _____    ______ ____
ROOT
ATOM      1  O   UNL     1       4.113   0.725   0.530  0.00  0.00    -0.371 OA
ATOM      9  C   UNL     1       3.107  -1.339   1.107  0.00  0.00    +0.111 C 
ATOM     10  C   UNL     1       3.906  -1.549  -0.167  0.00  0.00    +0.164 C 
ATOM     11  C   UNL     1       4.337  -0.147  -0.594  0.00  0.00    +0.165 C 
ATOM     12  C   UNL     1       3.731  -0.068   1.660  0.00  0.00    +0.181 C 
ENDROOT
BRANCH  10   2
ATOM      2  O   UNL     1       5.067  -2.313   0.168  0.00  0.00    -0.388 OA
ATOM     30  H   UNL     1       5.591  -2.416  -0.644  0.00  0.00    +0.210 HD
ENDBRANCH  10   2
BRANCH   9   6
ATOM      6  N   UNL     1       1.687  -1.138   0.825  0.00  0.00    -0.305 NA
ATOM     29  H   UNL     1       1.270  -0.584   1.574  0.00  0.00    +0.123 HD
BRANCH   6  14
ATOM     14  C   UNL     1       0.983  -2.412   0.742  0.00  0.00    +0.116 C 
BRANCH  14  15
ATOM     15  C   UNL     1      -0.480  -2.225   0.436  0.00  0.00    -0.034 A 
ATOM     17  C   UNL     1      -0.961  -2.476  -0.849  0.00  0.00    +0.006 A 
ATOM     18  C   UNL     1      -1.354  -1.802   1.438  0.00  0.00    +0.006 A 
ATOM     19  C   UNL     1      -2.315  -2.303  -1.132  0.00  0.00    +0.015 A 
ATOM     20  C   UNL     1      -2.708  -1.629   1.154  0.00  0.00    +0.015 A 
ATOM     21  C   UNL     1      -3.189  -1.880  -0.131  0.00  0.00    +0.059 A 
BRANCH  21  23
ATOM      5  O   UNL     1      -5.135  -1.893  -1.524  0.00  0.00    -0.245 OA
ATOM     23  C   UNL     1      -4.602  -1.700  -0.426  0.00  0.00    +0.337 C 
BRANCH  23   4
ATOM      4  O   UNL     1      -5.312  -1.285   0.659  0.00  0.00    -0.477 OA
ATOM     33  H   UNL     1      -6.263  -1.167   0.450  0.00  0.00    +0.295 HD
ENDBRANCH  23   4
ENDBRANCH  21  23
ENDBRANCH  14  15
ENDBRANCH   6  14
ENDBRANCH   9   6
BRANCH  11  13
ATOM     13  C   UNL     1       3.556   0.395  -1.782  0.00  0.00    +0.140 C 
BRANCH  13   7
ATOM      3  O   UNL     1       2.160   2.623  -0.645  0.00  0.00    -0.253 OA
ATOM      7  N   UNL     1       2.153   0.471  -1.492  0.00  0.00    -0.297 N 
ATOM      8  N   UNL     1       0.168   1.387  -0.765  0.00  0.00    -0.269 N 
ATOM     16  C   UNL     1       1.538   1.603  -0.933  0.00  0.00    +0.304 C 
ATOM     31  H   UNL     1       1.577  -0.341  -1.694  0.00  0.00    +0.150 HD
ATOM     32  H   UNL     1      -0.190   0.481  -1.056  0.00  0.00    +0.156 HD
BRANCH   8  22
ATOM     22  C   UNL     1      -0.793   2.279  -0.235  0.00  0.00    +0.035 A 
ATOM     24  C   UNL     1      -2.129   1.889  -0.141  0.00  0.00    +0.023 A 
ATOM     25  C   UNL     1      -0.405   3.549   0.192  0.00  0.00    +0.023 A 
ATOM     26  C   UNL     1      -3.077   2.769   0.381  0.00  0.00    +0.002 A 
ATOM     27  C   UNL     1      -1.354   4.429   0.714  0.00  0.00    +0.002 A 
ATOM     28  C   UNL     1      -2.690   4.039   0.808  0.00  0.00    +0.000 A 
ENDBRANCH   8  22
ENDBRANCH  13   7
ENDBRANCH  11  13
TORSDOF 9
