MODEL 1
REMARK VINA RESULT:      -6.2      0.000      0.000
REMARK  Name = 26742476
REMARK  12 active torsions:
REMARK  status: ('A' for Active; 'I' for Inactive)
REMARK    1  A    between atoms: N_3  and  C_14
REMARK    2  A    between atoms: N_6  and  C_30
REMARK    3  A    between atoms: N_6  and  C_31
REMARK    4  A    between atoms: N_6  and  C_32
REMARK    5  A    between atoms: C_8  and  C_15
REMARK    6  A    between atoms: C_9  and  C_14
REMARK    7  A    between atoms: C_17  and  C_19
REMARK    8  A    between atoms: C_18  and  C_21
REMARK    9  A    between atoms: C_19  and  C_22
REMARK   10  A    between atoms: C_19  and  C_23
REMARK   11  A    between atoms: C_19  and  C_24
REMARK   12  A    between atoms: C_20  and  C_25
REMARK                            x       y       z     vdW  Elec       q    Type
REMARK                         _______ _______ _______ _____ _____    ______ ____
ROOT
ATOM      2  N   UNL     1      -7.478 -11.528  17.949  0.00  0.00    -0.297 NA
ATOM      7  C   UNL     1      -4.940 -11.502  18.532  0.00  0.00    +0.002 C 
ATOM      8  C   UNL     1      -5.241 -10.521  17.365  0.00  0.00    +0.055 C 
ATOM      9  C   UNL     1      -6.955 -12.918  18.005  0.00  0.00    +0.074 C 
ATOM     10  C   UNL     1      -5.418 -12.917  18.143  0.00  0.00    +0.024 C 
ATOM     11  C   UNL     1      -5.799 -11.045  19.730  0.00  0.00    +0.019 C 
ATOM     12  C   UNL     1      -6.722 -10.741  16.945  0.00  0.00    +0.094 C 
ATOM     13  C   UNL     1      -7.264 -10.909  19.280  0.00  0.00    +0.085 C 
ENDROOT
BRANCH   8  15
ATOM      4  N   UNL     1      -2.977 -10.595  16.440  0.00  0.00    -0.237 NA
ATOM      5  N   UNL     1      -2.555 -10.501  14.069  0.00  0.00    -0.232 NA
ATOM     15  C   UNL     1      -4.296 -10.513  16.171  0.00  0.00    +0.050 A 
ATOM     16  C   UNL     1      -4.814 -10.424  14.895  0.00  0.00    +0.052 A 
ATOM     18  C   UNL     1      -3.888 -10.422  13.873  0.00  0.00    +0.075 A 
ATOM     20  C   UNL     1      -2.175 -10.584  15.359  0.00  0.00    +0.127 A 
ATOM     25  C   UNL     1      -0.708 -10.671  15.616  0.00  0.00    +0.088 C 
BRANCH  18  21
ATOM     21  C   UNL     1      -4.299 -10.331  12.492  0.00  0.00    +0.001 A 
ATOM     26  C   UNL     1      -5.657 -10.277  12.172  0.00  0.00    +0.012 A 
ATOM     27  C   UNL     1      -3.342 -10.296  11.479  0.00  0.00    +0.012 A 
ATOM     28  C   UNL     1      -6.055 -10.189  10.838  0.00  0.00    +0.024 A 
ATOM     29  C   UNL     1      -3.741 -10.208  10.146  0.00  0.00    +0.024 A 
ATOM     30  C   UNL     1      -5.097 -10.154   9.825  0.00  0.00    +0.029 A 
BRANCH  30   6
ATOM      6  N   UNL     1      -5.500 -10.065   8.477  0.00  0.00    -0.336 N 
ATOM     31  C   UNL     1      -4.839 -10.860   7.460  0.00  0.00    +0.129 C 
ATOM     32  C   UNL     1      -6.573  -9.173   8.088  0.00  0.00    +0.129 C 
ENDBRANCH  30   6
ENDBRANCH  18  21
ENDBRANCH   8  15
BRANCH   9  14
ATOM     14  C   UNL     1      -7.421 -13.764  16.818  0.00  0.00    +0.123 C 
BRANCH  14   3
ATOM      1  O   UNL     1      -6.931 -13.116  14.086  0.00  0.00    -0.275 OA
ATOM      3  N   UNL     1      -6.307 -14.196  16.031  0.00  0.00    -0.313 N 
ATOM     17  C   UNL     1      -6.138 -13.835  14.695  0.00  0.00    +0.218 C 
ATOM     33  H   UNL     1      -5.617 -14.792  16.479  0.00  0.00    +0.149 HD
BRANCH  17  19
ATOM     19  C   UNL     1      -4.867 -14.405  14.029  0.00  0.00    +0.039 C 
ATOM     22  C   UNL     1      -4.770 -13.920  12.576  0.00  0.00    +0.020 C 
ATOM     23  C   UNL     1      -4.939 -15.943  14.029  0.00  0.00    +0.020 C 
ATOM     24  C   UNL     1      -3.620 -13.973  14.817  0.00  0.00    +0.020 C 
ENDBRANCH  17  19
ENDBRANCH  14   3
ENDBRANCH   9  14
TORSDOF 6
ENDMDL
MODEL 2
REMARK VINA RESULT:      -5.9     23.783     26.657
REMARK  Name = 26742476
REMARK  12 active torsions:
REMARK  status: ('A' for Active; 'I' for Inactive)
REMARK    1  A    between atoms: N_3  and  C_14
REMARK    2  A    between atoms: N_6  and  C_30
REMARK    3  A    between atoms: N_6  and  C_31
REMARK    4  A    between atoms: N_6  and  C_32
REMARK    5  A    between atoms: C_8  and  C_15
REMARK    6  A    between atoms: C_9  and  C_14
REMARK    7  A    between atoms: C_17  and  C_19
REMARK    8  A    between atoms: C_18  and  C_21
REMARK    9  A    between atoms: C_19  and  C_22
REMARK   10  A    between atoms: C_19  and  C_23
REMARK   11  A    between atoms: C_19  and  C_24
REMARK   12  A    between atoms: C_20  and  C_25
REMARK                            x       y       z     vdW  Elec       q    Type
REMARK                         _______ _______ _______ _____ _____    ______ ____
ROOT
ATOM      2  N   UNL     1       9.992   6.877   7.715  0.00  0.00    -0.297 NA
ATOM      7  C   UNL     1       9.822   5.054   5.862  0.00  0.00    +0.002 C 
ATOM      8  C   UNL     1      11.132   5.874   5.701  0.00  0.00    +0.055 C 
ATOM      9  C   UNL     1       8.659   6.942   7.059  0.00  0.00    +0.074 C 
ATOM     10  C   UNL     1       8.613   6.013   5.826  0.00  0.00    +0.024 C 
ATOM     11  C   UNL     1       9.861   4.426   7.271  0.00  0.00    +0.019 C 
ATOM     12  C   UNL     1      11.064   7.059   6.706  0.00  0.00    +0.094 C 
ATOM     13  C   UNL     1      10.139   5.526   8.309  0.00  0.00    +0.085 C 
ENDROOT
BRANCH   8  15
ATOM      4  N   UNL     1      11.971   7.593   4.176  0.00  0.00    -0.237 NA
ATOM      5  N   UNL     1      12.252   7.190   1.816  0.00  0.00    -0.232 NA
ATOM     15  C   UNL     1      11.530   6.325   4.302  0.00  0.00    +0.050 A 
ATOM     16  C   UNL     1      11.422   5.442   3.247  0.00  0.00    +0.052 A 
ATOM     18  C   UNL     1      11.801   5.934   2.015  0.00  0.00    +0.075 A 
ATOM     20  C   UNL     1      12.311   7.955   2.924  0.00  0.00    +0.127 A 
ATOM     25  C   UNL     1      12.803   9.351   2.744  0.00  0.00    +0.088 C 
BRANCH  18  21
ATOM     21  C   UNL     1      11.735   5.112   0.830  0.00  0.00    +0.001 A 
ATOM     26  C   UNL     1      10.704   5.299  -0.092  0.00  0.00    +0.012 A 
ATOM     27  C   UNL     1      12.701   4.132   0.606  0.00  0.00    +0.012 A 
ATOM     28  C   UNL     1      10.640   4.505  -1.236  0.00  0.00    +0.024 A 
ATOM     29  C   UNL     1      12.637   3.338  -0.539  0.00  0.00    +0.024 A 
ATOM     30  C   UNL     1      11.607   3.525  -1.460  0.00  0.00    +0.029 A 
BRANCH  30   6
ATOM      6  N   UNL     1      11.542   2.722  -2.617  0.00  0.00    -0.336 N 
ATOM     31  C   UNL     1      10.413   1.840  -2.836  0.00  0.00    +0.129 C 
ATOM     32  C   UNL     1      12.607   2.761  -3.599  0.00  0.00    +0.129 C 
ENDBRANCH  30   6
ENDBRANCH  18  21
ENDBRANCH   8  15
BRANCH   9  14
ATOM     14  C   UNL     1       8.250   8.375   6.710  0.00  0.00    +0.123 C 
BRANCH  14   3
ATOM      1  O   UNL     1       9.727  10.015   4.907  0.00  0.00    -0.275 OA
ATOM      3  N   UNL     1       8.018   8.512   5.305  0.00  0.00    -0.313 N 
ATOM     17  C   UNL     1       8.788   9.338   4.487  0.00  0.00    +0.218 C 
ATOM     33  H   UNL     1       7.257   7.976   4.900  0.00  0.00    +0.149 HD
BRANCH  17  19
ATOM     19  C   UNL     1       8.374   9.339   3.000  0.00  0.00    +0.039 C 
ATOM     22  C   UNL     1       8.727   7.991   2.354  0.00  0.00    +0.020 C 
ATOM     23  C   UNL     1       9.136  10.453   2.259  0.00  0.00    +0.020 C 
ATOM     24  C   UNL     1       6.866   9.609   2.873  0.00  0.00    +0.020 C 
ENDBRANCH  17  19
ENDBRANCH  14   3
ENDBRANCH   9  14
TORSDOF 6
ENDMDL
MODEL 3
REMARK VINA RESULT:      -5.8     24.559     27.425
REMARK  Name = 26742476
REMARK  12 active torsions:
REMARK  status: ('A' for Active; 'I' for Inactive)
REMARK    1  A    between atoms: N_3  and  C_14
REMARK    2  A    between atoms: N_6  and  C_30
REMARK    3  A    between atoms: N_6  and  C_31
REMARK    4  A    between atoms: N_6  and  C_32
REMARK    5  A    between atoms: C_8  and  C_15
REMARK    6  A    between atoms: C_9  and  C_14
REMARK    7  A    between atoms: C_17  and  C_19
REMARK    8  A    between atoms: C_18  and  C_21
REMARK    9  A    between atoms: C_19  and  C_22
REMARK   10  A    between atoms: C_19  and  C_23
REMARK   11  A    between atoms: C_19  and  C_24
REMARK   12  A    between atoms: C_20  and  C_25
REMARK                            x       y       z     vdW  Elec       q    Type
REMARK                         _______ _______ _______ _____ _____    ______ ____
ROOT
ATOM      2  N   UNL     1      10.213  11.385   8.311  0.00  0.00    -0.297 NA
ATOM      7  C   UNL     1       9.482  10.385   6.020  0.00  0.00    +0.002 C 
ATOM      8  C   UNL     1       9.189   9.382   7.170  0.00  0.00    +0.055 C 
ATOM      9  C   UNL     1      11.318  11.514   7.325  0.00  0.00    +0.074 C 
ATOM     10  C   UNL     1      10.983  10.746   6.028  0.00  0.00    +0.024 C 
ATOM     11  C   UNL     1       8.703  11.677   6.347  0.00  0.00    +0.019 C 
ATOM     12  C   UNL     1       9.832   9.959   8.463  0.00  0.00    +0.094 C 
ATOM     13  C   UNL     1       9.043  12.124   7.780  0.00  0.00    +0.085 C 
ENDROOT
BRANCH   8  15
ATOM      4  N   UNL     1       9.321   7.079   7.986  0.00  0.00    -0.237 NA
ATOM      5  N   UNL     1      10.166   5.280   6.622  0.00  0.00    -0.232 NA
ATOM     15  C   UNL     1       9.544   7.918   6.953  0.00  0.00    +0.050 A 
ATOM     16  C   UNL     1      10.068   7.517   5.740  0.00  0.00    +0.052 A 
ATOM     18  C   UNL     1      10.363   6.174   5.631  0.00  0.00    +0.075 A 
ATOM     20  C   UNL     1       9.649   5.794   7.756  0.00  0.00    +0.127 A 
ATOM     25  C   UNL     1       9.418   4.837   8.876  0.00  0.00    +0.088 C 
BRANCH  18  21
ATOM     21  C   UNL     1      10.918   5.628   4.415  0.00  0.00    +0.001 A 
ATOM     26  C   UNL     1      11.831   6.375   3.669  0.00  0.00    +0.012 A 
ATOM     27  C   UNL     1      10.542   4.355   3.987  0.00  0.00    +0.012 A 
ATOM     28  C   UNL     1      12.367   5.848   2.494  0.00  0.00    +0.024 A 
ATOM     29  C   UNL     1      11.079   3.829   2.812  0.00  0.00    +0.024 A 
ATOM     30  C   UNL     1      11.991   4.574   2.067  0.00  0.00    +0.029 A 
BRANCH  30   6
ATOM      6  N   UNL     1      12.533   4.041   0.879  0.00  0.00    -0.336 N 
ATOM     31  C   UNL     1      11.721   3.942  -0.318  0.00  0.00    +0.129 C 
ATOM     32  C   UNL     1      13.906   3.579   0.840  0.00  0.00    +0.129 C 
ENDBRANCH  30   6
ENDBRANCH  18  21
ENDBRANCH   8  15
BRANCH   9  14
ATOM     14  C   UNL     1      12.670  11.092   7.904  0.00  0.00    +0.123 C 
BRANCH  14   3
ATOM      1  O   UNL     1      15.175  10.848   6.567  0.00  0.00    -0.275 OA
ATOM      3  N   UNL     1      13.167   9.925   7.243  0.00  0.00    -0.313 N 
ATOM     17  C   UNL     1      14.409   9.885   6.609  0.00  0.00    +0.218 C 
ATOM     33  H   UNL     1      12.580   9.097   7.244  0.00  0.00    +0.149 HD
BRANCH  17  19
ATOM     19  C   UNL     1      14.756   8.528   5.959  0.00  0.00    +0.039 C 
ATOM     22  C   UNL     1      13.910   7.411   6.587  0.00  0.00    +0.020 C 
ATOM     23  C   UNL     1      16.244   8.212   6.203  0.00  0.00    +0.020 C 
ATOM     24  C   UNL     1      14.512   8.591   4.444  0.00  0.00    +0.020 C 
ENDBRANCH  17  19
ENDBRANCH  14   3
ENDBRANCH   9  14
TORSDOF 6
ENDMDL
MODEL 4
REMARK VINA RESULT:      -5.7     23.869     26.857
REMARK  Name = 26742476
REMARK  12 active torsions:
REMARK  status: ('A' for Active; 'I' for Inactive)
REMARK    1  A    between atoms: N_3  and  C_14
REMARK    2  A    between atoms: N_6  and  C_30
REMARK    3  A    between atoms: N_6  and  C_31
REMARK    4  A    between atoms: N_6  and  C_32
REMARK    5  A    between atoms: C_8  and  C_15
REMARK    6  A    between atoms: C_9  and  C_14
REMARK    7  A    between atoms: C_17  and  C_19
REMARK    8  A    between atoms: C_18  and  C_21
REMARK    9  A    between atoms: C_19  and  C_22
REMARK   10  A    between atoms: C_19  and  C_23
REMARK   11  A    between atoms: C_19  and  C_24
REMARK   12  A    between atoms: C_20  and  C_25
REMARK                            x       y       z     vdW  Elec       q    Type
REMARK                         _______ _______ _______ _____ _____    ______ ____
ROOT
ATOM      2  N   UNL     1      10.451   5.318   7.896  0.00  0.00    -0.297 NA
ATOM      7  C   UNL     1       9.187   7.491   7.213  0.00  0.00    +0.002 C 
ATOM      8  C   UNL     1       8.968   6.377   6.152  0.00  0.00    +0.055 C 
ATOM      9  C   UNL     1      11.367   6.486   7.978  0.00  0.00    +0.074 C 
ATOM     10  C   UNL     1      10.700   7.745   7.382  0.00  0.00    +0.024 C 
ATOM     11  C   UNL     1       8.668   6.933   8.555  0.00  0.00    +0.019 C 
ATOM     12  C   UNL     1       9.908   5.194   6.521  0.00  0.00    +0.094 C 
ATOM     13  C   UNL     1       9.319   5.565   8.821  0.00  0.00    +0.085 C 
ENDROOT
BRANCH   8  15
ATOM      4  N   UNL     1       8.287   7.772   4.260  0.00  0.00    -0.237 NA
ATOM      5  N   UNL     1       9.207   7.480   2.052  0.00  0.00    -0.232 NA
ATOM     15  C   UNL     1       9.070   6.757   4.681  0.00  0.00    +0.050 A 
ATOM     16  C   UNL     1       9.935   6.065   3.858  0.00  0.00    +0.052 A 
ATOM     18  C   UNL     1       9.962   6.473   2.540  0.00  0.00    +0.075 A 
ATOM     20  C   UNL     1       8.404   8.077   2.955  0.00  0.00    +0.127 A 
ATOM     25  C   UNL     1       7.553   9.194   2.452  0.00  0.00    +0.088 C 
BRANCH  18  21
ATOM     21  C   UNL     1      10.822   5.830   1.576  0.00  0.00    +0.001 A 
ATOM     26  C   UNL     1      11.285   4.534   1.810  0.00  0.00    +0.012 A 
ATOM     27  C   UNL     1      11.191   6.502   0.412  0.00  0.00    +0.012 A 
ATOM     28  C   UNL     1      12.116   3.912   0.879  0.00  0.00    +0.024 A 
ATOM     29  C   UNL     1      12.022   5.879  -0.519  0.00  0.00    +0.024 A 
ATOM     30  C   UNL     1      12.484   4.584  -0.286  0.00  0.00    +0.029 A 
BRANCH  30   6
ATOM      6  N   UNL     1      13.325   3.956  -1.227  0.00  0.00    -0.336 N 
ATOM     31  C   UNL     1      12.760   3.205  -2.330  0.00  0.00    +0.129 C 
ATOM     32  C   UNL     1      14.766   4.044  -1.098  0.00  0.00    +0.129 C 
ENDBRANCH  30   6
ENDBRANCH  18  21
ENDBRANCH   8  15
BRANCH   9  14
ATOM     14  C   UNL     1      12.729   6.205   7.338  0.00  0.00    +0.123 C 
BRANCH  14   3
ATOM      1  O   UNL     1      15.075   7.330   6.176  0.00  0.00    -0.275 OA
ATOM      3  N   UNL     1      12.825   6.821   6.051  0.00  0.00    -0.313 N 
ATOM     17  C   UNL     1      14.015   7.350   5.551  0.00  0.00    +0.218 C 
ATOM     33  H   UNL     1      11.982   6.867   5.487  0.00  0.00    +0.149 HD
BRANCH  17  19
ATOM     19  C   UNL     1      13.902   7.966   4.140  0.00  0.00    +0.039 C 
ATOM     22  C   UNL     1      12.527   8.626   3.961  0.00  0.00    +0.020 C 
ATOM     23  C   UNL     1      14.054   6.854   3.085  0.00  0.00    +0.020 C 
ATOM     24  C   UNL     1      15.019   9.000   3.925  0.00  0.00    +0.020 C 
ENDBRANCH  17  19
ENDBRANCH  14   3
ENDBRANCH   9  14
TORSDOF 6
ENDMDL
MODEL 5
REMARK VINA RESULT:      -5.6      3.205      6.064
REMARK  Name = 26742476
REMARK  12 active torsions:
REMARK  status: ('A' for Active; 'I' for Inactive)
REMARK    1  A    between atoms: N_3  and  C_14
REMARK    2  A    between atoms: N_6  and  C_30
REMARK    3  A    between atoms: N_6  and  C_31
REMARK    4  A    between atoms: N_6  and  C_32
REMARK    5  A    between atoms: C_8  and  C_15
REMARK    6  A    between atoms: C_9  and  C_14
REMARK    7  A    between atoms: C_17  and  C_19
REMARK    8  A    between atoms: C_18  and  C_21
REMARK    9  A    between atoms: C_19  and  C_22
REMARK   10  A    between atoms: C_19  and  C_23
REMARK   11  A    between atoms: C_19  and  C_24
REMARK   12  A    between atoms: C_20  and  C_25
REMARK                            x       y       z     vdW  Elec       q    Type
REMARK                         _______ _______ _______ _____ _____    ______ ____
ROOT
ATOM      2  N   UNL     1      -2.401 -12.257  14.839  0.00  0.00    -0.297 NA
ATOM      7  C   UNL     1      -4.272 -10.672  13.961  0.00  0.00    +0.002 C 
ATOM      8  C   UNL     1      -3.999 -10.408  15.467  0.00  0.00    +0.055 C 
ATOM      9  C   UNL     1      -3.432 -13.042  14.109  0.00  0.00    +0.074 C 
ATOM     10  C   UNL     1      -4.648 -12.156  13.762  0.00  0.00    +0.024 C 
ATOM     11  C   UNL     1      -2.939 -10.437  13.219  0.00  0.00    +0.019 C 
ATOM     12  C   UNL     1      -3.027 -11.517  15.962  0.00  0.00    +0.094 C 
ATOM     13  C   UNL     1      -1.832 -11.267  13.893  0.00  0.00    +0.085 C 
ENDROOT
BRANCH   8  15
ATOM      4  N   UNL     1      -5.025 -10.604  17.680  0.00  0.00    -0.237 NA
ATOM      5  N   UNL     1      -7.304  -9.942  18.101  0.00  0.00    -0.232 NA
ATOM     15  C   UNL     1      -5.194 -10.232  16.394  0.00  0.00    +0.050 A 
ATOM     16  C   UNL     1      -6.371  -9.714  15.894  0.00  0.00    +0.052 A 
ATOM     18  C   UNL     1      -7.403  -9.590  16.802  0.00  0.00    +0.075 A 
ATOM     20  C   UNL     1      -6.104 -10.435  18.466  0.00  0.00    +0.127 A 
ATOM     25  C   UNL     1      -5.957 -10.837  19.895  0.00  0.00    +0.088 C 
BRANCH  18  21
ATOM     21  C   UNL     1      -8.687  -9.063  16.406  0.00  0.00    +0.001 A 
ATOM     26  C   UNL     1      -9.248  -9.439  15.184  0.00  0.00    +0.012 A 
ATOM     27  C   UNL     1      -9.367  -8.179  17.243  0.00  0.00    +0.012 A 
ATOM     28  C   UNL     1     -10.488  -8.930  14.801  0.00  0.00    +0.024 A 
ATOM     29  C   UNL     1     -10.607  -7.671  16.859  0.00  0.00    +0.024 A 
ATOM     30  C   UNL     1     -11.168  -8.046  15.639  0.00  0.00    +0.029 A 
BRANCH  30   6
ATOM      6  N   UNL     1     -12.422  -7.531  15.251  0.00  0.00    -0.336 N 
ATOM     31  C   UNL     1     -13.354  -8.352  14.502  0.00  0.00    +0.129 C 
ATOM     32  C   UNL     1     -12.794  -6.172  15.589  0.00  0.00    +0.129 C 
ENDBRANCH  30   6
ENDBRANCH  18  21
ENDBRANCH   8  15
BRANCH   9  14
ATOM     14  C   UNL     1      -3.845 -14.306  14.866  0.00  0.00    +0.123 C 
BRANCH  14   3
ATOM      1  O   UNL     1      -4.961 -13.947  17.464  0.00  0.00    -0.275 OA
ATOM      3  N   UNL     1      -5.238 -14.273  15.193  0.00  0.00    -0.313 N 
ATOM     17  C   UNL     1      -5.706 -14.092  16.494  0.00  0.00    +0.218 C 
ATOM     33  H   UNL     1      -5.902 -14.387  14.434  0.00  0.00    +0.149 HD
BRANCH  17  19
ATOM     19  C   UNL     1      -7.244 -14.085  16.629  0.00  0.00    +0.039 C 
ATOM     22  C   UNL     1      -7.806 -15.483  16.334  0.00  0.00    +0.020 C 
ATOM     23  C   UNL     1      -7.839 -13.092  15.613  0.00  0.00    +0.020 C 
ATOM     24  C   UNL     1      -7.647 -13.639  18.043  0.00  0.00    +0.020 C 
ENDBRANCH  17  19
ENDBRANCH  14   3
ENDBRANCH   9  14
TORSDOF 6
ENDMDL
MODEL 6
REMARK VINA RESULT:      -5.6     24.136     27.288
REMARK  Name = 26742476
REMARK  12 active torsions:
REMARK  status: ('A' for Active; 'I' for Inactive)
REMARK    1  A    between atoms: N_3  and  C_14
REMARK    2  A    between atoms: N_6  and  C_30
REMARK    3  A    between atoms: N_6  and  C_31
REMARK    4  A    between atoms: N_6  and  C_32
REMARK    5  A    between atoms: C_8  and  C_15
REMARK    6  A    between atoms: C_9  and  C_14
REMARK    7  A    between atoms: C_17  and  C_19
REMARK    8  A    between atoms: C_18  and  C_21
REMARK    9  A    between atoms: C_19  and  C_22
REMARK   10  A    between atoms: C_19  and  C_23
REMARK   11  A    between atoms: C_19  and  C_24
REMARK   12  A    between atoms: C_20  and  C_25
REMARK                            x       y       z     vdW  Elec       q    Type
REMARK                         _______ _______ _______ _____ _____    ______ ____
ROOT
ATOM      2  N   UNL     1      19.891  -3.443  28.779  0.00  0.00    -0.297 NA
ATOM      7  C   UNL     1      17.551  -2.543  29.484  0.00  0.00    +0.002 C 
ATOM      8  C   UNL     1      17.716  -4.027  29.914  0.00  0.00    +0.055 C 
ATOM      9  C   UNL     1      19.231  -2.781  27.622  0.00  0.00    +0.074 C 
ATOM     10  C   UNL     1      17.767  -2.426  27.960  0.00  0.00    +0.024 C 
ATOM     11  C   UNL     1      18.689  -1.753  30.166  0.00  0.00    +0.019 C 
ATOM     12  C   UNL     1      19.040  -4.547  29.286  0.00  0.00    +0.094 C 
ATOM     13  C   UNL     1      20.033  -2.435  29.857  0.00  0.00    +0.085 C 
ENDROOT
BRANCH   8  15
ATOM      4  N   UNL     1      16.620  -5.759  28.578  0.00  0.00    -0.237 NA
ATOM      5  N   UNL     1      14.488  -6.698  29.192  0.00  0.00    -0.232 NA
ATOM     15  C   UNL     1      16.550  -4.977  29.675  0.00  0.00    +0.050 A 
ATOM     16  C   UNL     1      15.496  -4.999  30.566  0.00  0.00    +0.052 A 
ATOM     18  C   UNL     1      14.483  -5.888  30.271  0.00  0.00    +0.075 A 
ATOM     20  C   UNL     1      15.571  -6.584  28.400  0.00  0.00    +0.127 A 
ATOM     25  C   UNL     1      15.611  -7.463  27.196  0.00  0.00    +0.088 C 
BRANCH  18  21
ATOM     21  C   UNL     1      13.323  -6.006  31.122  0.00  0.00    +0.001 A 
ATOM     26  C   UNL     1      13.107  -5.076  32.140  0.00  0.00    +0.012 A 
ATOM     27  C   UNL     1      12.418  -7.049  30.927  0.00  0.00    +0.012 A 
ATOM     28  C   UNL     1      11.987  -5.190  32.963  0.00  0.00    +0.024 A 
ATOM     29  C   UNL     1      11.298  -7.162  31.750  0.00  0.00    +0.024 A 
ATOM     30  C   UNL     1      11.082  -6.233  32.767  0.00  0.00    +0.029 A 
BRANCH  30   6
ATOM      6  N   UNL     1       9.949  -6.349  33.599  0.00  0.00    -0.336 N 
ATOM     31  C   UNL     1       9.187  -5.173  33.969  0.00  0.00    +0.129 C 
ATOM     32  C   UNL     1       9.537  -7.644  34.102  0.00  0.00    +0.129 C 
ENDBRANCH  30   6
ENDBRANCH  18  21
ENDBRANCH   8  15
BRANCH   9  14
ATOM     14  C   UNL     1      19.335  -3.609  26.339  0.00  0.00    +0.123 C 
BRANCH  14   3
ATOM      1  O   UNL     1      16.885  -4.290  25.053  0.00  0.00    -0.275 OA
ATOM      3  N   UNL     1      18.737  -2.921  25.237  0.00  0.00    -0.313 N 
ATOM     17  C   UNL     1      17.530  -3.318  24.661  0.00  0.00    +0.218 C 
ATOM     33  H   UNL     1      19.223  -2.109  24.870  0.00  0.00    +0.149 HD
BRANCH  17  19
ATOM     19  C   UNL     1      17.058  -2.436  23.485  0.00  0.00    +0.039 C 
ATOM     22  C   UNL     1      17.996  -2.615  22.282  0.00  0.00    +0.020 C 
ATOM     23  C   UNL     1      17.086  -0.957  23.914  0.00  0.00    +0.020 C 
ATOM     24  C   UNL     1      15.619  -2.805  23.094  0.00  0.00    +0.020 C 
ENDBRANCH  17  19
ENDBRANCH  14   3
ENDBRANCH   9  14
TORSDOF 6
ENDMDL
MODEL 7
REMARK VINA RESULT:      -5.6      4.242      6.693
REMARK  Name = 26742476
REMARK  12 active torsions:
REMARK  status: ('A' for Active; 'I' for Inactive)
REMARK    1  A    between atoms: N_3  and  C_14
REMARK    2  A    between atoms: N_6  and  C_30
REMARK    3  A    between atoms: N_6  and  C_31
REMARK    4  A    between atoms: N_6  and  C_32
REMARK    5  A    between atoms: C_8  and  C_15
REMARK    6  A    between atoms: C_9  and  C_14
REMARK    7  A    between atoms: C_17  and  C_19
REMARK    8  A    between atoms: C_18  and  C_21
REMARK    9  A    between atoms: C_19  and  C_22
REMARK   10  A    between atoms: C_19  and  C_23
REMARK   11  A    between atoms: C_19  and  C_24
REMARK   12  A    between atoms: C_20  and  C_25
REMARK                            x       y       z     vdW  Elec       q    Type
REMARK                         _______ _______ _______ _____ _____    ______ ____
ROOT
ATOM      2  N   UNL     1      -5.531 -11.940  15.533  0.00  0.00    -0.297 NA
ATOM      7  C   UNL     1      -5.731 -10.485  17.685  0.00  0.00    +0.002 C 
ATOM      8  C   UNL     1      -7.035 -11.298  17.454  0.00  0.00    +0.055 C 
ATOM      9  C   UNL     1      -5.136 -10.537  15.238  0.00  0.00    +0.074 C 
ATOM     10  C   UNL     1      -5.443  -9.619  16.440  0.00  0.00    +0.024 C 
ATOM     11  C   UNL     1      -4.583 -11.510  17.800  0.00  0.00    +0.019 C 
ATOM     12  C   UNL     1      -6.918 -11.976  16.059  0.00  0.00    +0.094 C 
ATOM     13  C   UNL     1      -4.623 -12.454  16.586  0.00  0.00    +0.085 C 
ENDROOT
BRANCH   8  15
ATOM      4  N   UNL     1      -9.007 -10.787  18.810  0.00  0.00    -0.237 NA
ATOM      5  N   UNL     1     -10.764  -9.336  18.026  0.00  0.00    -0.232 NA
ATOM     15  C   UNL     1      -8.368 -10.585  17.639  0.00  0.00    +0.050 A 
ATOM     16  C   UNL     1      -8.857  -9.783  16.628  0.00  0.00    +0.052 A 
ATOM     18  C   UNL     1     -10.071  -9.178  16.879  0.00  0.00    +0.075 A 
ATOM     20  C   UNL     1     -10.182 -10.142  18.935  0.00  0.00    +0.127 A 
ATOM     25  C   UNL     1     -10.919 -10.342  20.216  0.00  0.00    +0.088 C 
BRANCH  18  21
ATOM     21  C   UNL     1     -10.692  -8.316  15.902  0.00  0.00    +0.001 A 
ATOM     26  C   UNL     1     -11.260  -8.863  14.750  0.00  0.00    +0.012 A 
ATOM     27  C   UNL     1     -10.725  -6.938  16.108  0.00  0.00    +0.012 A 
ATOM     28  C   UNL     1     -11.859  -8.031  13.805  0.00  0.00    +0.024 A 
ATOM     29  C   UNL     1     -11.325  -6.106  15.163  0.00  0.00    +0.024 A 
ATOM     30  C   UNL     1     -11.893  -6.652  14.013  0.00  0.00    +0.029 A 
BRANCH  30   6
ATOM      6  N   UNL     1     -12.498  -5.810  13.057  0.00  0.00    -0.336 N 
ATOM     31  C   UNL     1     -13.089  -6.368  11.857  0.00  0.00    +0.129 C 
ATOM     32  C   UNL     1     -12.531  -4.375  13.259  0.00  0.00    +0.129 C 
ENDBRANCH  30   6
ENDBRANCH  18  21
ENDBRANCH   8  15
BRANCH   9  14
ATOM     14  C   UNL     1      -5.765 -10.014  13.945  0.00  0.00    +0.123 C 
BRANCH  14   3
ATOM      1  O   UNL     1      -5.888  -8.707  11.415  0.00  0.00    -0.275 OA
ATOM      3  N   UNL     1      -4.906 -10.251  12.826  0.00  0.00    -0.313 N 
ATOM     17  C   UNL     1      -5.031  -9.568  11.616  0.00  0.00    +0.218 C 
ATOM     33  H   UNL     1      -4.178 -10.951  12.932  0.00  0.00    +0.149 HD
BRANCH  17  19
ATOM     19  C   UNL     1      -4.001  -9.972  10.540  0.00  0.00    +0.039 C 
ATOM     22  C   UNL     1      -4.337 -11.365   9.985  0.00  0.00    +0.020 C 
ATOM     23  C   UNL     1      -2.597 -10.021  11.170  0.00  0.00    +0.020 C 
ATOM     24  C   UNL     1      -3.991  -8.938   9.404  0.00  0.00    +0.020 C 
ENDBRANCH  17  19
ENDBRANCH  14   3
ENDBRANCH   9  14
TORSDOF 6
ENDMDL
MODEL 8
REMARK VINA RESULT:      -5.5      2.449      4.051
REMARK  Name = 26742476
REMARK  12 active torsions:
REMARK  status: ('A' for Active; 'I' for Inactive)
REMARK    1  A    between atoms: N_3  and  C_14
REMARK    2  A    between atoms: N_6  and  C_30
REMARK    3  A    between atoms: N_6  and  C_31
REMARK    4  A    between atoms: N_6  and  C_32
REMARK    5  A    between atoms: C_8  and  C_15
REMARK    6  A    between atoms: C_9  and  C_14
REMARK    7  A    between atoms: C_17  and  C_19
REMARK    8  A    between atoms: C_18  and  C_21
REMARK    9  A    between atoms: C_19  and  C_22
REMARK   10  A    between atoms: C_19  and  C_23
REMARK   11  A    between atoms: C_19  and  C_24
REMARK   12  A    between atoms: C_20  and  C_25
REMARK                            x       y       z     vdW  Elec       q    Type
REMARK                         _______ _______ _______ _____ _____    ______ ____
ROOT
ATOM      2  N   UNL     1      -7.697 -10.441  18.280  0.00  0.00    -0.297 NA
ATOM      7  C   UNL     1      -5.632 -12.027  18.188  0.00  0.00    +0.002 C 
ATOM      8  C   UNL     1      -5.287 -10.647  17.562  0.00  0.00    +0.055 C 
ATOM      9  C   UNL     1      -8.090 -11.754  17.704  0.00  0.00    +0.074 C 
ATOM     10  C   UNL     1      -6.845 -12.632  17.450  0.00  0.00    +0.024 C 
ATOM     11  C   UNL     1      -6.074 -11.758  19.642  0.00  0.00    +0.019 C 
ATOM     12  C   UNL     1      -6.611  -9.836  17.470  0.00  0.00    +0.094 C 
ATOM     13  C   UNL     1      -7.175 -10.683  19.646  0.00  0.00    +0.085 C 
ENDROOT
BRANCH   8  15
ATOM      4  N   UNL     1      -3.195 -10.941  16.328  0.00  0.00    -0.237 NA
ATOM      5  N   UNL     1      -3.051 -10.601  13.946  0.00  0.00    -0.232 NA
ATOM     15  C   UNL     1      -4.505 -10.626  16.256  0.00  0.00    +0.050 A 
ATOM     16  C   UNL     1      -5.150 -10.292  15.082  0.00  0.00    +0.052 A 
ATOM     18  C   UNL     1      -4.365 -10.296  13.947  0.00  0.00    +0.075 A 
ATOM     20  C   UNL     1      -2.538 -10.910  15.153  0.00  0.00    +0.127 A 
ATOM     25  C   UNL     1      -1.087 -11.251  15.192  0.00  0.00    +0.088 C 
BRANCH  18  21
ATOM     21  C   UNL     1      -4.919  -9.964  12.656  0.00  0.00    +0.001 A 
ATOM     26  C   UNL     1      -4.118 -10.035  11.515  0.00  0.00    +0.012 A 
ATOM     27  C   UNL     1      -6.253  -9.573  12.549  0.00  0.00    +0.012 A 
ATOM     28  C   UNL     1      -4.653  -9.714  10.268  0.00  0.00    +0.024 A 
ATOM     29  C   UNL     1      -6.787  -9.252  11.301  0.00  0.00    +0.024 A 
ATOM     30  C   UNL     1      -5.988  -9.323  10.161  0.00  0.00    +0.029 A 
BRANCH  30   6
ATOM      6  N   UNL     1      -6.528  -8.998   8.900  0.00  0.00    -0.336 N 
ATOM     31  C   UNL     1      -6.040  -9.652   7.701  0.00  0.00    +0.129 C 
ATOM     32  C   UNL     1      -7.572  -7.999   8.784  0.00  0.00    +0.129 C 
ENDBRANCH  30   6
ENDBRANCH  18  21
ENDBRANCH   8  15
BRANCH   9  14
ATOM     14  C   UNL     1      -8.950 -11.606  16.447  0.00  0.00    +0.123 C 
BRANCH  14   3
ATOM      1  O   UNL     1      -9.263  -9.263  14.855  0.00  0.00    -0.275 OA
ATOM      3  N   UNL     1      -9.939 -10.588  16.622  0.00  0.00    -0.313 N 
ATOM     17  C   UNL     1     -10.028  -9.467  15.798  0.00  0.00    +0.218 C 
ATOM     33  H   UNL     1     -10.600 -10.701  17.385  0.00  0.00    +0.149 HD
BRANCH  17  19
ATOM     19  C   UNL     1     -11.170  -8.492  16.157  0.00  0.00    +0.039 C 
ATOM     22  C   UNL     1     -11.872  -8.954  17.442  0.00  0.00    +0.020 C 
ATOM     23  C   UNL     1     -12.202  -8.474  15.014  0.00  0.00    +0.020 C 
ATOM     24  C   UNL     1     -10.614  -7.071  16.337  0.00  0.00    +0.020 C 
ENDBRANCH  17  19
ENDBRANCH  14   3
ENDBRANCH   9  14
TORSDOF 6
ENDMDL
MODEL 9
REMARK VINA RESULT:      -5.5      4.170      8.855
REMARK  Name = 26742476
REMARK  12 active torsions:
REMARK  status: ('A' for Active; 'I' for Inactive)
REMARK    1  A    between atoms: N_3  and  C_14
REMARK    2  A    between atoms: N_6  and  C_30
REMARK    3  A    between atoms: N_6  and  C_31
REMARK    4  A    between atoms: N_6  and  C_32
REMARK    5  A    between atoms: C_8  and  C_15
REMARK    6  A    between atoms: C_9  and  C_14
REMARK    7  A    between atoms: C_17  and  C_19
REMARK    8  A    between atoms: C_18  and  C_21
REMARK    9  A    between atoms: C_19  and  C_22
REMARK   10  A    between atoms: C_19  and  C_23
REMARK   11  A    between atoms: C_19  and  C_24
REMARK   12  A    between atoms: C_20  and  C_25
REMARK                            x       y       z     vdW  Elec       q    Type
REMARK                         _______ _______ _______ _____ _____    ______ ____
ROOT
ATOM      2  N   UNL     1      -5.436 -12.369  16.517  0.00  0.00    -0.297 NA
ATOM      7  C   UNL     1      -5.742 -10.729  18.518  0.00  0.00    +0.002 C 
ATOM      8  C   UNL     1      -7.065 -11.492  18.232  0.00  0.00    +0.055 C 
ATOM      9  C   UNL     1      -4.935 -11.018  16.148  0.00  0.00    +0.074 C 
ATOM     10  C   UNL     1      -5.295  -9.987  17.240  0.00  0.00    +0.024 C 
ATOM     11  C   UNL     1      -4.669 -11.797  18.821  0.00  0.00    +0.019 C 
ATOM     12  C   UNL     1      -6.864 -12.291  16.912  0.00  0.00    +0.094 C 
ATOM     13  C   UNL     1      -4.656 -12.838  17.687  0.00  0.00    +0.085 C 
ENDROOT
BRANCH   8  15
ATOM      4  N   UNL     1      -8.430  -9.635  17.410  0.00  0.00    -0.237 NA
ATOM      5  N   UNL     1     -10.671  -9.241  18.202  0.00  0.00    -0.232 NA
ATOM     15  C   UNL     1      -8.365 -10.701  18.235  0.00  0.00    +0.050 A 
ATOM     16  C   UNL     1      -9.398 -11.093  19.062  0.00  0.00    +0.052 A 
ATOM     18  C   UNL     1     -10.538 -10.318  19.003  0.00  0.00    +0.075 A 
ATOM     20  C   UNL     1      -9.594  -8.961  17.443  0.00  0.00    +0.127 A 
ATOM     25  C   UNL     1      -9.703  -7.775  16.545  0.00  0.00    +0.088 C 
BRANCH  18  21
ATOM     21  C   UNL     1     -11.690 -10.622  19.819  0.00  0.00    +0.001 A 
ATOM     26  C   UNL     1     -12.687  -9.662  20.002  0.00  0.00    +0.012 A 
ATOM     27  C   UNL     1     -11.806 -11.873  20.424  0.00  0.00    +0.012 A 
ATOM     28  C   UNL     1     -13.799  -9.955  20.791  0.00  0.00    +0.024 A 
ATOM     29  C   UNL     1     -12.919 -12.165  21.212  0.00  0.00    +0.024 A 
ATOM     30  C   UNL     1     -13.916 -11.207  21.394  0.00  0.00    +0.029 A 
BRANCH  30   6
ATOM      6  N   UNL     1     -15.040 -11.503  22.192  0.00  0.00    -0.336 N 
ATOM     31  C   UNL     1     -14.909 -12.348  23.362  0.00  0.00    +0.129 C 
ATOM     32  C   UNL     1     -16.345 -10.972  21.848  0.00  0.00    +0.129 C 
ENDBRANCH  30   6
ENDBRANCH  18  21
ENDBRANCH   8  15
BRANCH   9  14
ATOM     14  C   UNL     1      -5.416 -10.575  14.765  0.00  0.00    +0.123 C 
BRANCH  14   3
ATOM      1  O   UNL     1      -5.385  -9.495  12.128  0.00  0.00    -0.275 OA
ATOM      3  N   UNL     1      -4.394 -10.767  13.783  0.00  0.00    -0.313 N 
ATOM     17  C   UNL     1      -4.452 -10.203  12.509  0.00  0.00    +0.218 C 
ATOM     33  H   UNL     1      -3.597 -11.341  14.040  0.00  0.00    +0.149 HD
BRANCH  17  19
ATOM     19  C   UNL     1      -3.244 -10.531  11.604  0.00  0.00    +0.039 C 
ATOM     22  C   UNL     1      -3.186  -9.548  10.426  0.00  0.00    +0.020 C 
ATOM     23  C   UNL     1      -3.399 -11.958  11.046  0.00  0.00    +0.020 C 
ATOM     24  C   UNL     1      -1.942 -10.462  12.417  0.00  0.00    +0.020 C 
ENDBRANCH  17  19
ENDBRANCH  14   3
ENDBRANCH   9  14
TORSDOF 6
ENDMDL
MODEL 10
REMARK VINA RESULT:      -5.4      2.089      6.973
REMARK  Name = 26742476
REMARK  12 active torsions:
REMARK  status: ('A' for Active; 'I' for Inactive)
REMARK    1  A    between atoms: N_3  and  C_14
REMARK    2  A    between atoms: N_6  and  C_30
REMARK    3  A    between atoms: N_6  and  C_31
REMARK    4  A    between atoms: N_6  and  C_32
REMARK    5  A    between atoms: C_8  and  C_15
REMARK    6  A    between atoms: C_9  and  C_14
REMARK    7  A    between atoms: C_17  and  C_19
REMARK    8  A    between atoms: C_18  and  C_21
REMARK    9  A    between atoms: C_19  and  C_22
REMARK   10  A    between atoms: C_19  and  C_23
REMARK   11  A    between atoms: C_19  and  C_24
REMARK   12  A    between atoms: C_20  and  C_25
REMARK                            x       y       z     vdW  Elec       q    Type
REMARK                         _______ _______ _______ _____ _____    ______ ____
ROOT
ATOM      2  N   UNL     1      -5.169 -11.372   9.954  0.00  0.00    -0.297 NA
ATOM      7  C   UNL     1      -4.431  -9.183  11.156  0.00  0.00    +0.002 C 
ATOM      8  C   UNL     1      -3.641 -10.401  11.710  0.00  0.00    +0.055 C 
ATOM      9  C   UNL     1      -6.364 -10.626  10.430  0.00  0.00    +0.074 C 
ATOM     10  C   UNL     1      -5.944  -9.437  11.322  0.00  0.00    +0.024 C 
ATOM     11  C   UNL     1      -4.144  -9.120   9.640  0.00  0.00    +0.019 C 
ATOM     12  C   UNL     1      -4.275 -11.682  11.096  0.00  0.00    +0.094 C 
ATOM     13  C   UNL     1      -4.432 -10.495   9.013  0.00  0.00    +0.085 C 
ENDROOT
BRANCH   8  15
ATOM      4  N   UNL     1      -2.207 -10.347  13.692  0.00  0.00    -0.237 NA
ATOM      5  N   UNL     1      -3.071 -10.706  15.912  0.00  0.00    -0.232 NA
ATOM     15  C   UNL     1      -3.459 -10.512  13.218  0.00  0.00    +0.050 A 
ATOM     16  C   UNL     1      -4.553 -10.774  14.017  0.00  0.00    +0.052 A 
ATOM     18  C   UNL     1      -4.297 -10.861  15.371  0.00  0.00    +0.075 A 
ATOM     20  C   UNL     1      -2.086 -10.455  15.028  0.00  0.00    +0.127 A 
ATOM     25  C   UNL     1      -0.716 -10.280  15.590  0.00  0.00    +0.088 C 
BRANCH  18  21
ATOM     21  C   UNL     1      -5.355 -11.131  16.314  0.00  0.00    +0.001 A 
ATOM     26  C   UNL     1      -5.571 -10.265  17.387  0.00  0.00    +0.012 A 
ATOM     27  C   UNL     1      -6.162 -12.257  16.154  0.00  0.00    +0.012 A 
ATOM     28  C   UNL     1      -6.593 -10.526  18.299  0.00  0.00    +0.024 A 
ATOM     29  C   UNL     1      -7.184 -12.517  17.066  0.00  0.00    +0.024 A 
ATOM     30  C   UNL     1      -7.400 -11.652  18.138  0.00  0.00    +0.029 A 
BRANCH  30   6
ATOM      6  N   UNL     1      -8.434 -11.916  19.060  0.00  0.00    -0.336 N 
ATOM     31  C   UNL     1      -8.260 -12.922  20.090  0.00  0.00    +0.129 C 
ATOM     32  C   UNL     1      -9.687 -11.192  18.987  0.00  0.00    +0.129 C 
ENDBRANCH  30   6
ENDBRANCH  18  21
ENDBRANCH   8  15
BRANCH   9  14
ATOM     14  C   UNL     1      -7.377 -11.534  11.131  0.00  0.00    +0.123 C 
BRANCH  14   3
ATOM      1  O   UNL     1      -8.454 -12.593  13.548  0.00  0.00    -0.275 OA
ATOM      3  N   UNL     1      -8.114 -10.809  12.120  0.00  0.00    -0.313 N 
ATOM     17  C   UNL     1      -8.610 -11.402  13.281  0.00  0.00    +0.218 C 
ATOM     33  H   UNL     1      -8.275  -9.820  11.955  0.00  0.00    +0.149 HD
BRANCH  17  19
ATOM     19  C   UNL     1      -9.374 -10.441  14.218  0.00  0.00    +0.039 C 
ATOM     22  C   UNL     1     -10.316  -9.546  13.400  0.00  0.00    +0.020 C 
ATOM     23  C   UNL     1      -8.366  -9.544  14.960  0.00  0.00    +0.020 C 
ATOM     24  C   UNL     1     -10.173 -11.243  15.257  0.00  0.00    +0.020 C 
ENDBRANCH  17  19
ENDBRANCH  14   3
ENDBRANCH   9  14
TORSDOF 6
ENDMDL
