REMARK  Name = 26744664
REMARK  10 active torsions:
REMARK  status: ('A' for Active; 'I' for Inactive)
REMARK    1  A    between atoms: O_2  and  C_8
REMARK    2  A    between atoms: O_3  and  C_10
REMARK    3  A    between atoms: O_5  and  C_21
REMARK    4  A    between atoms: O_5  and  C_22
REMARK    5  A    between atoms: N_6  and  C_13
REMARK    6  A    between atoms: N_7  and  C_15
REMARK    7  A    between atoms: C_9  and  C_12
REMARK    8  A    between atoms: C_11  and  C_13
REMARK    9  A    between atoms: C_12  and  C_14
REMARK   10  A    between atoms: C_15  and  C_16
REMARK                            x       y       z     vdW  Elec       q    Type
REMARK                         _______ _______ _______ _____ _____    ______ ____
ROOT
ATOM     12  C   UNL     1       1.408  -0.508   0.727  0.00  0.00    +0.130 C 
ENDROOT
BRANCH  12   9
ATOM      1  O   UNL     1       3.293  -0.554  -0.786  0.00  0.00    -0.366 OA
ATOM      8  C   UNL     1       3.409   1.038   0.949  0.00  0.00    +0.175 C 
ATOM      9  C   UNL     1       2.463   0.313   0.007  0.00  0.00    +0.158 C 
ATOM     10  C   UNL     1       4.633   1.213   0.075  0.00  0.00    +0.175 C 
ATOM     11  C   UNL     1       4.664  -0.103  -0.695  0.00  0.00    +0.163 C 
BRANCH   8   2
ATOM      2  O   UNL     1       2.869   2.260   1.405  0.00  0.00    -0.387 OA
ATOM     23  H   UNL     1       3.566   2.719   1.904  0.00  0.00    +0.210 HD
ENDBRANCH   8   2
BRANCH  10   3
ATOM      3  O   UNL     1       4.426   2.269  -0.862  0.00  0.00    -0.387 OA
ATOM     24  H   UNL     1       5.221   2.321  -1.421  0.00  0.00    +0.210 HD
ENDBRANCH  10   3
BRANCH  11  13
ATOM     13  C   UNL     1       5.465  -1.189   0.012  0.00  0.00    +0.112 C 
BRANCH  13   6
ATOM      6  N   UNL     1       6.844  -0.769   0.221  0.00  0.00    -0.328 NA
ATOM     25  H   UNL     1       7.283  -0.571  -0.677  0.00  0.00    +0.118 HD
ATOM     26  H   UNL     1       7.372  -1.537   0.634  0.00  0.00    +0.118 HD
ENDBRANCH  13   6
ENDBRANCH  11  13
ENDBRANCH  12   9
BRANCH  12  14
ATOM      4  O   UNL     1       0.187  -0.570  -1.361  0.00  0.00    -0.276 OA
ATOM      7  N   UNL     1      -0.676  -1.681   0.489  0.00  0.00    -0.311 N 
ATOM     14  C   UNL     1       0.259  -0.906  -0.182  0.00  0.00    +0.216 C 
ATOM     27  H   UNL     1      -0.532  -1.889   1.473  0.00  0.00    +0.149 HD
BRANCH   7  15
ATOM     15  C   UNL     1      -1.871  -2.194  -0.138  0.00  0.00    +0.139 C 
BRANCH  15  16
ATOM     16  C   UNL     1      -3.026  -1.242  -0.012  0.00  0.00    -0.030 A 
ATOM     17  C   UNL     1      -3.695  -1.114   1.205  0.00  0.00    +0.009 A 
ATOM     18  C   UNL     1      -3.428  -0.485  -1.112  0.00  0.00    +0.009 A 
ATOM     19  C   UNL     1      -4.767  -0.229   1.322  0.00  0.00    +0.046 A 
ATOM     20  C   UNL     1      -4.500   0.400  -0.995  0.00  0.00    +0.046 A 
ATOM     21  C   UNL     1      -5.169   0.527   0.222  0.00  0.00    +0.120 A 
BRANCH  21   5
ATOM      5  O   UNL     1      -6.215   1.391   0.336  0.00  0.00    -0.495 OA
ATOM     22  C   UNL     1      -6.574   2.134  -0.828  0.00  0.00    +0.277 C 
ENDBRANCH  21   5
ENDBRANCH  15  16
ENDBRANCH   7  15
ENDBRANCH  12  14
TORSDOF 9
