MODEL 1
REMARK VINA RESULT:      -7.3      0.000      0.000
REMARK  Name = 45361006
REMARK  7 active torsions:
REMARK  status: ('A' for Active; 'I' for Inactive)
REMARK    1  A    between atoms: N_3  and  C_10
REMARK    2  A    between atoms: N_4  and  C_22
REMARK    3  A    between atoms: N_6  and  C_25
REMARK    4  A    between atoms: C_15  and  C_21
REMARK    5  A    between atoms: C_21  and  C_23
REMARK    6  A    between atoms: C_23  and  C_24
REMARK    7  A    between atoms: C_25  and  C_26
REMARK                            x       y       z     vdW  Elec       q    Type
REMARK                         _______ _______ _______ _____ _____    ______ ____
ROOT
ATOM      1  O   UNL     1      -8.668 -11.229  15.575  0.00  0.00    -0.274 OA
ATOM      3  N   UNL     1      -9.150 -10.525  18.137  0.00  0.00    -0.287 NA
ATOM      4  N   UNL     1      -5.597 -11.372  17.927  0.00  0.00    -0.296 NA
ATOM      5  N   UNL     1      -6.610 -10.234  15.476  0.00  0.00    -0.312 N 
ATOM      8  C   UNL     1      -6.760 -10.680  18.526  0.00  0.00    +0.084 C 
ATOM      9  C   UNL     1      -7.853 -10.108  17.575  0.00  0.00    +0.161 C 
ATOM     11  C   UNL     1      -7.591 -11.563  19.475  0.00  0.00    +0.036 C 
ATOM     12  C   UNL     1      -8.925 -10.851  19.541  0.00  0.00    +0.087 C 
ATOM     15  C   UNL     1      -4.736 -10.504  17.074  0.00  0.00    +0.074 C 
ATOM     16  C   UNL     1      -7.772 -10.596  16.131  0.00  0.00    +0.232 C 
ATOM     19  C   UNL     1      -5.502  -9.561  16.126  0.00  0.00    +0.123 C 
ATOM     22  C   UNL     1      -4.787 -12.029  18.966  0.00  0.00    +0.105 C 
ATOM     31  H   UNL     1      -6.503 -10.508  14.504  0.00  0.00    +0.149 HD
ENDROOT
BRANCH   3  10
ATOM     10  C   UNL     1     -10.204  -9.527  17.966  0.00  0.00    +0.057 C 
ATOM     13  C   UNL     1      -9.643  -8.297  17.242  0.00  0.00    +0.019 C 
ATOM     14  C   UNL     1     -11.378 -10.135  17.193  0.00  0.00    +0.019 C 
ATOM     17  C   UNL     1     -10.735  -7.261  16.977  0.00  0.00    +0.002 C 
ATOM     18  C   UNL     1     -12.468  -9.098  16.928  0.00  0.00    +0.002 C 
ATOM     20  C   UNL     1     -11.913  -7.866  16.218  0.00  0.00    +0.000 C 
ENDBRANCH   3  10
BRANCH  15  21
ATOM     21  C   UNL     1      -3.792 -11.365  16.209  0.00  0.00    +0.029 C 
BRANCH  21  23
ATOM     23  C   UNL     1      -2.382 -10.807  16.236  0.00  0.00    +0.097 C 
BRANCH  23  24
ATOM      2  O   UNL     1      -1.063  -9.592  14.609  0.00  0.00    -0.276 OA
ATOM      6  N   UNL     1      -2.460 -11.298  13.883  0.00  0.00    -0.311 N 
ATOM     24  C   UNL     1      -1.881 -10.479  14.841  0.00  0.00    +0.213 C 
ATOM     32  H   UNL     1      -3.143 -11.996  14.166  0.00  0.00    +0.149 HD
BRANCH   6  25
ATOM     25  C   UNL     1      -2.148 -11.182  12.478  0.00  0.00    +0.141 C 
BRANCH  25  26
ATOM      7  N   UNL     1      -5.372  -9.406  11.613  0.00  0.00    -0.263 NA
ATOM     26  C   UNL     1      -3.137 -10.317  11.752  0.00  0.00    -0.012 A 
ATOM     27  C   UNL     1      -2.781  -9.643  10.589  0.00  0.00    +0.008 A 
ATOM     28  C   UNL     1      -4.433 -10.167  12.218  0.00  0.00    +0.115 A 
ATOM     29  C   UNL     1      -3.720  -8.851   9.937  0.00  0.00    +0.020 A 
ATOM     30  C   UNL     1      -4.990  -8.766  10.484  0.00  0.00    +0.111 A 
ENDBRANCH  25  26
ENDBRANCH   6  25
ENDBRANCH  23  24
ENDBRANCH  21  23
ENDBRANCH  15  21
TORSDOF 6
ENDMDL
MODEL 2
REMARK VINA RESULT:      -7.2      1.862      7.475
REMARK  Name = 45361006
REMARK  7 active torsions:
REMARK  status: ('A' for Active; 'I' for Inactive)
REMARK    1  A    between atoms: N_3  and  C_10
REMARK    2  A    between atoms: N_4  and  C_22
REMARK    3  A    between atoms: N_6  and  C_25
REMARK    4  A    between atoms: C_15  and  C_21
REMARK    5  A    between atoms: C_21  and  C_23
REMARK    6  A    between atoms: C_23  and  C_24
REMARK    7  A    between atoms: C_25  and  C_26
REMARK                            x       y       z     vdW  Elec       q    Type
REMARK                         _______ _______ _______ _____ _____    ______ ____
ROOT
ATOM      1  O   UNL     1      -2.341 -10.629  14.955  0.00  0.00    -0.274 OA
ATOM      3  N   UNL     1      -4.186 -11.261  13.086  0.00  0.00    -0.287 NA
ATOM      4  N   UNL     1      -5.429 -12.555  16.275  0.00  0.00    -0.296 NA
ATOM      5  N   UNL     1      -3.867 -10.149  16.590  0.00  0.00    -0.312 N 
ATOM      8  C   UNL     1      -5.599 -12.056  14.892  0.00  0.00    +0.084 C 
ATOM      9  C   UNL     1      -4.700 -10.877  14.414  0.00  0.00    +0.161 C 
ATOM     11  C   UNL     1      -5.337 -13.119  13.809  0.00  0.00    +0.036 C 
ATOM     12  C   UNL     1      -5.071 -12.297  12.566  0.00  0.00    +0.087 C 
ATOM     15  C   UNL     1      -5.762 -11.560  17.334  0.00  0.00    +0.074 C 
ATOM     16  C   UNL     1      -3.513 -10.560  15.319  0.00  0.00    +0.232 C 
ATOM     19  C   UNL     1      -5.233 -10.136  17.076  0.00  0.00    +0.123 C 
ATOM     22  C   UNL     1      -6.194 -13.795  16.482  0.00  0.00    +0.105 C 
ATOM     31  H   UNL     1      -3.124  -9.900  17.237  0.00  0.00    +0.149 HD
ENDROOT
BRANCH   3  10
ATOM     10  C   UNL     1      -4.059 -10.133  12.166  0.00  0.00    +0.057 C 
ATOM     13  C   UNL     1      -2.843 -10.338  11.254  0.00  0.00    +0.019 C 
ATOM     14  C   UNL     1      -5.345  -9.980  11.347  0.00  0.00    +0.019 C 
ATOM     17  C   UNL     1      -2.723  -9.214  10.226  0.00  0.00    +0.002 C 
ATOM     18  C   UNL     1      -5.221  -8.857  10.319  0.00  0.00    +0.002 C 
ATOM     20  C   UNL     1      -4.006  -9.051   9.416  0.00  0.00    +0.000 C 
ENDBRANCH   3  10
BRANCH  15  21
ATOM     21  C   UNL     1      -5.211 -12.020  18.699  0.00  0.00    +0.029 C 
BRANCH  21  23
ATOM     23  C   UNL     1      -6.050 -11.460  19.833  0.00  0.00    +0.097 C 
BRANCH  23  24
ATOM      2  O   UNL     1      -7.963 -12.938  19.697  0.00  0.00    -0.276 OA
ATOM      6  N   UNL     1      -8.282 -10.651  19.449  0.00  0.00    -0.311 N 
ATOM     24  C   UNL     1      -7.521 -11.792  19.657  0.00  0.00    +0.213 C 
ATOM     32  H   UNL     1      -7.826  -9.744  19.413  0.00  0.00    +0.149 HD
BRANCH   6  25
ATOM     25  C   UNL     1      -9.711 -10.703  19.252  0.00  0.00    +0.141 C 
BRANCH  25  26
ATOM      7  N   UNL     1     -12.024  -8.507  17.221  0.00  0.00    -0.263 NA
ATOM     26  C   UNL     1     -10.182  -9.665  18.275  0.00  0.00    -0.012 A 
ATOM     27  C   UNL     1      -9.276  -8.917  17.532  0.00  0.00    +0.008 A 
ATOM     28  C   UNL     1     -11.533  -9.424  18.084  0.00  0.00    +0.115 A 
ATOM     29  C   UNL     1      -9.742  -7.964  16.632  0.00  0.00    +0.020 A 
ATOM     30  C   UNL     1     -11.112  -7.799  16.515  0.00  0.00    +0.111 A 
ENDBRANCH  25  26
ENDBRANCH   6  25
ENDBRANCH  23  24
ENDBRANCH  21  23
ENDBRANCH  15  21
TORSDOF 6
ENDMDL
MODEL 3
REMARK VINA RESULT:      -7.2      1.125      1.651
REMARK  Name = 45361006
REMARK  7 active torsions:
REMARK  status: ('A' for Active; 'I' for Inactive)
REMARK    1  A    between atoms: N_3  and  C_10
REMARK    2  A    between atoms: N_4  and  C_22
REMARK    3  A    between atoms: N_6  and  C_25
REMARK    4  A    between atoms: C_15  and  C_21
REMARK    5  A    between atoms: C_21  and  C_23
REMARK    6  A    between atoms: C_23  and  C_24
REMARK    7  A    between atoms: C_25  and  C_26
REMARK                            x       y       z     vdW  Elec       q    Type
REMARK                         _______ _______ _______ _____ _____    ______ ____
ROOT
ATOM      1  O   UNL     1      -8.710 -11.039  14.614  0.00  0.00    -0.274 OA
ATOM      3  N   UNL     1      -9.848  -9.727  16.683  0.00  0.00    -0.287 NA
ATOM      4  N   UNL     1      -6.587 -10.908  17.849  0.00  0.00    -0.296 NA
ATOM      5  N   UNL     1      -6.593 -10.278  15.033  0.00  0.00    -0.312 N 
ATOM      8  C   UNL     1      -7.753  -9.998  17.878  0.00  0.00    +0.084 C 
ATOM      9  C   UNL     1      -8.391  -9.566  16.525  0.00  0.00    +0.161 C 
ATOM     11  C   UNL     1      -8.967 -10.563  18.638  0.00  0.00    +0.036 C 
ATOM     12  C   UNL     1     -10.125  -9.741  18.115  0.00  0.00    +0.087 C 
ATOM     15  C   UNL     1      -5.377 -10.338  17.190  0.00  0.00    +0.074 C 
ATOM     16  C   UNL     1      -7.944 -10.377  15.311  0.00  0.00    +0.232 C 
ATOM     19  C   UNL     1      -5.651  -9.573  15.880  0.00  0.00    +0.123 C 
ATOM     22  C   UNL     1      -6.255 -11.378  19.204  0.00  0.00    +0.105 C 
ATOM     31  H   UNL     1      -6.234 -10.775  14.224  0.00  0.00    +0.149 HD
ENDROOT
BRANCH   3  10
ATOM     10  C   UNL     1     -10.624  -8.706  15.982  0.00  0.00    +0.057 C 
ATOM     13  C   UNL     1     -12.091  -8.773  16.422  0.00  0.00    +0.019 C 
ATOM     14  C   UNL     1     -10.028  -7.321  16.253  0.00  0.00    +0.019 C 
ATOM     17  C   UNL     1     -12.919  -7.669  15.766  0.00  0.00    +0.002 C 
ATOM     18  C   UNL     1     -10.858  -6.219  15.598  0.00  0.00    +0.002 C 
ATOM     20  C   UNL     1     -12.322  -6.288  16.024  0.00  0.00    +0.000 C 
ENDBRANCH   3  10
BRANCH  15  21
ATOM     21  C   UNL     1      -4.360 -11.453  16.872  0.00  0.00    +0.029 C 
BRANCH  21  23
ATOM     23  C   UNL     1      -3.046 -10.862  16.398  0.00  0.00    +0.097 C 
BRANCH  23  24
ATOM      2  O   UNL     1      -2.581 -12.576  14.752  0.00  0.00    -0.276 OA
ATOM      6  N   UNL     1      -2.416 -10.344  14.135  0.00  0.00    -0.311 N 
ATOM     24  C   UNL     1      -2.661 -11.380  15.023  0.00  0.00    +0.213 C 
ATOM     32  H   UNL     1      -2.489  -9.382  14.454  0.00  0.00    +0.149 HD
BRANCH   6  25
ATOM     25  C   UNL     1      -2.030 -10.578  12.764  0.00  0.00    +0.141 C 
BRANCH  25  26
ATOM      7  N   UNL     1      -5.421  -9.852  11.256  0.00  0.00    -0.263 NA
ATOM     26  C   UNL     1      -3.079 -10.110  11.797  0.00  0.00    -0.012 A 
ATOM     27  C   UNL     1      -2.726  -9.523  10.587  0.00  0.00    +0.008 A 
ATOM     28  C   UNL     1      -4.427 -10.250  12.081  0.00  0.00    +0.115 A 
ATOM     29  C   UNL     1      -3.720  -9.101   9.710  0.00  0.00    +0.020 A 
ATOM     30  C   UNL     1      -5.040  -9.286  10.088  0.00  0.00    +0.111 A 
ENDBRANCH  25  26
ENDBRANCH   6  25
ENDBRANCH  23  24
ENDBRANCH  21  23
ENDBRANCH  15  21
TORSDOF 6
ENDMDL
MODEL 4
REMARK VINA RESULT:      -7.1      2.129      7.737
REMARK  Name = 45361006
REMARK  7 active torsions:
REMARK  status: ('A' for Active; 'I' for Inactive)
REMARK    1  A    between atoms: N_3  and  C_10
REMARK    2  A    between atoms: N_4  and  C_22
REMARK    3  A    between atoms: N_6  and  C_25
REMARK    4  A    between atoms: C_15  and  C_21
REMARK    5  A    between atoms: C_21  and  C_23
REMARK    6  A    between atoms: C_23  and  C_24
REMARK    7  A    between atoms: C_25  and  C_26
REMARK                            x       y       z     vdW  Elec       q    Type
REMARK                         _______ _______ _______ _____ _____    ______ ____
ROOT
ATOM      1  O   UNL     1      -5.862  -9.384  13.216  0.00  0.00    -0.274 OA
ATOM      3  N   UNL     1      -3.739 -10.472  11.951  0.00  0.00    -0.287 NA
ATOM      4  N   UNL     1      -3.097 -10.778  15.540  0.00  0.00    -0.296 NA
ATOM      5  N   UNL     1      -5.907 -10.931  14.902  0.00  0.00    -0.312 N 
ATOM      8  C   UNL     1      -2.931 -11.182  14.127  0.00  0.00    +0.084 C 
ATOM      9  C   UNL     1      -4.176 -11.138  13.192  0.00  0.00    +0.161 C 
ATOM     11  C   UNL     1      -1.915 -10.326  13.348  0.00  0.00    +0.036 C 
ATOM     12  C   UNL     1      -2.285 -10.571  11.900  0.00  0.00    +0.087 C 
ATOM     15  C   UNL     1      -4.014 -11.650  16.328  0.00  0.00    +0.074 C 
ATOM     16  C   UNL     1      -5.377 -10.380  13.750  0.00  0.00    +0.232 C 
ATOM     19  C   UNL     1      -5.311 -12.053  15.599  0.00  0.00    +0.123 C 
ATOM     22  C   UNL     1      -1.791 -10.672  16.212  0.00  0.00    +0.105 C 
ATOM     31  H   UNL     1      -6.723 -10.487  15.313  0.00  0.00    +0.149 HD
ENDROOT
BRANCH   3  10
ATOM     10  C   UNL     1      -4.370 -11.015  10.749  0.00  0.00    +0.057 C 
ATOM     13  C   UNL     1      -4.250 -10.009   9.598  0.00  0.00    +0.019 C 
ATOM     14  C   UNL     1      -3.724 -12.355  10.382  0.00  0.00    +0.019 C 
ATOM     17  C   UNL     1      -4.832 -10.574   8.303  0.00  0.00    +0.002 C 
ATOM     18  C   UNL     1      -4.306 -12.917   9.086  0.00  0.00    +0.002 C 
ATOM     20  C   UNL     1      -4.200 -11.915   7.939  0.00  0.00    +0.000 C 
ENDBRANCH   3  10
BRANCH  15  21
ATOM     21  C   UNL     1      -4.417 -10.959  17.646  0.00  0.00    +0.029 C 
BRANCH  21  23
ATOM     23  C   UNL     1      -4.726 -11.987  18.718  0.00  0.00    +0.097 C 
BRANCH  23  24
ATOM      2  O   UNL     1      -5.958 -11.369  20.709  0.00  0.00    -0.276 OA
ATOM      6  N   UNL     1      -7.100 -11.606  18.702  0.00  0.00    -0.311 N 
ATOM     24  C   UNL     1      -5.971 -11.619  19.506  0.00  0.00    +0.213 C 
ATOM     32  H   UNL     1      -7.018 -11.845  17.718  0.00  0.00    +0.149 HD
BRANCH   6  25
ATOM     25  C   UNL     1      -8.411 -11.287  19.218  0.00  0.00    +0.141 C 
BRANCH  25  26
ATOM      7  N   UNL     1      -8.932  -8.506  16.711  0.00  0.00    -0.263 NA
ATOM     26  C   UNL     1      -9.085 -10.213  18.415  0.00  0.00    -0.012 A 
ATOM     27  C   UNL     1     -10.431  -9.918  18.601  0.00  0.00    +0.008 A 
ATOM     28  C   UNL     1      -8.387  -9.485  17.466  0.00  0.00    +0.115 A 
ATOM     29  C   UNL     1     -11.029  -8.916  17.843  0.00  0.00    +0.020 A 
ATOM     30  C   UNL     1     -10.243  -8.246  16.920  0.00  0.00    +0.111 A 
ENDBRANCH  25  26
ENDBRANCH   6  25
ENDBRANCH  23  24
ENDBRANCH  21  23
ENDBRANCH  15  21
TORSDOF 6
ENDMDL
MODEL 5
REMARK VINA RESULT:      -7.0     18.641     20.917
REMARK  Name = 45361006
REMARK  7 active torsions:
REMARK  status: ('A' for Active; 'I' for Inactive)
REMARK    1  A    between atoms: N_3  and  C_10
REMARK    2  A    between atoms: N_4  and  C_22
REMARK    3  A    between atoms: N_6  and  C_25
REMARK    4  A    between atoms: C_15  and  C_21
REMARK    5  A    between atoms: C_21  and  C_23
REMARK    6  A    between atoms: C_23  and  C_24
REMARK    7  A    between atoms: C_25  and  C_26
REMARK                            x       y       z     vdW  Elec       q    Type
REMARK                         _______ _______ _______ _____ _____    ______ ____
ROOT
ATOM      1  O   UNL     1     -12.700   4.799  22.203  0.00  0.00    -0.274 OA
ATOM      3  N   UNL     1     -13.967   6.875  21.030  0.00  0.00    -0.287 NA
ATOM      4  N   UNL     1     -16.550   4.465  21.981  0.00  0.00    -0.296 NA
ATOM      5  N   UNL     1     -14.307   4.455  23.795  0.00  0.00    -0.312 N 
ATOM      8  C   UNL     1     -16.062   5.824  21.658  0.00  0.00    +0.084 C 
ATOM      9  C   UNL     1     -14.655   6.248  22.173  0.00  0.00    +0.161 C 
ATOM     11  C   UNL     1     -15.949   6.105  20.149  0.00  0.00    +0.036 C 
ATOM     12  C   UNL     1     -14.996   7.279  20.079  0.00  0.00    +0.087 C 
ATOM     15  C   UNL     1     -16.745   4.209  23.436  0.00  0.00    +0.074 C 
ATOM     16  C   UNL     1     -13.785   5.105  22.692  0.00  0.00    +0.232 C 
ATOM     19  C   UNL     1     -15.619   4.738  24.344  0.00  0.00    +0.123 C 
ATOM     22  C   UNL     1     -17.787   4.163  21.240  0.00  0.00    +0.105 C 
ATOM     31  H   UNL     1     -13.767   3.699  24.205  0.00  0.00    +0.149 HD
ENDROOT
BRANCH   3  10
ATOM     10  C   UNL     1     -13.104   7.991  21.414  0.00  0.00    +0.057 C 
ATOM     13  C   UNL     1     -12.518   8.652  20.161  0.00  0.00    +0.019 C 
ATOM     14  C   UNL     1     -13.897   8.999  22.251  0.00  0.00    +0.019 C 
ATOM     17  C   UNL     1     -11.670   9.871  20.520  0.00  0.00    +0.002 C 
ATOM     18  C   UNL     1     -13.048  10.218  22.608  0.00  0.00    +0.002 C 
ATOM     20  C   UNL     1     -12.453  10.873  21.364  0.00  0.00    +0.000 C 
ENDBRANCH   3  10
BRANCH  15  21
ATOM     21  C   UNL     1     -16.886   2.696  23.704  0.00  0.00    +0.029 C 
BRANCH  21  23
ATOM     23  C   UNL     1     -17.772   2.445  24.909  0.00  0.00    +0.097 C 
BRANCH  23  24
ATOM      2  O   UNL     1     -16.647   0.356  25.391  0.00  0.00    -0.276 OA
ATOM      6  N   UNL     1     -17.374   1.680  27.154  0.00  0.00    -0.311 N 
ATOM     24  C   UNL     1     -17.197   1.370  25.814  0.00  0.00    +0.213 C 
ATOM     32  H   UNL     1     -17.858   2.535  27.411  0.00  0.00    +0.149 HD
BRANCH   6  25
ATOM     25  C   UNL     1     -16.915   0.813  28.213  0.00  0.00    +0.141 C 
BRANCH  25  26
ATOM      7  N   UNL     1     -13.803   1.139  30.337  0.00  0.00    -0.263 NA
ATOM     26  C   UNL     1     -15.797   1.432  29.001  0.00  0.00    -0.012 A 
ATOM     27  C   UNL     1     -15.699   2.811  29.143  0.00  0.00    +0.008 A 
ATOM     28  C   UNL     1     -14.833   0.647  29.613  0.00  0.00    +0.115 A 
ATOM     29  C   UNL     1     -14.653   3.356  29.881  0.00  0.00    +0.020 A 
ATOM     30  C   UNL     1     -13.741   2.485  30.453  0.00  0.00    +0.111 A 
ENDBRANCH  25  26
ENDBRANCH   6  25
ENDBRANCH  23  24
ENDBRANCH  21  23
ENDBRANCH  15  21
TORSDOF 6
ENDMDL
MODEL 6
REMARK VINA RESULT:      -6.8     25.541     30.041
REMARK  Name = 45361006
REMARK  7 active torsions:
REMARK  status: ('A' for Active; 'I' for Inactive)
REMARK    1  A    between atoms: N_3  and  C_10
REMARK    2  A    between atoms: N_4  and  C_22
REMARK    3  A    between atoms: N_6  and  C_25
REMARK    4  A    between atoms: C_15  and  C_21
REMARK    5  A    between atoms: C_21  and  C_23
REMARK    6  A    between atoms: C_23  and  C_24
REMARK    7  A    between atoms: C_25  and  C_26
REMARK                            x       y       z     vdW  Elec       q    Type
REMARK                         _______ _______ _______ _____ _____    ______ ____
ROOT
ATOM      1  O   UNL     1      15.717   7.144   3.949  0.00  0.00    -0.274 OA
ATOM      3  N   UNL     1      17.172   8.936   5.351  0.00  0.00    -0.287 NA
ATOM      4  N   UNL     1      13.660   9.556   6.170  0.00  0.00    -0.296 NA
ATOM      5  N   UNL     1      14.192   6.775   5.614  0.00  0.00    -0.312 N 
ATOM      8  C   UNL     1      15.112   9.599   6.451  0.00  0.00    +0.084 C 
ATOM      9  C   UNL     1      15.985   8.380   6.027  0.00  0.00    +0.161 C 
ATOM     11  C   UNL     1      15.845  10.770   5.771  0.00  0.00    +0.036 C 
ATOM     12  C   UNL     1      17.293  10.327   5.771  0.00  0.00    +0.087 C 
ATOM     15  C   UNL     1      12.924   8.478   6.890  0.00  0.00    +0.074 C 
ATOM     16  C   UNL     1      15.305   7.396   5.079  0.00  0.00    +0.232 C 
ATOM     19  C   UNL     1      13.634   7.110   6.909  0.00  0.00    +0.123 C 
ATOM     22  C   UNL     1      13.037  10.863   6.436  0.00  0.00    +0.105 C 
ATOM     31  H   UNL     1      13.705   6.091   5.042  0.00  0.00    +0.149 HD
ENDROOT
BRANCH   3  10
ATOM     10  C   UNL     1      18.393   8.176   5.607  0.00  0.00    +0.057 C 
ATOM     13  C   UNL     1      19.150   7.949   4.293  0.00  0.00    +0.019 C 
ATOM     14  C   UNL     1      19.265   8.916   6.626  0.00  0.00    +0.019 C 
ATOM     17  C   UNL     1      20.473   7.222   4.531  0.00  0.00    +0.002 C 
ATOM     18  C   UNL     1      20.587   8.189   6.862  0.00  0.00    +0.002 C 
ATOM     20  C   UNL     1      21.339   7.950   5.555  0.00  0.00    +0.000 C 
ENDBRANCH   3  10
BRANCH  15  21
ATOM     21  C   UNL     1      11.528   8.269   6.268  0.00  0.00    +0.029 C 
BRANCH  21  23
ATOM     23  C   UNL     1      10.777   7.168   6.994  0.00  0.00    +0.097 C 
BRANCH  23  24
ATOM      2  O   UNL     1       8.971   5.755   6.217  0.00  0.00    -0.276 OA
ATOM      6  N   UNL     1      10.879   5.968   4.912  0.00  0.00    -0.311 N 
ATOM     24  C   UNL     1      10.090   6.224   6.023  0.00  0.00    +0.213 C 
ATOM     32  H   UNL     1      11.802   6.388   4.845  0.00  0.00    +0.149 HD
BRANCH   6  25
ATOM     25  C   UNL     1      10.448   5.097   3.844  0.00  0.00    +0.141 C 
BRANCH  25  26
ATOM      7  N   UNL     1      12.672   3.192   1.453  0.00  0.00    -0.263 NA
ATOM     26  C   UNL     1      11.560   4.792   2.883  0.00  0.00    -0.012 A 
ATOM     27  C   UNL     1      12.490   5.765   2.532  0.00  0.00    +0.008 A 
ATOM     28  C   UNL     1      11.695   3.533   2.322  0.00  0.00    +0.115 A 
ATOM     29  C   UNL     1      13.511   5.452   1.641  0.00  0.00    +0.020 A 
ATOM     30  C   UNL     1      13.558   4.164   1.134  0.00  0.00    +0.111 A 
ENDBRANCH  25  26
ENDBRANCH   6  25
ENDBRANCH  23  24
ENDBRANCH  21  23
ENDBRANCH  15  21
TORSDOF 6
ENDMDL
MODEL 7
REMARK VINA RESULT:      -6.8      3.445      6.462
REMARK  Name = 45361006
REMARK  7 active torsions:
REMARK  status: ('A' for Active; 'I' for Inactive)
REMARK    1  A    between atoms: N_3  and  C_10
REMARK    2  A    between atoms: N_4  and  C_22
REMARK    3  A    between atoms: N_6  and  C_25
REMARK    4  A    between atoms: C_15  and  C_21
REMARK    5  A    between atoms: C_21  and  C_23
REMARK    6  A    between atoms: C_23  and  C_24
REMARK    7  A    between atoms: C_25  and  C_26
REMARK                            x       y       z     vdW  Elec       q    Type
REMARK                         _______ _______ _______ _____ _____    ______ ____
ROOT
ATOM      1  O   UNL     1      -5.119 -13.331  14.028  0.00  0.00    -0.274 OA
ATOM      3  N   UNL     1      -3.901 -11.705  15.808  0.00  0.00    -0.287 NA
ATOM      4  N   UNL     1      -2.919 -10.549  12.478  0.00  0.00    -0.296 NA
ATOM      5  N   UNL     1      -5.576 -11.673  12.520  0.00  0.00    -0.312 N 
ATOM      8  C   UNL     1      -3.162 -10.363  13.925  0.00  0.00    +0.084 C 
ATOM      9  C   UNL     1      -4.390 -11.074  14.568  0.00  0.00    +0.161 C 
ATOM     11  C   UNL     1      -2.007 -10.847  14.820  0.00  0.00    +0.036 C 
ATOM     12  C   UNL     1      -2.661 -11.030  16.173  0.00  0.00    +0.087 C 
ATOM     15  C   UNL     1      -3.992 -10.006  11.598  0.00  0.00    +0.074 C 
ATOM     16  C   UNL     1      -5.041 -12.149  13.702  0.00  0.00    +0.232 C 
ATOM     19  C   UNL     1      -5.429 -10.303  12.069  0.00  0.00    +0.123 C 
ATOM     22  C   UNL     1      -1.612  -9.992  12.091  0.00  0.00    +0.105 C 
ATOM     31  H   UNL     1      -6.045 -12.334  11.907  0.00  0.00    +0.149 HD
ENDROOT
BRANCH   3  10
ATOM     10  C   UNL     1      -4.879 -11.685  16.893  0.00  0.00    +0.057 C 
ATOM     13  C   UNL     1      -4.160 -11.773  18.245  0.00  0.00    +0.019 C 
ATOM     14  C   UNL     1      -5.733 -10.417  16.802  0.00  0.00    +0.019 C 
ATOM     17  C   UNL     1      -5.147 -11.677  19.407  0.00  0.00    +0.002 C 
ATOM     18  C   UNL     1      -6.718 -10.323  17.966  0.00  0.00    +0.002 C 
ATOM     20  C   UNL     1      -6.008 -10.421  19.314  0.00  0.00    +0.000 C 
ENDBRANCH   3  10
BRANCH  15  21
ATOM     21  C   UNL     1      -3.849 -10.563  10.166  0.00  0.00    +0.029 C 
BRANCH  21  23
ATOM     23  C   UNL     1      -4.000  -9.454   9.142  0.00  0.00    +0.097 C 
BRANCH  23  24
ATOM      2  O   UNL     1      -4.912 -10.742   7.305  0.00  0.00    -0.276 OA
ATOM      6  N   UNL     1      -6.116  -8.934   8.124  0.00  0.00    -0.311 N 
ATOM     24  C   UNL     1      -5.036  -9.802   8.087  0.00  0.00    +0.213 C 
ATOM     32  H   UNL     1      -6.125  -8.172   8.796  0.00  0.00    +0.149 HD
BRANCH   6  25
ATOM     25  C   UNL     1      -7.234  -9.055   7.218  0.00  0.00    +0.141 C 
BRANCH  25  26
ATOM      7  N   UNL     1      -8.797  -5.832   8.429  0.00  0.00    -0.263 NA
ATOM     26  C   UNL     1      -8.225  -7.942   7.396  0.00  0.00    -0.012 A 
ATOM     27  C   UNL     1      -9.449  -7.960   6.736  0.00  0.00    +0.008 A 
ATOM     28  C   UNL     1      -7.950  -6.866   8.224  0.00  0.00    +0.115 A 
ATOM     29  C   UNL     1     -10.348  -6.915   6.922  0.00  0.00    +0.020 A 
ATOM     30  C   UNL     1      -9.978  -5.885   7.771  0.00  0.00    +0.111 A 
ENDBRANCH  25  26
ENDBRANCH   6  25
ENDBRANCH  23  24
ENDBRANCH  21  23
ENDBRANCH  15  21
TORSDOF 6
ENDMDL
MODEL 8
REMARK VINA RESULT:      -6.8      3.918      6.671
REMARK  Name = 45361006
REMARK  7 active torsions:
REMARK  status: ('A' for Active; 'I' for Inactive)
REMARK    1  A    between atoms: N_3  and  C_10
REMARK    2  A    between atoms: N_4  and  C_22
REMARK    3  A    between atoms: N_6  and  C_25
REMARK    4  A    between atoms: C_15  and  C_21
REMARK    5  A    between atoms: C_21  and  C_23
REMARK    6  A    between atoms: C_23  and  C_24
REMARK    7  A    between atoms: C_25  and  C_26
REMARK                            x       y       z     vdW  Elec       q    Type
REMARK                         _______ _______ _______ _____ _____    ______ ____
ROOT
ATOM      1  O   UNL     1      -5.119 -13.267  13.964  0.00  0.00    -0.274 OA
ATOM      3  N   UNL     1      -3.861 -11.710  15.777  0.00  0.00    -0.287 NA
ATOM      4  N   UNL     1      -2.796 -10.552  12.475  0.00  0.00    -0.296 NA
ATOM      5  N   UNL     1      -5.494 -11.574  12.471  0.00  0.00    -0.312 N 
ATOM      8  C   UNL     1      -3.049 -10.374  13.921  0.00  0.00    +0.084 C 
ATOM      9  C   UNL     1      -4.311 -11.045  14.541  0.00  0.00    +0.161 C 
ATOM     11  C   UNL     1      -1.924 -10.913  14.823  0.00  0.00    +0.036 C 
ATOM     12  C   UNL     1      -2.601 -11.088  16.166  0.00  0.00    +0.087 C 
ATOM     15  C   UNL     1      -3.837  -9.958  11.588  0.00  0.00    +0.074 C 
ATOM     16  C   UNL     1      -4.992 -12.084  13.653  0.00  0.00    +0.232 C 
ATOM     19  C   UNL     1      -5.290 -10.205  12.039  0.00  0.00    +0.123 C 
ATOM     22  C   UNL     1      -1.464 -10.041  12.110  0.00  0.00    +0.105 C 
ATOM     31  H   UNL     1      -5.980 -12.209  11.844  0.00  0.00    +0.149 HD
ENDROOT
BRANCH   3  10
ATOM     10  C   UNL     1      -4.852 -11.666  16.852  0.00  0.00    +0.057 C 
ATOM     13  C   UNL     1      -4.150 -11.776  18.211  0.00  0.00    +0.019 C 
ATOM     14  C   UNL     1      -5.669 -10.374  16.754  0.00  0.00    +0.019 C 
ATOM     17  C   UNL     1      -5.148 -11.657  19.363  0.00  0.00    +0.002 C 
ATOM     18  C   UNL     1      -6.665 -10.257  17.907  0.00  0.00    +0.002 C 
ATOM     20  C   UNL     1      -5.973 -10.377  19.263  0.00  0.00    +0.000 C 
ENDBRANCH   3  10
BRANCH  15  21
ATOM     21  C   UNL     1      -3.698 -10.503  10.152  0.00  0.00    +0.029 C 
BRANCH  21  23
ATOM     23  C   UNL     1      -4.275  -9.522   9.149  0.00  0.00    +0.097 C 
BRANCH  23  24
ATOM      2  O   UNL     1      -6.159 -11.009   8.827  0.00  0.00    -0.276 OA
ATOM      6  N   UNL     1      -5.553  -9.567   7.111  0.00  0.00    -0.311 N 
ATOM     24  C   UNL     1      -5.432 -10.128   8.374  0.00  0.00    +0.213 C 
ATOM     32  H   UNL     1      -4.892  -8.855   6.814  0.00  0.00    +0.149 HD
BRANCH   6  25
ATOM     25  C   UNL     1      -6.577  -9.977   6.180  0.00  0.00    +0.141 C 
BRANCH  25  26
ATOM      7  N   UNL     1      -6.292 -11.874   2.922  0.00  0.00    -0.263 NA
ATOM     26  C   UNL     1      -6.036 -10.881   5.111  0.00  0.00    -0.012 A 
ATOM     27  C   UNL     1      -4.830 -11.552   5.283  0.00  0.00    +0.008 A 
ATOM     28  C   UNL     1      -6.722 -11.074   3.924  0.00  0.00    +0.115 A 
ATOM     29  C   UNL     1      -4.354 -12.385   4.276  0.00  0.00    +0.020 A 
ATOM     30  C   UNL     1      -5.116 -12.511   3.126  0.00  0.00    +0.111 A 
ENDBRANCH  25  26
ENDBRANCH   6  25
ENDBRANCH  23  24
ENDBRANCH  21  23
ENDBRANCH  15  21
TORSDOF 6
ENDMDL
MODEL 9
REMARK VINA RESULT:      -6.8     27.358     29.560
REMARK  Name = 45361006
REMARK  7 active torsions:
REMARK  status: ('A' for Active; 'I' for Inactive)
REMARK    1  A    between atoms: N_3  and  C_10
REMARK    2  A    between atoms: N_4  and  C_22
REMARK    3  A    between atoms: N_6  and  C_25
REMARK    4  A    between atoms: C_15  and  C_21
REMARK    5  A    between atoms: C_21  and  C_23
REMARK    6  A    between atoms: C_23  and  C_24
REMARK    7  A    between atoms: C_25  and  C_26
REMARK                            x       y       z     vdW  Elec       q    Type
REMARK                         _______ _______ _______ _____ _____    ______ ____
ROOT
ATOM      1  O   UNL     1      10.718  13.671  21.176  0.00  0.00    -0.274 OA
ATOM      3  N   UNL     1      11.143  12.434  23.539  0.00  0.00    -0.287 NA
ATOM      4  N   UNL     1      11.941  10.007  20.920  0.00  0.00    -0.296 NA
ATOM      5  N   UNL     1      12.514  12.721  20.124  0.00  0.00    -0.312 N 
ATOM      8  C   UNL     1      12.053  10.566  22.284  0.00  0.00    +0.084 C 
ATOM      9  C   UNL     1      12.086  12.114  22.451  0.00  0.00    +0.161 C 
ATOM     11  C   UNL     1      10.897  10.168  23.220  0.00  0.00    +0.036 C 
ATOM     12  C   UNL     1      10.952  11.214  24.313  0.00  0.00    +0.087 C 
ATOM     15  C   UNL     1      13.096  10.315  20.029  0.00  0.00    +0.074 C 
ATOM     16  C   UNL     1      11.680  12.906  21.211  0.00  0.00    +0.232 C 
ATOM     19  C   UNL     1      13.606  11.767  20.108  0.00  0.00    +0.123 C 
ATOM     22  C   UNL     1      11.706   8.554  20.967  0.00  0.00    +0.105 C 
ATOM     31  H   UNL     1      12.313  13.237  19.273  0.00  0.00    +0.149 HD
ENDROOT
BRANCH   3  10
ATOM     10  C   UNL     1      11.579  13.553  24.373  0.00  0.00    +0.057 C 
ATOM     13  C   UNL     1      10.579  13.772  25.514  0.00  0.00    +0.019 C 
ATOM     14  C   UNL     1      12.986  13.282  24.915  0.00  0.00    +0.019 C 
ATOM     17  C   UNL     1      11.041  14.886  26.453  0.00  0.00    +0.002 C 
ATOM     18  C   UNL     1      13.445  14.396  25.853  0.00  0.00    +0.002 C 
ATOM     20  C   UNL     1      12.447  14.626  26.985  0.00  0.00    +0.000 C 
ENDBRANCH   3  10
BRANCH  15  21
ATOM     21  C   UNL     1      12.735  10.028  18.558  0.00  0.00    +0.029 C 
BRANCH  21  23
ATOM     23  C   UNL     1      13.973   9.659  17.763  0.00  0.00    +0.097 C 
BRANCH  23  24
ATOM      2  O   UNL     1      13.867   7.334  17.093  0.00  0.00    -0.276 OA
ATOM      6  N   UNL     1      15.109   7.914  18.967  0.00  0.00    -0.311 N 
ATOM     24  C   UNL     1      14.292   8.179  17.878  0.00  0.00    +0.213 C 
ATOM     32  H   UNL     1      15.398   8.676  19.575  0.00  0.00    +0.149 HD
BRANCH   6  25
ATOM     25  C   UNL     1      15.552   6.579  19.293  0.00  0.00    +0.141 C 
BRANCH  25  26
ATOM      7  N   UNL     1      18.417   7.482  21.589  0.00  0.00    -0.263 NA
ATOM     26  C   UNL     1      16.912   6.576  19.928  0.00  0.00    -0.012 A 
ATOM     27  C   UNL     1      17.909   5.716  19.482  0.00  0.00    +0.008 A 
ATOM     28  C   UNL     1      17.214   7.432  20.974  0.00  0.00    +0.115 A 
ATOM     29  C   UNL     1      19.161   5.738  20.088  0.00  0.00    +0.020 A 
ATOM     30  C   UNL     1      19.362   6.631  21.128  0.00  0.00    +0.111 A 
ENDBRANCH  25  26
ENDBRANCH   6  25
ENDBRANCH  23  24
ENDBRANCH  21  23
ENDBRANCH  15  21
TORSDOF 6
ENDMDL
MODEL 10
REMARK VINA RESULT:      -6.7     27.174     29.487
REMARK  Name = 45361006
REMARK  7 active torsions:
REMARK  status: ('A' for Active; 'I' for Inactive)
REMARK    1  A    between atoms: N_3  and  C_10
REMARK    2  A    between atoms: N_4  and  C_22
REMARK    3  A    between atoms: N_6  and  C_25
REMARK    4  A    between atoms: C_15  and  C_21
REMARK    5  A    between atoms: C_21  and  C_23
REMARK    6  A    between atoms: C_23  and  C_24
REMARK    7  A    between atoms: C_25  and  C_26
REMARK                            x       y       z     vdW  Elec       q    Type
REMARK                         _______ _______ _______ _____ _____    ______ ____
ROOT
ATOM      1  O   UNL     1      12.817  11.596  20.123  0.00  0.00    -0.274 OA
ATOM      3  N   UNL     1      11.317  10.938  22.270  0.00  0.00    -0.287 NA
ATOM      4  N   UNL     1      12.863   7.844  21.077  0.00  0.00    -0.296 NA
ATOM      5  N   UNL     1      14.525  10.159  20.623  0.00  0.00    -0.312 N 
ATOM      8  C   UNL     1      12.250   8.703  22.114  0.00  0.00    +0.084 C 
ATOM      9  C   UNL     1      12.597  10.221  22.119  0.00  0.00    +0.161 C 
ATOM     11  C   UNL     1      10.711   8.726  22.076  0.00  0.00    +0.036 C 
ATOM     12  C   UNL     1      10.358   9.991  22.828  0.00  0.00    +0.087 C 
ATOM     15  C   UNL     1      14.349   7.746  21.156  0.00  0.00    +0.074 C 
ATOM     16  C   UNL     1      13.289  10.731  20.858  0.00  0.00    +0.232 C 
ATOM     19  C   UNL     1      15.073   9.080  21.422  0.00  0.00    +0.123 C 
ATOM     22  C   UNL     1      12.263   6.500  21.087  0.00  0.00    +0.105 C 
ATOM     31  H   UNL     1      15.050  10.471  19.811  0.00  0.00    +0.149 HD
ENDROOT
BRANCH   3  10
ATOM     10  C   UNL     1      11.424  12.152  23.078  0.00  0.00    +0.057 C 
ATOM     13  C   UNL     1      10.651  13.293  22.407  0.00  0.00    +0.019 C 
ATOM     14  C   UNL     1      10.901  11.885  24.492  0.00  0.00    +0.019 C 
ATOM     17  C   UNL     1      10.677  14.560  23.261  0.00  0.00    +0.002 C 
ATOM     18  C   UNL     1      10.927  13.153  25.344  0.00  0.00    +0.002 C 
ATOM     20  C   UNL     1      10.168  14.296  24.676  0.00  0.00    +0.000 C 
ENDBRANCH   3  10
BRANCH  15  21
ATOM     21  C   UNL     1      14.922   7.159  19.850  0.00  0.00    +0.029 C 
BRANCH  21  23
ATOM     23  C   UNL     1      16.396   7.491  19.714  0.00  0.00    +0.097 C 
BRANCH  23  24
ATOM      2  O   UNL     1      16.907   5.435  18.541  0.00  0.00    -0.276 OA
ATOM      6  N   UNL     1      18.355   6.182  20.195  0.00  0.00    -0.311 N 
ATOM     24  C   UNL     1      17.222   6.257  19.399  0.00  0.00    +0.213 C 
ATOM     32  H   UNL     1      18.525   6.900  20.893  0.00  0.00    +0.149 HD
BRANCH   6  25
ATOM     25  C   UNL     1      19.302   5.097  20.089  0.00  0.00    +0.141 C 
BRANCH  25  26
ATOM      7  N   UNL     1      22.963   4.884  21.009  0.00  0.00    -0.263 NA
ATOM     26  C   UNL     1      20.645   5.467  20.648  0.00  0.00    -0.012 A 
ATOM     27  C   UNL     1      20.839   6.676  21.307  0.00  0.00    +0.008 A 
ATOM     28  C   UNL     1      21.729   4.614  20.527  0.00  0.00    +0.115 A 
ATOM     29  C   UNL     1      22.094   6.990  21.817  0.00  0.00    +0.020 A 
ATOM     30  C   UNL     1      23.113   6.069  21.644  0.00  0.00    +0.111 A 
ENDBRANCH  25  26
ENDBRANCH   6  25
ENDBRANCH  23  24
ENDBRANCH  21  23
ENDBRANCH  15  21
TORSDOF 6
ENDMDL
