REMARK  Name = 7673830
REMARK  4 active torsions:
REMARK  status: ('A' for Active; 'I' for Inactive)
REMARK    1  A    between atoms: S_1  and  N_5
REMARK    2  A    between atoms: S_1  and  C_19
REMARK    3  A    between atoms: C_17  and  C_20
REMARK    4  A    between atoms: C_28  and  C_31
REMARK                            x       y       z     vdW  Elec       q    Type
REMARK                         _______ _______ _______ _____ _____    ______ ____
ROOT
ATOM      4  O   UNL     1      -2.413   1.145  -1.823  0.00  0.00    -0.267 OA
ATOM      5  N   UNL     1       2.205  -0.000  -0.345  0.00  0.00    -0.176 NA
ATOM      6  N   UNL     1      -0.566   1.513  -0.446  0.00  0.00    -0.311 N 
ATOM      8  C   UNL     1       1.717   2.227  -1.362  0.00  0.00    +0.025 C 
ATOM      9  C   UNL     1       1.421   1.899   1.054  0.00  0.00    +0.052 C 
ATOM     10  C   UNL     1       1.897   2.892  -0.003  0.00  0.00    +0.017 C 
ATOM     11  C   UNL     1       2.553   0.940  -1.449  0.00  0.00    +0.114 C 
ATOM     12  C   UNL     1       2.296   0.634   1.004  0.00  0.00    +0.119 C 
ATOM     13  C   UNL     1       0.223   1.972  -1.597  0.00  0.00    +0.130 C 
ATOM     14  C   UNL     1      -0.039   1.539   0.848  0.00  0.00    +0.026 A 
ATOM     15  C   UNL     1      -0.814   1.226   1.899  0.00  0.00    +0.022 A 
ATOM     16  C   UNL     1      -1.904   1.150  -0.701  0.00  0.00    +0.259 A 
ATOM     17  C   UNL     1      -2.733   0.770   0.495  0.00  0.00    +0.047 A 
ATOM     18  C   UNL     1      -2.183   0.832   1.716  0.00  0.00    +0.015 A 
ENDROOT
BRANCH  17  20
ATOM     20  C   UNL     1      -4.091   0.355   0.337  0.00  0.00    -0.011 A 
ATOM     23  C   UNL     1      -4.393  -0.995   0.152  0.00  0.00    +0.027 A 
ATOM     24  C   UNL     1      -5.117   1.300   0.366  0.00  0.00    +0.009 A 
ATOM     28  C   UNL     1      -5.718  -1.399  -0.004  0.00  0.00    +0.052 A 
ATOM     29  C   UNL     1      -6.443   0.896   0.210  0.00  0.00    +0.002 A 
ATOM     30  C   UNL     1      -6.744  -0.454   0.025  0.00  0.00    +0.019 A 
BRANCH  28  31
ATOM      7  N   UNL     1      -6.278  -3.905  -0.347  0.00  0.00    -0.191 NA
ATOM     31  C   UNL     1      -6.027  -2.782  -0.193  0.00  0.00    +0.099 C 
ENDBRANCH  28  31
ENDBRANCH  17  20
BRANCH   5   1
ATOM      1  S   UNL     1       2.873  -1.570  -0.472  0.00  0.00    +0.061 S 
ATOM      2  O   UNL     1       2.860  -1.980  -1.860  0.00  0.00    -0.153 OA
ATOM      3  O   UNL     1       2.299  -2.411   0.558  0.00  0.00    -0.153 OA
BRANCH   1  19
ATOM     19  C   UNL     1       4.547  -1.232  -0.025  0.00  0.00    +0.105 A 
ATOM     21  C   UNL     1       4.922  -1.309   1.306  0.00  0.00    +0.028 A 
ATOM     22  C   UNL     1       5.457  -0.893  -1.013  0.00  0.00    +0.028 A 
ATOM     25  C   UNL     1       6.244  -1.040   1.659  0.00  0.00    +0.002 A 
ATOM     26  C   UNL     1       6.779  -0.624  -0.660  0.00  0.00    +0.002 A 
ATOM     27  C   UNL     1       7.173  -0.697   0.676  0.00  0.00    +0.000 A 
ENDBRANCH   1  19
ENDBRANCH   5   1
TORSDOF 4
