MODEL 1
REMARK VINA RESULT:      -7.2      0.000      0.000
REMARK  Name = 71693352
REMARK  9 active torsions:
REMARK  status: ('A' for Active; 'I' for Inactive)
REMARK    1  A    between atoms: O_2  and  C_12
REMARK    2  A    between atoms: N_6  and  C_11
REMARK    3  A    between atoms: N_7  and  C_22
REMARK    4  A    between atoms: C_9  and  C_12
REMARK    5  A    between atoms: C_10  and  C_14
REMARK    6  A    between atoms: C_11  and  C_16
REMARK    7  A    between atoms: C_11  and  C_17
REMARK    8  A    between atoms: C_23  and  C_24
REMARK    9  A    between atoms: C_26  and  C_27
REMARK                            x       y       z     vdW  Elec       q    Type
REMARK                         _______ _______ _______ _____ _____    ______ ____
ROOT
ATOM     14  C   UNL     1      15.809   7.681  20.559  0.00  0.00    -0.017 A 
ATOM     18  C   UNL     1      16.050   6.597  19.717  0.00  0.00    +0.008 A 
ATOM     19  C   UNL     1      16.843   8.209  21.331  0.00  0.00    +0.008 A 
ATOM     20  C   UNL     1      17.326   6.039  19.646  0.00  0.00    +0.023 A 
ATOM     21  C   UNL     1      18.120   7.651  21.261  0.00  0.00    +0.023 A 
ATOM     22  C   UNL     1      18.362   6.566  20.419  0.00  0.00    +0.034 A 
ENDROOT
BRANCH  14  10
ATOM      1  O   UNL     1      14.580   9.665  20.991  0.00  0.00    -0.361 OA
ATOM      3  O   UNL     1      13.242  11.596  18.504  0.00  0.00    -0.273 OA
ATOM      6  N   UNL     1      13.592   9.287  18.500  0.00  0.00    -0.289 N 
ATOM      9  C   UNL     1      13.638   8.069  19.314  0.00  0.00    +0.135 C 
ATOM     10  C   UNL     1      14.420   8.287  20.636  0.00  0.00    +0.171 C 
ATOM     13  C   UNL     1      13.432  10.535  19.097  0.00  0.00    +0.242 C 
ATOM     15  C   UNL     1      13.496  10.483  20.605  0.00  0.00    +0.256 C 
BRANCH   6  11
ATOM     11  C   UNL     1      13.582   9.144  17.051  0.00  0.00    +0.070 C 
ATOM     16  C   UNL     1      12.153   9.189  16.525  0.00  0.00    +0.028 C 
ATOM     17  C   UNL     1      14.283   7.858  16.635  0.00  0.00    +0.028 C 
ENDBRANCH   6  11
BRANCH   9  12
ATOM     12  C   UNL     1      12.221   7.547  19.588  0.00  0.00    +0.181 C 
BRANCH  12   2
ATOM      2  O   UNL     1      12.199   6.162  19.312  0.00  0.00    -0.393 OA
ATOM     28  H   UNL     1      12.490   5.702  20.117  0.00  0.00    +0.209 HD
ENDBRANCH  12   2
ENDBRANCH   9  12
ENDBRANCH  14  10
BRANCH  22   7
ATOM      4  O   UNL     1      20.282   5.839  22.604  0.00  0.00    -0.268 OA
ATOM      7  N   UNL     1      19.639   6.008  20.349  0.00  0.00    -0.280 N 
ATOM     23  C   UNL     1      20.499   5.685  21.406  0.00  0.00    +0.270 C 
ATOM     29  H   UNL     1      19.976   5.809  19.409  0.00  0.00    +0.155 HD
BRANCH  23  24
ATOM      5  O   UNL     1      23.802   4.952  20.216  0.00  0.00    -0.359 OA
ATOM      8  N   UNL     1      22.748   5.826  20.458  0.00  0.00    -0.073 NA
ATOM     24  C   UNL     1      21.794   5.071  21.010  0.00  0.00    +0.168 A 
ATOM     25  C   UNL     1      22.183   3.727  21.140  0.00  0.00    +0.080 A 
ATOM     26  C   UNL     1      23.453   3.706  20.626  0.00  0.00    +0.135 A 
ATOM     27  C   UNL     1      24.457   2.650  20.443  0.00  0.00    +0.089 C 
ENDBRANCH  23  24
ENDBRANCH  22   7
TORSDOF 6
ENDMDL
MODEL 2
REMARK VINA RESULT:      -7.1      1.607      2.119
REMARK  Name = 71693352
REMARK  9 active torsions:
REMARK  status: ('A' for Active; 'I' for Inactive)
REMARK    1  A    between atoms: O_2  and  C_12
REMARK    2  A    between atoms: N_6  and  C_11
REMARK    3  A    between atoms: N_7  and  C_22
REMARK    4  A    between atoms: C_9  and  C_12
REMARK    5  A    between atoms: C_10  and  C_14
REMARK    6  A    between atoms: C_11  and  C_16
REMARK    7  A    between atoms: C_11  and  C_17
REMARK    8  A    between atoms: C_23  and  C_24
REMARK    9  A    between atoms: C_26  and  C_27
REMARK                            x       y       z     vdW  Elec       q    Type
REMARK                         _______ _______ _______ _____ _____    ______ ____
ROOT
ATOM     14  C   UNL     1      15.661   6.601  20.077  0.00  0.00    -0.017 A 
ATOM     18  C   UNL     1      16.311   6.091  18.954  0.00  0.00    +0.008 A 
ATOM     19  C   UNL     1      16.373   6.821  21.255  0.00  0.00    +0.008 A 
ATOM     20  C   UNL     1      17.673   5.801  19.008  0.00  0.00    +0.023 A 
ATOM     21  C   UNL     1      17.737   6.530  21.310  0.00  0.00    +0.023 A 
ATOM     22  C   UNL     1      18.387   6.020  20.187  0.00  0.00    +0.034 A 
ENDROOT
BRANCH  14  10
ATOM      1  O   UNL     1      13.667   6.797  21.348  0.00  0.00    -0.361 OA
ATOM      3  O   UNL     1      12.357   9.814  22.290  0.00  0.00    -0.273 OA
ATOM      6  N   UNL     1      13.601   9.322  20.376  0.00  0.00    -0.289 N 
ATOM      9  C   UNL     1      13.925   8.305  19.371  0.00  0.00    +0.135 C 
ATOM     10  C   UNL     1      14.178   6.916  20.017  0.00  0.00    +0.171 C 
ATOM     13  C   UNL     1      12.799   9.010  21.472  0.00  0.00    +0.242 C 
ATOM     15  C   UNL     1      12.486   7.537  21.574  0.00  0.00    +0.256 C 
BRANCH   6  11
ATOM     11  C   UNL     1      14.027  10.692  20.127  0.00  0.00    +0.070 C 
ATOM     16  C   UNL     1      12.989  11.423  19.285  0.00  0.00    +0.028 C 
ATOM     17  C   UNL     1      15.396  10.714  19.459  0.00  0.00    +0.028 C 
ENDBRANCH   6  11
BRANCH   9  12
ATOM     12  C   UNL     1      12.823   8.228  18.305  0.00  0.00    +0.181 C 
BRANCH  12   2
ATOM      2  O   UNL     1      12.317   6.910  18.288  0.00  0.00    -0.393 OA
ATOM     28  H   UNL     1      11.427   6.947  17.898  0.00  0.00    +0.209 HD
ENDBRANCH  12   2
ENDBRANCH   9  12
ENDBRANCH  14  10
BRANCH  22   7
ATOM      4  O   UNL     1      20.719   7.780  20.861  0.00  0.00    -0.268 OA
ATOM      7  N   UNL     1      19.750   5.729  20.242  0.00  0.00    -0.280 N 
ATOM     23  C   UNL     1      20.805   6.593  20.565  0.00  0.00    +0.270 C 
ATOM     29  H   UNL     1      19.999   4.766  20.024  0.00  0.00    +0.155 HD
BRANCH  23  24
ATOM      5  O   UNL     1      24.316   5.865  20.511  0.00  0.00    -0.359 OA
ATOM      8  N   UNL     1      23.243   6.748  20.486  0.00  0.00    -0.073 NA
ATOM     24  C   UNL     1      22.157   5.975  20.565  0.00  0.00    +0.168 A 
ATOM     25  C   UNL     1      22.479   4.608  20.640  0.00  0.00    +0.080 A 
ATOM     26  C   UNL     1      23.848   4.594  20.602  0.00  0.00    +0.135 A 
ATOM     27  C   UNL     1      24.854   3.525  20.640  0.00  0.00    +0.089 C 
ENDBRANCH  23  24
ENDBRANCH  22   7
TORSDOF 6
ENDMDL
MODEL 3
REMARK VINA RESULT:      -7.1      1.765      3.011
REMARK  Name = 71693352
REMARK  9 active torsions:
REMARK  status: ('A' for Active; 'I' for Inactive)
REMARK    1  A    between atoms: O_2  and  C_12
REMARK    2  A    between atoms: N_6  and  C_11
REMARK    3  A    between atoms: N_7  and  C_22
REMARK    4  A    between atoms: C_9  and  C_12
REMARK    5  A    between atoms: C_10  and  C_14
REMARK    6  A    between atoms: C_11  and  C_16
REMARK    7  A    between atoms: C_11  and  C_17
REMARK    8  A    between atoms: C_23  and  C_24
REMARK    9  A    between atoms: C_26  and  C_27
REMARK                            x       y       z     vdW  Elec       q    Type
REMARK                         _______ _______ _______ _____ _____    ______ ____
ROOT
ATOM     14  C   UNL     1      15.894   8.433  19.809  0.00  0.00    -0.017 A 
ATOM     18  C   UNL     1      16.740   9.024  20.747  0.00  0.00    +0.008 A 
ATOM     19  C   UNL     1      16.064   7.093  19.461  0.00  0.00    +0.008 A 
ATOM     20  C   UNL     1      17.756   8.274  21.339  0.00  0.00    +0.023 A 
ATOM     21  C   UNL     1      17.082   6.344  20.052  0.00  0.00    +0.023 A 
ATOM     22  C   UNL     1      17.928   6.934  20.991  0.00  0.00    +0.034 A 
ENDROOT
BRANCH  14  10
ATOM      1  O   UNL     1      14.641   8.775  17.823  0.00  0.00    -0.361 OA
ATOM      3  O   UNL     1      11.449   7.610  17.422  0.00  0.00    -0.273 OA
ATOM      6  N   UNL     1      12.497   8.278  19.399  0.00  0.00    -0.289 N 
ATOM      9  C   UNL     1      13.482   9.181  20.001  0.00  0.00    +0.135 C 
ATOM     10  C   UNL     1      14.789   9.249  19.166  0.00  0.00    +0.171 C 
ATOM     13  C   UNL     1      12.334   8.223  18.016  0.00  0.00    +0.242 C 
ATOM     15  C   UNL     1      13.368   9.027  17.266  0.00  0.00    +0.256 C 
BRANCH   6  11
ATOM     11  C   UNL     1      11.606   7.545  20.287  0.00  0.00    +0.070 C 
ATOM     16  C   UNL     1      10.676   8.507  21.015  0.00  0.00    +0.028 C 
ATOM     17  C   UNL     1      12.406   6.700  21.270  0.00  0.00    +0.028 C 
ENDBRANCH   6  11
BRANCH   9  12
ATOM     12  C   UNL     1      12.881  10.579  20.205  0.00  0.00    +0.181 C 
BRANCH  12   2
ATOM      2  O   UNL     1      13.260  11.039  21.486  0.00  0.00    -0.393 OA
ATOM     28  H   UNL     1      12.506  11.532  21.850  0.00  0.00    +0.209 HD
ENDBRANCH  12   2
ENDBRANCH   9  12
ENDBRANCH  14  10
BRANCH  22   7
ATOM      4  O   UNL     1      20.867   6.853  20.403  0.00  0.00    -0.268 OA
ATOM      7  N   UNL     1      18.946   6.185  21.582  0.00  0.00    -0.280 N 
ATOM     23  C   UNL     1      20.311   6.184  21.269  0.00  0.00    +0.270 C 
ATOM     29  H   UNL     1      18.651   5.568  22.337  0.00  0.00    +0.155 HD
BRANCH  23  24
ATOM      5  O   UNL     1      22.216   4.580  23.849  0.00  0.00    -0.359 OA
ATOM      8  N   UNL     1      21.415   5.611  23.373  0.00  0.00    -0.073 NA
ATOM     24  C   UNL     1      21.157   5.290  22.102  0.00  0.00    +0.168 A 
ATOM     25  C   UNL     1      21.764   4.081  21.723  0.00  0.00    +0.080 A 
ATOM     26  C   UNL     1      22.417   3.676  22.856  0.00  0.00    +0.135 A 
ATOM     27  C   UNL     1      23.250   2.512  23.189  0.00  0.00    +0.089 C 
ENDBRANCH  23  24
ENDBRANCH  22   7
TORSDOF 6
ENDMDL
MODEL 4
REMARK VINA RESULT:      -6.9     28.109     31.474
REMARK  Name = 71693352
REMARK  9 active torsions:
REMARK  status: ('A' for Active; 'I' for Inactive)
REMARK    1  A    between atoms: O_2  and  C_12
REMARK    2  A    between atoms: N_6  and  C_11
REMARK    3  A    between atoms: N_7  and  C_22
REMARK    4  A    between atoms: C_9  and  C_12
REMARK    5  A    between atoms: C_10  and  C_14
REMARK    6  A    between atoms: C_11  and  C_16
REMARK    7  A    between atoms: C_11  and  C_17
REMARK    8  A    between atoms: C_23  and  C_24
REMARK    9  A    between atoms: C_26  and  C_27
REMARK                            x       y       z     vdW  Elec       q    Type
REMARK                         _______ _______ _______ _____ _____    ______ ____
ROOT
ATOM     14  C   UNL     1     -12.591   7.743  20.107  0.00  0.00    -0.017 A 
ATOM     18  C   UNL     1     -13.980   7.633  20.089  0.00  0.00    +0.008 A 
ATOM     19  C   UNL     1     -11.829   6.842  20.851  0.00  0.00    +0.008 A 
ATOM     20  C   UNL     1     -14.610   6.622  20.814  0.00  0.00    +0.023 A 
ATOM     21  C   UNL     1     -12.459   5.830  21.577  0.00  0.00    +0.023 A 
ATOM     22  C   UNL     1     -13.848   5.720  21.559  0.00  0.00    +0.034 A 
ENDROOT
BRANCH  14  10
ATOM      1  O   UNL     1     -10.625   8.344  18.922  0.00  0.00    -0.361 OA
ATOM      3  O   UNL     1     -10.452   8.365  15.505  0.00  0.00    -0.273 OA
ATOM      6  N   UNL     1     -12.314   8.776  16.852  0.00  0.00    -0.289 N 
ATOM      9  C   UNL     1     -12.788   9.315  18.131  0.00  0.00    +0.135 C 
ATOM     10  C   UNL     1     -11.906   8.843  19.318  0.00  0.00    +0.171 C 
ATOM     13  C   UNL     1     -10.951   8.669  16.587  0.00  0.00    +0.242 C 
ATOM     15  C   UNL     1     -10.089   8.987  17.785  0.00  0.00    +0.256 C 
BRANCH   6  11
ATOM     11  C   UNL     1     -13.302   8.484  15.823  0.00  0.00    +0.070 C 
ATOM     16  C   UNL     1     -13.460   9.677  14.890  0.00  0.00    +0.028 C 
ATOM     17  C   UNL     1     -14.633   8.095  16.453  0.00  0.00    +0.028 C 
ENDBRANCH   6  11
BRANCH   9  12
ATOM     12  C   UNL     1     -12.870  10.846  18.075  0.00  0.00    +0.181 C 
BRANCH  12   2
ATOM      2  O   UNL     1     -12.066  11.369  19.112  0.00  0.00    -0.393 OA
ATOM     28  H   UNL     1     -11.154  11.075  18.947  0.00  0.00    +0.209 HD
ENDBRANCH  12   2
ENDBRANCH   9  12
ENDBRANCH  14  10
BRANCH  22   7
ATOM      4  O   UNL     1     -15.864   5.891  23.772  0.00  0.00    -0.268 OA
ATOM      7  N   UNL     1     -14.478   4.709  22.285  0.00  0.00    -0.280 N 
ATOM     23  C   UNL     1     -15.419   4.843  23.315  0.00  0.00    +0.270 C 
ATOM     29  H   UNL     1     -14.220   3.759  22.024  0.00  0.00    +0.155 HD
BRANCH  23  24
ATOM      5  O   UNL     1     -16.834   1.602  23.909  0.00  0.00    -0.359 OA
ATOM      8  N   UNL     1     -16.462   2.647  23.070  0.00  0.00    -0.073 NA
ATOM     24  C   UNL     1     -15.932   3.567  23.880  0.00  0.00    +0.168 A 
ATOM     25  C   UNL     1     -15.943   3.166  25.227  0.00  0.00    +0.080 A 
ATOM     26  C   UNL     1     -16.520   1.924  25.190  0.00  0.00    +0.135 A 
ATOM     27  C   UNL     1     -16.848   0.925  26.216  0.00  0.00    +0.089 C 
ENDBRANCH  23  24
ENDBRANCH  22   7
TORSDOF 6
ENDMDL
MODEL 5
REMARK VINA RESULT:      -6.7      2.138      8.897
REMARK  Name = 71693352
REMARK  9 active torsions:
REMARK  status: ('A' for Active; 'I' for Inactive)
REMARK    1  A    between atoms: O_2  and  C_12
REMARK    2  A    between atoms: N_6  and  C_11
REMARK    3  A    between atoms: N_7  and  C_22
REMARK    4  A    between atoms: C_9  and  C_12
REMARK    5  A    between atoms: C_10  and  C_14
REMARK    6  A    between atoms: C_11  and  C_16
REMARK    7  A    between atoms: C_11  and  C_17
REMARK    8  A    between atoms: C_23  and  C_24
REMARK    9  A    between atoms: C_26  and  C_27
REMARK                            x       y       z     vdW  Elec       q    Type
REMARK                         _______ _______ _______ _____ _____    ______ ____
ROOT
ATOM     14  C   UNL     1      18.926   6.175  20.732  0.00  0.00    -0.017 A 
ATOM     18  C   UNL     1      18.559   5.500  19.568  0.00  0.00    +0.008 A 
ATOM     19  C   UNL     1      18.068   7.123  21.288  0.00  0.00    +0.008 A 
ATOM     20  C   UNL     1      17.334   5.775  18.959  0.00  0.00    +0.023 A 
ATOM     21  C   UNL     1      16.843   7.399  20.679  0.00  0.00    +0.023 A 
ATOM     22  C   UNL     1      16.477   6.725  19.515  0.00  0.00    +0.034 A 
ENDROOT
BRANCH  14  10
ATOM      1  O   UNL     1      21.161   5.472  20.359  0.00  0.00    -0.361 OA
ATOM      3  O   UNL     1      23.804   7.645  20.309  0.00  0.00    -0.273 OA
ATOM      6  N   UNL     1      21.822   7.821  21.530  0.00  0.00    -0.289 N 
ATOM      9  C   UNL     1      20.758   7.088  22.223  0.00  0.00    +0.135 C 
ATOM     10  C   UNL     1      20.258   5.876  21.393  0.00  0.00    +0.171 C 
ATOM     13  C   UNL     1      22.798   7.141  20.806  0.00  0.00    +0.242 C 
ATOM     15  C   UNL     1      22.522   5.662  20.684  0.00  0.00    +0.256 C 
BRANCH   6  11
ATOM     11  C   UNL     1      21.906   9.260  21.733  0.00  0.00    +0.070 C 
ATOM     16  C   UNL     1      20.801   9.729  22.670  0.00  0.00    +0.028 C 
ATOM     17  C   UNL     1      21.846   9.993  20.398  0.00  0.00    +0.028 C 
ENDBRANCH   6  11
BRANCH   9  12
ATOM     12  C   UNL     1      21.222   6.651  23.619  0.00  0.00    +0.181 C 
BRANCH  12   2
ATOM      2  O   UNL     1      20.110   6.699  24.489  0.00  0.00    -0.393 OA
ATOM     28  H   UNL     1      19.338   6.951  23.957  0.00  0.00    +0.209 HD
ENDBRANCH  12   2
ENDBRANCH   9  12
ENDBRANCH  14  10
BRANCH  22   7
ATOM      4  O   UNL     1      15.103   9.343  19.020  0.00  0.00    -0.268 OA
ATOM      7  N   UNL     1      15.252   7.000  18.906  0.00  0.00    -0.280 N 
ATOM     23  C   UNL     1      14.652   8.249  18.698  0.00  0.00    +0.270 C 
ATOM     29  H   UNL     1      14.740   6.186  18.570  0.00  0.00    +0.155 HD
BRANCH  23  24
ATOM      5  O   UNL     1      11.386   7.507  17.416  0.00  0.00    -0.359 OA
ATOM      8  N   UNL     1      12.479   7.232  18.230  0.00  0.00    -0.073 NA
ATOM     24  C   UNL     1      13.346   8.219  17.989  0.00  0.00    +0.168 A 
ATOM     25  C   UNL     1      12.861   9.137  17.040  0.00  0.00    +0.080 A 
ATOM     26  C   UNL     1      11.627   8.643  16.713  0.00  0.00    +0.135 A 
ATOM     27  C   UNL     1      10.567   9.082  15.795  0.00  0.00    +0.089 C 
ENDBRANCH  23  24
ENDBRANCH  22   7
TORSDOF 6
ENDMDL
MODEL 6
REMARK VINA RESULT:      -6.4     27.069     30.830
REMARK  Name = 71693352
REMARK  9 active torsions:
REMARK  status: ('A' for Active; 'I' for Inactive)
REMARK    1  A    between atoms: O_2  and  C_12
REMARK    2  A    between atoms: N_6  and  C_11
REMARK    3  A    between atoms: N_7  and  C_22
REMARK    4  A    between atoms: C_9  and  C_12
REMARK    5  A    between atoms: C_10  and  C_14
REMARK    6  A    between atoms: C_11  and  C_16
REMARK    7  A    between atoms: C_11  and  C_17
REMARK    8  A    between atoms: C_23  and  C_24
REMARK    9  A    between atoms: C_26  and  C_27
REMARK                            x       y       z     vdW  Elec       q    Type
REMARK                         _______ _______ _______ _____ _____    ______ ____
ROOT
ATOM     14  C   UNL     1      -3.076 -10.729  10.936  0.00  0.00    -0.017 A 
ATOM     18  C   UNL     1      -3.058  -9.385  10.568  0.00  0.00    +0.008 A 
ATOM     19  C   UNL     1      -3.871 -11.635  10.232  0.00  0.00    +0.008 A 
ATOM     20  C   UNL     1      -3.834  -8.944   9.497  0.00  0.00    +0.023 A 
ATOM     21  C   UNL     1      -4.648 -11.193   9.161  0.00  0.00    +0.023 A 
ATOM     22  C   UNL     1      -4.630  -9.848   8.793  0.00  0.00    +0.034 A 
ENDROOT
BRANCH  14  10
ATOM      1  O   UNL     1      -1.927 -10.061  12.901  0.00  0.00    -0.361 OA
ATOM      3  O   UNL     1      -3.185 -10.558  16.044  0.00  0.00    -0.273 OA
ATOM      6  N   UNL     1      -3.526 -11.861  14.138  0.00  0.00    -0.289 N 
ATOM      9  C   UNL     1      -2.944 -12.345  12.882  0.00  0.00    +0.135 C 
ATOM     10  C   UNL     1      -2.231 -11.209  12.101  0.00  0.00    +0.171 C 
ATOM     13  C   UNL     1      -2.855 -10.921  14.917  0.00  0.00    +0.242 C 
ATOM     15  C   UNL     1      -1.621 -10.368  14.245  0.00  0.00    +0.256 C 
BRANCH   6  11
ATOM     11  C   UNL     1      -4.752 -12.488  14.611  0.00  0.00    +0.070 C 
ATOM     16  C   UNL     1      -4.427 -13.698  15.477  0.00  0.00    +0.028 C 
ATOM     17  C   UNL     1      -5.644 -12.872  13.438  0.00  0.00    +0.028 C 
ENDBRANCH   6  11
BRANCH   9  12
ATOM     12  C   UNL     1      -1.991 -13.519  13.144  0.00  0.00    +0.181 C 
BRANCH  12   2
ATOM      2  O   UNL     1      -2.076 -14.409  12.049  0.00  0.00    -0.393 OA
ATOM     28  H   UNL     1      -2.995 -14.719  12.000  0.00  0.00    +0.209 HD
ENDBRANCH  12   2
ENDBRANCH   9  12
ENDBRANCH  14  10
BRANCH  22   7
ATOM      4  O   UNL     1      -7.554  -9.198   8.659  0.00  0.00    -0.268 OA
ATOM      7  N   UNL     1      -5.408  -9.407   7.722  0.00  0.00    -0.280 N 
ATOM     23  C   UNL     1      -6.778  -9.115   7.712  0.00  0.00    +0.270 C 
ATOM     29  H   UNL     1      -4.907  -9.279   6.844  0.00  0.00    +0.155 HD
BRANCH  23  24
ATOM      5  O   UNL     1      -8.527  -7.475   5.046  0.00  0.00    -0.359 OA
ATOM      8  N   UNL     1      -8.254  -7.681   6.393  0.00  0.00    -0.073 NA
ATOM     24  C   UNL     1      -7.318  -8.634   6.414  0.00  0.00    +0.168 A 
ATOM     25  C   UNL     1      -6.965  -9.065   5.123  0.00  0.00    +0.080 A 
ATOM     26  C   UNL     1      -7.754  -8.306   4.300  0.00  0.00    +0.135 A 
ATOM     27  C   UNL     1      -7.916  -8.220   2.843  0.00  0.00    +0.089 C 
ENDBRANCH  23  24
ENDBRANCH  22   7
TORSDOF 6
ENDMDL
MODEL 7
REMARK VINA RESULT:      -6.3     26.938     30.954
REMARK  Name = 71693352
REMARK  9 active torsions:
REMARK  status: ('A' for Active; 'I' for Inactive)
REMARK    1  A    between atoms: O_2  and  C_12
REMARK    2  A    between atoms: N_6  and  C_11
REMARK    3  A    between atoms: N_7  and  C_22
REMARK    4  A    between atoms: C_9  and  C_12
REMARK    5  A    between atoms: C_10  and  C_14
REMARK    6  A    between atoms: C_11  and  C_16
REMARK    7  A    between atoms: C_11  and  C_17
REMARK    8  A    between atoms: C_23  and  C_24
REMARK    9  A    between atoms: C_26  and  C_27
REMARK                            x       y       z     vdW  Elec       q    Type
REMARK                         _______ _______ _______ _____ _____    ______ ____
ROOT
ATOM     14  C   UNL     1      -4.461 -11.656  15.977  0.00  0.00    -0.017 A 
ATOM     18  C   UNL     1      -4.614 -10.664  16.944  0.00  0.00    +0.008 A 
ATOM     19  C   UNL     1      -5.517 -12.521  15.691  0.00  0.00    +0.008 A 
ATOM     20  C   UNL     1      -5.823 -10.537  17.627  0.00  0.00    +0.023 A 
ATOM     21  C   UNL     1      -6.727 -12.395  16.375  0.00  0.00    +0.023 A 
ATOM     22  C   UNL     1      -6.880 -11.403  17.343  0.00  0.00    +0.034 A 
ENDROOT
BRANCH  14  10
ATOM      1  O   UNL     1      -3.003 -13.174  14.882  0.00  0.00    -0.361 OA
ATOM      3  O   UNL     1      -2.795 -13.416  11.475  0.00  0.00    -0.273 OA
ATOM      6  N   UNL     1      -3.308 -11.530  12.753  0.00  0.00    -0.289 N 
ATOM      9  C   UNL     1      -3.081 -10.829  14.021  0.00  0.00    +0.135 C 
ATOM     10  C   UNL     1      -3.146 -11.794  15.234  0.00  0.00    +0.171 C 
ATOM     13  C   UNL     1      -2.783 -12.803  12.541  0.00  0.00    +0.242 C 
ATOM     15  C   UNL     1      -2.151 -13.396  13.778  0.00  0.00    +0.256 C 
BRANCH   6  11
ATOM     11  C   UNL     1      -3.978 -10.809  11.681  0.00  0.00    +0.070 C 
ATOM     16  C   UNL     1      -2.972  -9.980  10.893  0.00  0.00    +0.028 C 
ATOM     17  C   UNL     1      -5.097  -9.938  12.238  0.00  0.00    +0.028 C 
ENDBRANCH   6  11
BRANCH   9  12
ATOM     12  C   UNL     1      -1.749 -10.068  13.987  0.00  0.00    +0.181 C 
BRANCH  12   2
ATOM      2  O   UNL     1      -1.463  -9.621  15.296  0.00  0.00    -0.393 OA
ATOM     28  H   UNL     1      -2.248  -9.145  15.616  0.00  0.00    +0.209 HD
ENDBRANCH  12   2
ENDBRANCH   9  12
ENDBRANCH  14  10
BRANCH  22   7
ATOM      4  O   UNL     1      -7.624 -12.217  20.131  0.00  0.00    -0.268 OA
ATOM      7  N   UNL     1      -8.089 -11.276  18.027  0.00  0.00    -0.280 N 
ATOM     23  C   UNL     1      -8.386 -11.674  19.337  0.00  0.00    +0.270 C 
ATOM     29  H   UNL     1      -8.842 -10.833  17.503  0.00  0.00    +0.155 HD
BRANCH  23  24
ATOM      5  O   UNL     1     -11.687 -11.701  20.739  0.00  0.00    -0.359 OA
ATOM      8  N   UNL     1     -10.461 -12.299  20.468  0.00  0.00    -0.073 NA
ATOM     24  C   UNL     1      -9.768 -11.376  19.797  0.00  0.00    +0.168 A 
ATOM     25  C   UNL     1     -10.497 -10.188  19.614  0.00  0.00    +0.080 A 
ATOM     26  C   UNL     1     -11.695 -10.445  20.225  0.00  0.00    +0.135 A 
ATOM     27  C   UNL     1     -12.924  -9.665  20.421  0.00  0.00    +0.089 C 
ENDBRANCH  23  24
ENDBRANCH  22   7
TORSDOF 6
ENDMDL
MODEL 8
REMARK VINA RESULT:      -6.2     15.408     19.038
REMARK  Name = 71693352
REMARK  9 active torsions:
REMARK  status: ('A' for Active; 'I' for Inactive)
REMARK    1  A    between atoms: O_2  and  C_12
REMARK    2  A    between atoms: N_6  and  C_11
REMARK    3  A    between atoms: N_7  and  C_22
REMARK    4  A    between atoms: C_9  and  C_12
REMARK    5  A    between atoms: C_10  and  C_14
REMARK    6  A    between atoms: C_11  and  C_16
REMARK    7  A    between atoms: C_11  and  C_17
REMARK    8  A    between atoms: C_23  and  C_24
REMARK    9  A    between atoms: C_26  and  C_27
REMARK                            x       y       z     vdW  Elec       q    Type
REMARK                         _______ _______ _______ _____ _____    ______ ____
ROOT
ATOM     14  C   UNL     1      11.751   6.745   4.006  0.00  0.00    -0.017 A 
ATOM     18  C   UNL     1      10.675   5.946   3.622  0.00  0.00    +0.008 A 
ATOM     19  C   UNL     1      12.809   6.963   3.124  0.00  0.00    +0.008 A 
ATOM     20  C   UNL     1      10.656   5.364   2.354  0.00  0.00    +0.023 A 
ATOM     21  C   UNL     1      12.791   6.380   1.856  0.00  0.00    +0.023 A 
ATOM     22  C   UNL     1      11.715   5.581   1.472  0.00  0.00    +0.034 A 
ENDROOT
BRANCH  14  10
ATOM      1  O   UNL     1      10.838   8.464   5.364  0.00  0.00    -0.361 OA
ATOM      3  O   UNL     1       8.431   7.882   7.724  0.00  0.00    -0.273 OA
ATOM      6  N   UNL     1      10.111   6.432   6.998  0.00  0.00    -0.289 N 
ATOM      9  C   UNL     1      11.482   6.327   6.490  0.00  0.00    +0.135 C 
ATOM     10  C   UNL     1      11.771   7.378   5.385  0.00  0.00    +0.171 C 
ATOM     13  C   UNL     1       9.513   7.678   7.178  0.00  0.00    +0.242 C 
ATOM     15  C   UNL     1      10.345   8.817   6.639  0.00  0.00    +0.256 C 
BRANCH   6  11
ATOM     11  C   UNL     1       9.445   5.213   7.434  0.00  0.00    +0.070 C 
ATOM     16  C   UNL     1       9.689   4.980   8.919  0.00  0.00    +0.028 C 
ATOM     17  C   UNL     1       9.911   4.023   6.604  0.00  0.00    +0.028 C 
ENDBRANCH   6  11
BRANCH   9  12
ATOM     12  C   UNL     1      12.495   6.437   7.638  0.00  0.00    +0.181 C 
BRANCH  12   2
ATOM      2  O   UNL     1      13.784   6.192   7.115  0.00  0.00    -0.393 OA
ATOM     28  H   UNL     1      14.056   5.310   7.419  0.00  0.00    +0.209 HD
ENDBRANCH  12   2
ENDBRANCH   9  12
ENDBRANCH  14  10
BRANCH  22   7
ATOM      4  O   UNL     1      12.983   3.050   0.484  0.00  0.00    -0.268 OA
ATOM      7  N   UNL     1      11.696   4.998   0.204  0.00  0.00    -0.280 N 
ATOM     23  C   UNL     1      12.309   3.807  -0.207  0.00  0.00    +0.270 C 
ATOM     29  H   UNL     1      11.166   5.506  -0.501  0.00  0.00    +0.155 HD
BRANCH  23  24
ATOM      5  O   UNL     1      11.009   2.765  -3.383  0.00  0.00    -0.359 OA
ATOM      8  N   UNL     1      10.871   3.034  -2.027  0.00  0.00    -0.073 NA
ATOM     24  C   UNL     1      12.082   3.431  -1.628  0.00  0.00    +0.168 A 
ATOM     25  C   UNL     1      13.017   3.431  -2.677  0.00  0.00    +0.080 A 
ATOM     26  C   UNL     1      12.292   3.004  -3.758  0.00  0.00    +0.135 A 
ATOM     27  C   UNL     1      12.617   2.769  -5.171  0.00  0.00    +0.089 C 
ENDBRANCH  23  24
ENDBRANCH  22   7
TORSDOF 6
ENDMDL
MODEL 9
REMARK VINA RESULT:      -6.2      2.117      9.330
REMARK  Name = 71693352
REMARK  9 active torsions:
REMARK  status: ('A' for Active; 'I' for Inactive)
REMARK    1  A    between atoms: O_2  and  C_12
REMARK    2  A    between atoms: N_6  and  C_11
REMARK    3  A    between atoms: N_7  and  C_22
REMARK    4  A    between atoms: C_9  and  C_12
REMARK    5  A    between atoms: C_10  and  C_14
REMARK    6  A    between atoms: C_11  and  C_16
REMARK    7  A    between atoms: C_11  and  C_17
REMARK    8  A    between atoms: C_23  and  C_24
REMARK    9  A    between atoms: C_26  and  C_27
REMARK                            x       y       z     vdW  Elec       q    Type
REMARK                         _______ _______ _______ _____ _____    ______ ____
ROOT
ATOM     14  C   UNL     1      20.086   7.224  21.587  0.00  0.00    -0.017 A 
ATOM     18  C   UNL     1      19.284   8.336  21.837  0.00  0.00    +0.008 A 
ATOM     19  C   UNL     1      19.630   6.209  20.745  0.00  0.00    +0.008 A 
ATOM     20  C   UNL     1      18.025   8.435  21.247  0.00  0.00    +0.023 A 
ATOM     21  C   UNL     1      18.369   6.307  20.155  0.00  0.00    +0.023 A 
ATOM     22  C   UNL     1      17.567   7.420  20.406  0.00  0.00    +0.034 A 
ENDROOT
BRANCH  14  10
ATOM      1  O   UNL     1      21.266   7.195  23.646  0.00  0.00    -0.361 OA
ATOM      3  O   UNL     1      22.446   4.316  25.068  0.00  0.00    -0.273 OA
ATOM      6  N   UNL     1      22.171   4.789  22.798  0.00  0.00    -0.289 N 
ATOM      9  C   UNL     1      22.195   5.832  21.768  0.00  0.00    +0.135 C 
ATOM     10  C   UNL     1      21.457   7.117  22.229  0.00  0.00    +0.171 C 
ATOM     13  C   UNL     1      22.313   5.117  24.145  0.00  0.00    +0.242 C 
ATOM     15  C   UNL     1      22.307   6.606  24.395  0.00  0.00    +0.256 C 
BRANCH   6  11
ATOM     11  C   UNL     1      22.130   3.400  22.366  0.00  0.00    +0.070 C 
ATOM     16  C   UNL     1      23.539   2.825  22.302  0.00  0.00    +0.028 C 
ATOM     17  C   UNL     1      21.422   3.276  21.023  0.00  0.00    +0.028 C 
ENDBRANCH   6  11
BRANCH   9  12
ATOM     12  C   UNL     1      23.638   6.143  21.346  0.00  0.00    +0.181 C 
BRANCH  12   2
ATOM      2  O   UNL     1      23.779   7.545  21.257  0.00  0.00    -0.393 OA
ATOM     28  H   UNL     1      24.009   7.869  22.145  0.00  0.00    +0.209 HD
ENDBRANCH  12   2
ENDBRANCH   9  12
ENDBRANCH  14  10
BRANCH  22   7
ATOM      4  O   UNL     1      14.907   6.396  21.336  0.00  0.00    -0.268 OA
ATOM      7  N   UNL     1      16.306   7.518  19.816  0.00  0.00    -0.280 N 
ATOM     23  C   UNL     1      15.087   7.020  20.295  0.00  0.00    +0.270 C 
ATOM     29  H   UNL     1      16.278   8.021  18.931  0.00  0.00    +0.155 HD
BRANCH  23  24
ATOM      5  O   UNL     1      11.884   7.144  18.688  0.00  0.00    -0.359 OA
ATOM      8  N   UNL     1      12.769   6.627  19.628  0.00  0.00    -0.073 NA
ATOM     24  C   UNL     1      13.902   7.312  19.448  0.00  0.00    +0.168 A 
ATOM     25  C   UNL     1      13.794   8.264  18.419  0.00  0.00    +0.080 A 
ATOM     26  C   UNL     1      12.507   8.117  17.975  0.00  0.00    +0.135 A 
ATOM     27  C   UNL     1      11.711   8.775  16.930  0.00  0.00    +0.089 C 
ENDBRANCH  23  24
ENDBRANCH  22   7
TORSDOF 6
ENDMDL
MODEL 10
REMARK VINA RESULT:      -6.1     29.583     32.174
REMARK  Name = 71693352
REMARK  9 active torsions:
REMARK  status: ('A' for Active; 'I' for Inactive)
REMARK    1  A    between atoms: O_2  and  C_12
REMARK    2  A    between atoms: N_6  and  C_11
REMARK    3  A    between atoms: N_7  and  C_22
REMARK    4  A    between atoms: C_9  and  C_12
REMARK    5  A    between atoms: C_10  and  C_14
REMARK    6  A    between atoms: C_11  and  C_16
REMARK    7  A    between atoms: C_11  and  C_17
REMARK    8  A    between atoms: C_23  and  C_24
REMARK    9  A    between atoms: C_26  and  C_27
REMARK                            x       y       z     vdW  Elec       q    Type
REMARK                         _______ _______ _______ _____ _____    ______ ____
ROOT
ATOM     14  C   UNL     1     -13.008   7.195  21.253  0.00  0.00    -0.017 A 
ATOM     18  C   UNL     1     -14.141   7.606  21.955  0.00  0.00    +0.008 A 
ATOM     19  C   UNL     1     -12.450   5.941  21.501  0.00  0.00    +0.008 A 
ATOM     20  C   UNL     1     -14.716   6.763  22.905  0.00  0.00    +0.023 A 
ATOM     21  C   UNL     1     -13.025   5.098  22.453  0.00  0.00    +0.023 A 
ATOM     22  C   UNL     1     -14.157   5.509  23.155  0.00  0.00    +0.034 A 
ENDROOT
BRANCH  14  10
ATOM      1  O   UNL     1     -11.942   7.288  19.135  0.00  0.00    -0.361 OA
ATOM      3  O   UNL     1     -13.560   8.271  16.285  0.00  0.00    -0.273 OA
ATOM      6  N   UNL     1     -13.963   8.963  18.478  0.00  0.00    -0.289 N 
ATOM      9  C   UNL     1     -13.369   9.232  19.792  0.00  0.00    +0.135 C 
ATOM     10  C   UNL     1     -12.383   8.112  20.219  0.00  0.00    +0.171 C 
ATOM     13  C   UNL     1     -13.201   8.406  17.454  0.00  0.00    +0.242 C 
ATOM     15  C   UNL     1     -11.828   7.974  17.906  0.00  0.00    +0.256 C 
BRANCH   6  11
ATOM     11  C   UNL     1     -15.325   9.418  18.236  0.00  0.00    +0.070 C 
ATOM     16  C   UNL     1     -15.396  10.937  18.306  0.00  0.00    +0.028 C 
ATOM     17  C   UNL     1     -16.288   8.774  19.225  0.00  0.00    +0.028 C 
ENDBRANCH   6  11
BRANCH   9  12
ATOM     12  C   UNL     1     -12.687  10.607  19.806  0.00  0.00    +0.181 C 
BRANCH  12   2
ATOM      2  O   UNL     1     -11.314  10.416  20.078  0.00  0.00    -0.393 OA
ATOM     28  H   UNL     1     -10.818  11.019  19.499  0.00  0.00    +0.209 HD
ENDBRANCH  12   2
ENDBRANCH   9  12
ENDBRANCH  14  10
BRANCH  22   7
ATOM      4  O   UNL     1     -16.122   3.268  22.825  0.00  0.00    -0.268 OA
ATOM      7  N   UNL     1     -14.732   4.666  24.107  0.00  0.00    -0.280 N 
ATOM     23  C   UNL     1     -15.650   3.628  23.899  0.00  0.00    +0.270 C 
ATOM     29  H   UNL     1     -14.438   4.830  25.068  0.00  0.00    +0.155 HD
BRANCH  23  24
ATOM      5  O   UNL     1     -16.724   1.223  26.332  0.00  0.00    -0.359 OA
ATOM      8  N   UNL     1     -16.405   1.598  25.032  0.00  0.00    -0.073 NA
ATOM     24  C   UNL     1     -16.059   2.885  25.120  0.00  0.00    +0.168 A 
ATOM     25  C   UNL     1     -16.142   3.373  26.436  0.00  0.00    +0.080 A 
ATOM     26  C   UNL     1     -16.565   2.288  27.157  0.00  0.00    +0.135 A 
ATOM     27  C   UNL     1     -16.863   2.067  28.579  0.00  0.00    +0.089 C 
ENDBRANCH  23  24
ENDBRANCH  22   7
TORSDOF 6
ENDMDL
