MODEL 1
REMARK VINA RESULT:      -7.1      0.000      0.000
REMARK  Name = 75536609
REMARK  8 active torsions:
REMARK  status: ('A' for Active; 'I' for Inactive)
REMARK    1  A    between atoms: O_3  and  C_9
REMARK    2  A    between atoms: N_5  and  C_8
REMARK    3  A    between atoms: N_5  and  C_13
REMARK    4  A    between atoms: N_6  and  C_12
REMARK    5  A    between atoms: C_10  and  C_12
REMARK    6  A    between atoms: C_13  and  C_14
REMARK    7  A    between atoms: C_15  and  C_18
REMARK    8  A    between atoms: C_19  and  C_25
REMARK                            x       y       z     vdW  Elec       q    Type
REMARK                         _______ _______ _______ _____ _____    ______ ____
ROOT
ATOM      2  O   UNL     1      11.721   9.946  20.789  0.00  0.00    -0.371 OA
ATOM      8  C   UNL     1      12.400   7.832  19.947  0.00  0.00    +0.111 C 
ATOM      9  C   UNL     1      11.684   7.631  21.269  0.00  0.00    +0.164 C 
ATOM     10  C   UNL     1      10.893   8.927  21.375  0.00  0.00    +0.165 C 
ATOM     11  C   UNL     1      12.753   9.309  20.017  0.00  0.00    +0.181 C 
ENDROOT
BRANCH   9   3
ATOM      3  O   UNL     1      10.840   6.496  21.265  0.00  0.00    -0.388 OA
ATOM     27  H   UNL     1      11.113   5.910  21.991  0.00  0.00    +0.210 HD
ENDBRANCH   9   3
BRANCH   8   5
ATOM      5  N   UNL     1      13.565   6.979  19.778  0.00  0.00    -0.305 NA
ATOM     26  H   UNL     1      14.025   7.213  18.897  0.00  0.00    +0.123 HD
BRANCH   5  13
ATOM     13  C   UNL     1      14.514   7.163  20.869  0.00  0.00    +0.116 C 
BRANCH  13  14
ATOM     14  C   UNL     1      15.902   6.723  20.485  0.00  0.00    -0.032 A 
ATOM     16  C   UNL     1      16.954   6.857  21.391  0.00  0.00    +0.023 A 
ATOM     17  C   UNL     1      16.135   6.179  19.221  0.00  0.00    +0.005 A 
ATOM     19  C   UNL     1      18.239   6.448  21.034  0.00  0.00    +0.052 A 
ATOM     20  C   UNL     1      17.419   5.770  18.864  0.00  0.00    +0.002 A 
ATOM     21  C   UNL     1      18.471   5.904  19.770  0.00  0.00    +0.019 A 
BRANCH  19  25
ATOM      7  N   UNL     1      20.193   6.695  22.715  0.00  0.00    -0.191 NA
ATOM     25  C   UNL     1      19.317   6.584  21.961  0.00  0.00    +0.099 C 
ENDBRANCH  19  25
ENDBRANCH  13  14
ENDBRANCH   5  13
ENDBRANCH   8   5
BRANCH  10  12
ATOM     12  C   UNL     1      10.547   9.304  22.804  0.00  0.00    +0.138 C 
BRANCH  12   6
ATOM      4  O   UNL     1      11.170  10.816  25.164  0.00  0.00    -0.270 OA
ATOM      6  N   UNL     1      10.450  10.727  22.960  0.00  0.00    -0.308 N 
ATOM     15  C   UNL     1      10.774  11.378  24.147  0.00  0.00    +0.251 C 
ATOM     28  H   UNL     1      10.115  11.256  22.163  0.00  0.00    +0.149 HD
BRANCH  15  18
ATOM      1  S   UNL     1      10.778  13.706  25.629  0.00  0.00    -0.092 S 
ATOM     18  C   UNL     1      10.595  12.853  24.156  0.00  0.00    +0.074 A 
ATOM     22  C   UNL     1      10.288  13.692  23.107  0.00  0.00    +0.021 A 
ATOM     23  C   UNL     1      10.201  15.053  23.520  0.00  0.00    +0.008 A 
ATOM     24  C   UNL     1      10.446  15.203  24.867  0.00  0.00    +0.046 A 
ENDBRANCH  15  18
ENDBRANCH  12   6
ENDBRANCH  10  12
TORSDOF 8
ENDMDL
MODEL 2
REMARK VINA RESULT:      -6.8      2.256      2.676
REMARK  Name = 75536609
REMARK  8 active torsions:
REMARK  status: ('A' for Active; 'I' for Inactive)
REMARK    1  A    between atoms: O_3  and  C_9
REMARK    2  A    between atoms: N_5  and  C_8
REMARK    3  A    between atoms: N_5  and  C_13
REMARK    4  A    between atoms: N_6  and  C_12
REMARK    5  A    between atoms: C_10  and  C_12
REMARK    6  A    between atoms: C_13  and  C_14
REMARK    7  A    between atoms: C_15  and  C_18
REMARK    8  A    between atoms: C_19  and  C_25
REMARK                            x       y       z     vdW  Elec       q    Type
REMARK                         _______ _______ _______ _____ _____    ______ ____
ROOT
ATOM      2  O   UNL     1      12.147   8.823  19.904  0.00  0.00    -0.371 OA
ATOM      8  C   UNL     1      13.390   6.814  20.142  0.00  0.00    +0.111 C 
ATOM      9  C   UNL     1      12.438   6.948  21.316  0.00  0.00    +0.164 C 
ATOM     10  C   UNL     1      11.414   7.923  20.753  0.00  0.00    +0.165 C 
ATOM     11  C   UNL     1      13.432   8.241  19.624  0.00  0.00    +0.181 C 
ENDROOT
BRANCH   9   3
ATOM      3  O   UNL     1      11.848   5.716  21.684  0.00  0.00    -0.388 OA
ATOM     27  H   UNL     1      10.995   5.903  22.113  0.00  0.00    +0.210 HD
ENDBRANCH   9   3
BRANCH   8   5
ATOM      5  N   UNL     1      14.702   6.306  20.510  0.00  0.00    -0.305 NA
ATOM     26  H   UNL     1      14.646   5.295  20.636  0.00  0.00    +0.123 HD
BRANCH   5  13
ATOM     13  C   UNL     1      15.688   6.599  19.475  0.00  0.00    +0.116 C 
BRANCH  13  14
ATOM     14  C   UNL     1      17.061   6.816  20.055  0.00  0.00    -0.032 A 
ATOM     16  C   UNL     1      17.340   7.976  20.775  0.00  0.00    +0.023 A 
ATOM     17  C   UNL     1      18.053   5.852  19.871  0.00  0.00    +0.005 A 
ATOM     19  C   UNL     1      18.612   8.175  21.312  0.00  0.00    +0.052 A 
ATOM     20  C   UNL     1      19.325   6.051  20.408  0.00  0.00    +0.002 A 
ATOM     21  C   UNL     1      19.605   7.212  21.128  0.00  0.00    +0.019 A 
BRANCH  19  25
ATOM      7  N   UNL     1      19.132  10.330  22.650  0.00  0.00    -0.191 NA
ATOM     25  C   UNL     1      18.900   9.364  22.050  0.00  0.00    +0.099 C 
ENDBRANCH  19  25
ENDBRANCH  13  14
ENDBRANCH   5  13
ENDBRANCH   8   5
BRANCH  10  12
ATOM     12  C   UNL     1      10.680   8.709  21.824  0.00  0.00    +0.138 C 
BRANCH  12   6
ATOM      4  O   UNL     1      11.129  11.534  22.069  0.00  0.00    -0.270 OA
ATOM      6  N   UNL     1      11.598   9.356  22.718  0.00  0.00    -0.308 N 
ATOM     15  C   UNL     1      11.751  10.739  22.768  0.00  0.00    +0.251 C 
ATOM     28  H   UNL     1      12.157   8.759  23.316  0.00  0.00    +0.149 HD
BRANCH  15  18
ATOM      1  S   UNL     1      14.424  11.100  23.349  0.00  0.00    -0.092 S 
ATOM     18  C   UNL     1      12.762  11.252  23.728  0.00  0.00    +0.074 A 
ATOM     22  C   UNL     1      12.563  11.867  24.945  0.00  0.00    +0.021 A 
ATOM     23  C   UNL     1      13.793  12.217  25.574  0.00  0.00    +0.008 A 
ATOM     24  C   UNL     1      14.884  11.857  24.815  0.00  0.00    +0.046 A 
ENDBRANCH  15  18
ENDBRANCH  12   6
ENDBRANCH  10  12
TORSDOF 8
ENDMDL
MODEL 3
REMARK VINA RESULT:      -6.4     27.811     29.404
REMARK  Name = 75536609
REMARK  8 active torsions:
REMARK  status: ('A' for Active; 'I' for Inactive)
REMARK    1  A    between atoms: O_3  and  C_9
REMARK    2  A    between atoms: N_5  and  C_8
REMARK    3  A    between atoms: N_5  and  C_13
REMARK    4  A    between atoms: N_6  and  C_12
REMARK    5  A    between atoms: C_10  and  C_12
REMARK    6  A    between atoms: C_13  and  C_14
REMARK    7  A    between atoms: C_15  and  C_18
REMARK    8  A    between atoms: C_19  and  C_25
REMARK                            x       y       z     vdW  Elec       q    Type
REMARK                         _______ _______ _______ _____ _____    ______ ____
ROOT
ATOM      2  O   UNL     1     -11.426  -8.189  14.293  0.00  0.00    -0.371 OA
ATOM      8  C   UNL     1      -9.625  -8.736  15.741  0.00  0.00    +0.111 C 
ATOM      9  C   UNL     1     -10.087  -7.322  16.040  0.00  0.00    +0.164 C 
ATOM     10  C   UNL     1     -11.492  -7.342  15.454  0.00  0.00    +0.165 C 
ATOM     11  C   UNL     1     -10.214  -8.960  14.358  0.00  0.00    +0.181 C 
ENDROOT
BRANCH   9   3
ATOM      3  O   UNL     1     -10.097  -7.031  17.423  0.00  0.00    -0.388 OA
ATOM     27  H   UNL     1     -10.770  -6.349  17.587  0.00  0.00    +0.210 HD
ENDBRANCH   9   3
BRANCH   8   5
ATOM      5  N   UNL     1      -8.181  -8.898  15.774  0.00  0.00    -0.305 NA
ATOM     26  H   UNL     1      -7.741  -7.982  15.681  0.00  0.00    +0.123 HD
BRANCH   5  13
ATOM     13  C   UNL     1      -7.748  -9.503  17.029  0.00  0.00    +0.116 C 
BRANCH  13  14
ATOM     14  C   UNL     1      -6.347 -10.046  16.935  0.00  0.00    -0.032 A 
ATOM     16  C   UNL     1      -5.770 -10.686  18.032  0.00  0.00    +0.023 A 
ATOM     17  C   UNL     1      -5.626  -9.909  15.748  0.00  0.00    +0.005 A 
ATOM     19  C   UNL     1      -4.472 -11.189  17.943  0.00  0.00    +0.052 A 
ATOM     20  C   UNL     1      -4.328 -10.412  15.660  0.00  0.00    +0.002 A 
ATOM     21  C   UNL     1      -3.751 -11.052  16.757  0.00  0.00    +0.019 A 
BRANCH  19  25
ATOM      7  N   UNL     1      -3.400 -12.377  19.979  0.00  0.00    -0.191 NA
ATOM     25  C   UNL     1      -3.881 -11.845  19.066  0.00  0.00    +0.099 C 
ENDBRANCH  19  25
ENDBRANCH  13  14
ENDBRANCH   5  13
ENDBRANCH   8   5
BRANCH  10  12
ATOM     12  C   UNL     1     -11.998  -5.967  15.059  0.00  0.00    +0.138 C 
BRANCH  12   6
ATOM      4  O   UNL     1     -13.264  -3.920  13.495  0.00  0.00    -0.270 OA
ATOM      6  N   UNL     1     -11.817  -5.726  13.656  0.00  0.00    -0.308 N 
ATOM     15  C   UNL     1     -12.476  -4.705  12.977  0.00  0.00    +0.251 C 
ATOM     28  H   UNL     1     -11.189  -6.348  13.160  0.00  0.00    +0.149 HD
BRANCH  15  18
ATOM      1  S   UNL     1     -12.219  -6.026  10.567  0.00  0.00    -0.092 S 
ATOM     18  C   UNL     1     -12.201  -4.603  11.520  0.00  0.00    +0.074 A 
ATOM     22  C   UNL     1     -11.917  -3.483  10.771  0.00  0.00    +0.021 A 
ATOM     23  C   UNL     1     -11.712  -3.797   9.396  0.00  0.00    +0.008 A 
ATOM     24  C   UNL     1     -11.847  -5.145   9.147  0.00  0.00    +0.046 A 
ENDBRANCH  15  18
ENDBRANCH  12   6
ENDBRANCH  10  12
TORSDOF 8
ENDMDL
MODEL 4
REMARK VINA RESULT:      -6.2     26.552     29.682
REMARK  Name = 75536609
REMARK  8 active torsions:
REMARK  status: ('A' for Active; 'I' for Inactive)
REMARK    1  A    between atoms: O_3  and  C_9
REMARK    2  A    between atoms: N_5  and  C_8
REMARK    3  A    between atoms: N_5  and  C_13
REMARK    4  A    between atoms: N_6  and  C_12
REMARK    5  A    between atoms: C_10  and  C_12
REMARK    6  A    between atoms: C_13  and  C_14
REMARK    7  A    between atoms: C_15  and  C_18
REMARK    8  A    between atoms: C_19  and  C_25
REMARK                            x       y       z     vdW  Elec       q    Type
REMARK                         _______ _______ _______ _____ _____    ______ ____
ROOT
ATOM      2  O   UNL     1     -17.634   5.660  25.104  0.00  0.00    -0.371 OA
ATOM      8  C   UNL     1     -16.498   3.881  26.192  0.00  0.00    +0.111 C 
ATOM      9  C   UNL     1     -16.050   3.942  24.744  0.00  0.00    +0.164 C 
ATOM     10  C   UNL     1     -16.427   5.371  24.380  0.00  0.00    +0.165 C 
ATOM     11  C   UNL     1     -17.792   4.676  26.141  0.00  0.00    +0.181 C 
ENDROOT
BRANCH   9   3
ATOM      3  O   UNL     1     -14.664   3.706  24.591  0.00  0.00    -0.388 OA
ATOM     27  H   UNL     1     -14.444   3.782  23.646  0.00  0.00    +0.210 HD
ENDBRANCH   9   3
BRANCH   8   5
ATOM      5  N   UNL     1     -16.684   2.528  26.690  0.00  0.00    -0.305 NA
ATOM     26  H   UNL     1     -15.822   2.000  26.549  0.00  0.00    +0.123 HD
BRANCH   5  13
ATOM     13  C   UNL     1     -17.008   2.531  28.112  0.00  0.00    +0.116 C 
BRANCH  13  14
ATOM     14  C   UNL     1     -15.887   1.965  28.944  0.00  0.00    -0.032 A 
ATOM     16  C   UNL     1     -15.091   2.813  29.714  0.00  0.00    +0.023 A 
ATOM     17  C   UNL     1     -15.647   0.591  28.944  0.00  0.00    +0.005 A 
ATOM     19  C   UNL     1     -14.054   2.287  30.484  0.00  0.00    +0.052 A 
ATOM     20  C   UNL     1     -14.610   0.065  29.714  0.00  0.00    +0.002 A 
ATOM     21  C   UNL     1     -13.814   0.913  30.484  0.00  0.00    +0.019 A 
BRANCH  19  25
ATOM      7  N   UNL     1     -12.576   3.860  31.915  0.00  0.00    -0.191 NA
ATOM     25  C   UNL     1     -13.239   3.154  31.274  0.00  0.00    +0.099 C 
ENDBRANCH  19  25
ENDBRANCH  13  14
ENDBRANCH   5  13
ENDBRANCH   8   5
BRANCH  10  12
ATOM     12  C   UNL     1     -16.659   5.570  22.893  0.00  0.00    +0.138 C 
BRANCH  12   6
ATOM      4  O   UNL     1     -14.199   4.553  21.820  0.00  0.00    -0.270 OA
ATOM      6  N   UNL     1     -15.603   6.337  22.297  0.00  0.00    -0.308 N 
ATOM     15  C   UNL     1     -14.439   5.756  21.801  0.00  0.00    +0.251 C 
ATOM     28  H   UNL     1     -15.728   7.342  22.261  0.00  0.00    +0.149 HD
BRANCH  15  18
ATOM      1  S   UNL     1     -13.894   8.295  20.866  0.00  0.00    -0.092 S 
ATOM     18  C   UNL     1     -13.429   6.690  21.239  0.00  0.00    +0.074 A 
ATOM     22  C   UNL     1     -12.101   6.457  20.954  0.00  0.00    +0.021 A 
ATOM     23  C   UNL     1     -11.458   7.612  20.422  0.00  0.00    +0.008 A 
ATOM     24  C   UNL     1     -12.318   8.684  20.321  0.00  0.00    +0.046 A 
ENDBRANCH  15  18
ENDBRANCH  12   6
ENDBRANCH  10  12
TORSDOF 8
ENDMDL
MODEL 5
REMARK VINA RESULT:      -6.2     17.953     21.074
REMARK  Name = 75536609
REMARK  8 active torsions:
REMARK  status: ('A' for Active; 'I' for Inactive)
REMARK    1  A    between atoms: O_3  and  C_9
REMARK    2  A    between atoms: N_5  and  C_8
REMARK    3  A    between atoms: N_5  and  C_13
REMARK    4  A    between atoms: N_6  and  C_12
REMARK    5  A    between atoms: C_10  and  C_12
REMARK    6  A    between atoms: C_13  and  C_14
REMARK    7  A    between atoms: C_15  and  C_18
REMARK    8  A    between atoms: C_19  and  C_25
REMARK                            x       y       z     vdW  Elec       q    Type
REMARK                         _______ _______ _______ _____ _____    ______ ____
ROOT
ATOM      2  O   UNL     1      13.384   7.489   3.040  0.00  0.00    -0.371 OA
ATOM      8  C   UNL     1      11.645   5.982   3.626  0.00  0.00    +0.111 C 
ATOM      9  C   UNL     1      12.328   5.483   2.366  0.00  0.00    +0.164 C 
ATOM     10  C   UNL     1      13.663   6.208   2.449  0.00  0.00    +0.165 C 
ATOM     11  C   UNL     1      12.083   7.436   3.650  0.00  0.00    +0.181 C 
ENDROOT
BRANCH   9   3
ATOM      3  O   UNL     1      12.489   4.078   2.351  0.00  0.00    -0.388 OA
ATOM     27  H   UNL     1      13.107   3.835   3.062  0.00  0.00    +0.210 HD
ENDBRANCH   9   3
BRANCH   8   5
ATOM      5  N   UNL     1      10.200   5.826   3.608  0.00  0.00    -0.305 NA
ATOM     26  H   UNL     1       9.914   5.471   2.695  0.00  0.00    +0.123 HD
BRANCH   5  13
ATOM     13  C   UNL     1       9.759   4.891   4.637  0.00  0.00    +0.116 C 
BRANCH  13  14
ATOM     14  C   UNL     1       9.440   5.592   5.931  0.00  0.00    -0.032 A 
ATOM     16  C   UNL     1       9.766   4.995   7.148  0.00  0.00    +0.023 A 
ATOM     17  C   UNL     1       8.818   6.841   5.911  0.00  0.00    +0.005 A 
ATOM     19  C   UNL     1       9.471   5.645   8.346  0.00  0.00    +0.052 A 
ATOM     20  C   UNL     1       8.522   7.491   7.109  0.00  0.00    +0.002 A 
ATOM     21  C   UNL     1       8.849   6.894   8.326  0.00  0.00    +0.019 A 
BRANCH  19  25
ATOM      7  N   UNL     1      10.076   4.539  10.608  0.00  0.00    -0.191 NA
ATOM     25  C   UNL     1       9.805   5.035   9.594  0.00  0.00    +0.099 C 
ENDBRANCH  19  25
ENDBRANCH  13  14
ENDBRANCH   5  13
ENDBRANCH   8   5
BRANCH  10  12
ATOM     12  C   UNL     1      14.329   6.399   1.098  0.00  0.00    +0.138 C 
BRANCH  12   6
ATOM      4  O   UNL     1      15.353   4.032  -0.163  0.00  0.00    -0.270 OA
ATOM      6  N   UNL     1      13.680   5.621   0.082  0.00  0.00    -0.308 N 
ATOM     15  C   UNL     1      14.255   4.482  -0.476  0.00  0.00    +0.251 C 
ATOM     28  H   UNL     1      12.774   5.944  -0.237  0.00  0.00    +0.149 HD
BRANCH  15  18
ATOM      1  S   UNL     1      13.683   4.278  -3.168  0.00  0.00    -0.092 S 
ATOM     18  C   UNL     1      13.467   3.803  -1.537  0.00  0.00    +0.074 A 
ATOM     22  C   UNL     1      12.537   2.794  -1.411  0.00  0.00    +0.021 A 
ATOM     23  C   UNL     1      11.995   2.406  -2.670  0.00  0.00    +0.008 A 
ATOM     24  C   UNL     1      12.531   3.133  -3.711  0.00  0.00    +0.046 A 
ENDBRANCH  15  18
ENDBRANCH  12   6
ENDBRANCH  10  12
TORSDOF 8
ENDMDL
MODEL 6
REMARK VINA RESULT:      -6.2      3.688      7.430
REMARK  Name = 75536609
REMARK  8 active torsions:
REMARK  status: ('A' for Active; 'I' for Inactive)
REMARK    1  A    between atoms: O_3  and  C_9
REMARK    2  A    between atoms: N_5  and  C_8
REMARK    3  A    between atoms: N_5  and  C_13
REMARK    4  A    between atoms: N_6  and  C_12
REMARK    5  A    between atoms: C_10  and  C_12
REMARK    6  A    between atoms: C_13  and  C_14
REMARK    7  A    between atoms: C_15  and  C_18
REMARK    8  A    between atoms: C_19  and  C_25
REMARK                            x       y       z     vdW  Elec       q    Type
REMARK                         _______ _______ _______ _____ _____    ______ ____
ROOT
ATOM      2  O   UNL     1      14.718  13.668  22.378  0.00  0.00    -0.371 OA
ATOM      8  C   UNL     1      13.170  12.287  23.534  0.00  0.00    +0.111 C 
ATOM      9  C   UNL     1      14.344  11.440  23.079  0.00  0.00    +0.164 C 
ATOM     10  C   UNL     1      15.410  12.506  22.866  0.00  0.00    +0.165 C 
ATOM     11  C   UNL     1      13.313  13.506  22.639  0.00  0.00    +0.181 C 
ENDROOT
BRANCH   9   3
ATOM      3  O   UNL     1      14.738  10.486  24.045  0.00  0.00    -0.388 OA
ATOM     27  H   UNL     1      14.144   9.719  23.975  0.00  0.00    +0.210 HD
ENDBRANCH   9   3
BRANCH   8   5
ATOM      5  N   UNL     1      11.884  11.626  23.391  0.00  0.00    -0.305 NA
ATOM     26  H   UNL     1      11.165  12.192  23.843  0.00  0.00    +0.123 HD
BRANCH   5  13
ATOM     13  C   UNL     1      11.534  11.455  21.985  0.00  0.00    +0.116 C 
BRANCH  13  14
ATOM     14  C   UNL     1      11.360  10.004  21.623  0.00  0.00    -0.032 A 
ATOM     16  C   UNL     1      11.699   9.556  20.347  0.00  0.00    +0.023 A 
ATOM     17  C   UNL     1      10.859   9.107  22.568  0.00  0.00    +0.005 A 
ATOM     19  C   UNL     1      11.538   8.211  20.014  0.00  0.00    +0.052 A 
ATOM     20  C   UNL     1      10.698   7.762  22.234  0.00  0.00    +0.002 A 
ATOM     21  C   UNL     1      11.038   7.314  20.958  0.00  0.00    +0.019 A 
BRANCH  19  25
ATOM      7  N   UNL     1      12.168   7.377  17.645  0.00  0.00    -0.191 NA
ATOM     25  C   UNL     1      11.886   7.751  18.707  0.00  0.00    +0.099 C 
ENDBRANCH  19  25
ENDBRANCH  13  14
ENDBRANCH   5  13
ENDBRANCH   8   5
BRANCH  10  12
ATOM     12  C   UNL     1      16.483  12.093  21.875  0.00  0.00    +0.138 C 
BRANCH  12   6
ATOM      4  O   UNL     1      18.104   9.725  21.955  0.00  0.00    -0.270 OA
ATOM      6  N   UNL     1      16.179  10.827  21.273  0.00  0.00    -0.308 N 
ATOM     15  C   UNL     1      17.029   9.727  21.363  0.00  0.00    +0.251 C 
ATOM     28  H   UNL     1      15.312  10.760  20.754  0.00  0.00    +0.149 HD
BRANCH  15  18
ATOM      1  S   UNL     1      17.661   7.171  20.538  0.00  0.00    -0.092 S 
ATOM     18  C   UNL     1      16.583   8.495  20.662  0.00  0.00    +0.074 A 
ATOM     22  C   UNL     1      15.371   8.233  20.062  0.00  0.00    +0.021 A 
ATOM     23  C   UNL     1      15.327   6.928  19.493  0.00  0.00    +0.008 A 
ATOM     24  C   UNL     1      16.507   6.242  19.679  0.00  0.00    +0.046 A 
ENDBRANCH  15  18
ENDBRANCH  12   6
ENDBRANCH  10  12
TORSDOF 8
ENDMDL
MODEL 7
REMARK VINA RESULT:      -6.2     26.802     29.762
REMARK  Name = 75536609
REMARK  8 active torsions:
REMARK  status: ('A' for Active; 'I' for Inactive)
REMARK    1  A    between atoms: O_3  and  C_9
REMARK    2  A    between atoms: N_5  and  C_8
REMARK    3  A    between atoms: N_5  and  C_13
REMARK    4  A    between atoms: N_6  and  C_12
REMARK    5  A    between atoms: C_10  and  C_12
REMARK    6  A    between atoms: C_13  and  C_14
REMARK    7  A    between atoms: C_15  and  C_18
REMARK    8  A    between atoms: C_19  and  C_25
REMARK                            x       y       z     vdW  Elec       q    Type
REMARK                         _______ _______ _______ _____ _____    ______ ____
ROOT
ATOM      2  O   UNL     1     -18.005   4.945  24.970  0.00  0.00    -0.371 OA
ATOM      8  C   UNL     1     -15.890   4.617  23.942  0.00  0.00    +0.111 C 
ATOM      9  C   UNL     1     -16.087   3.562  25.014  0.00  0.00    +0.164 C 
ATOM     10  C   UNL     1     -17.601   3.579  25.168  0.00  0.00    +0.165 C 
ATOM     11  C   UNL     1     -16.921   5.656  24.349  0.00  0.00    +0.181 C 
ENDROOT
BRANCH   9   3
ATOM      3  O   UNL     1     -15.611   2.289  24.623  0.00  0.00    -0.388 OA
ATOM     27  H   UNL     1     -15.849   2.147  23.691  0.00  0.00    +0.210 HD
ENDBRANCH   9   3
BRANCH   8   5
ATOM      5  N   UNL     1     -14.539   5.150  23.889  0.00  0.00    -0.305 NA
ATOM     26  H   UNL     1     -13.976   4.706  24.615  0.00  0.00    +0.123 HD
BRANCH   5  13
ATOM     13  C   UNL     1     -13.923   4.894  22.592  0.00  0.00    +0.116 C 
BRANCH  13  14
ATOM     14  C   UNL     1     -13.411   6.159  21.954  0.00  0.00    -0.032 A 
ATOM     16  C   UNL     1     -14.157   7.334  22.035  0.00  0.00    +0.023 A 
ATOM     17  C   UNL     1     -12.188   6.154  21.283  0.00  0.00    +0.005 A 
ATOM     19  C   UNL     1     -13.682   8.505  21.446  0.00  0.00    +0.052 A 
ATOM     20  C   UNL     1     -11.712   7.325  20.693  0.00  0.00    +0.002 A 
ATOM     21  C   UNL     1     -12.459   8.500  20.774  0.00  0.00    +0.019 A 
BRANCH  19  25
ATOM      7  N   UNL     1     -15.066  10.688  21.594  0.00  0.00    -0.191 NA
ATOM     25  C   UNL     1     -14.446   9.709  21.528  0.00  0.00    +0.099 C 
ENDBRANCH  19  25
ENDBRANCH  13  14
ENDBRANCH   5  13
ENDBRANCH   8   5
BRANCH  10  12
ATOM     12  C   UNL     1     -18.072   3.096  26.528  0.00  0.00    +0.138 C 
BRANCH  12   6
ATOM      4  O   UNL     1     -17.445   0.664  27.919  0.00  0.00    -0.270 OA
ATOM      6  N   UNL     1     -16.967   2.878  27.417  0.00  0.00    -0.308 N 
ATOM     15  C   UNL     1     -16.740   1.660  28.052  0.00  0.00    +0.251 C 
ATOM     28  H   UNL     1     -16.350   3.664  27.585  0.00  0.00    +0.149 HD
BRANCH  15  18
ATOM      1  S   UNL     1     -14.911   3.066  29.566  0.00  0.00    -0.092 S 
ATOM     18  C   UNL     1     -15.568   1.604  28.963  0.00  0.00    +0.074 A 
ATOM     22  C   UNL     1     -14.886   0.500  29.426  0.00  0.00    +0.021 A 
ATOM     23  C   UNL     1     -13.810   0.860  30.288  0.00  0.00    +0.008 A 
ATOM     24  C   UNL     1     -13.710   2.225  30.451  0.00  0.00    +0.046 A 
ENDBRANCH  15  18
ENDBRANCH  12   6
ENDBRANCH  10  12
TORSDOF 8
ENDMDL
MODEL 8
REMARK VINA RESULT:      -6.2     26.975     30.119
REMARK  Name = 75536609
REMARK  8 active torsions:
REMARK  status: ('A' for Active; 'I' for Inactive)
REMARK    1  A    between atoms: O_3  and  C_9
REMARK    2  A    between atoms: N_5  and  C_8
REMARK    3  A    between atoms: N_5  and  C_13
REMARK    4  A    between atoms: N_6  and  C_12
REMARK    5  A    between atoms: C_10  and  C_12
REMARK    6  A    between atoms: C_13  and  C_14
REMARK    7  A    between atoms: C_15  and  C_18
REMARK    8  A    between atoms: C_19  and  C_25
REMARK                            x       y       z     vdW  Elec       q    Type
REMARK                         _______ _______ _______ _____ _____    ______ ____
ROOT
ATOM      2  O   UNL     1      -8.866 -10.328  18.322  0.00  0.00    -0.371 OA
ATOM      8  C   UNL     1      -9.276  -8.967  16.419  0.00  0.00    +0.111 C 
ATOM      9  C   UNL     1      -7.782  -9.204  16.546  0.00  0.00    +0.164 C 
ATOM     10  C   UNL     1      -7.755 -10.451  17.417  0.00  0.00    +0.165 C 
ATOM     11  C   UNL     1      -9.755  -9.316  17.819  0.00  0.00    +0.181 C 
ENDROOT
BRANCH   9   3
ATOM      3  O   UNL     1      -7.156  -9.419  15.296  0.00  0.00    -0.388 OA
ATOM     27  H   UNL     1      -7.090  -8.565  14.837  0.00  0.00    +0.210 HD
ENDBRANCH   9   3
BRANCH   8   5
ATOM      5  N   UNL     1      -9.620  -7.611  16.025  0.00  0.00    -0.305 NA
ATOM     26  H   UNL     1      -9.862  -7.604  15.033  0.00  0.00    +0.123 HD
BRANCH   5  13
ATOM     13  C   UNL     1     -10.757  -7.113  16.791  0.00  0.00    +0.116 C 
BRANCH  13  14
ATOM     14  C   UNL     1     -11.911  -6.734  15.901  0.00  0.00    -0.032 A 
ATOM     16  C   UNL     1     -11.774  -5.691  14.985  0.00  0.00    +0.023 A 
ATOM     17  C   UNL     1     -13.117  -7.430  15.992  0.00  0.00    +0.005 A 
ATOM     19  C   UNL     1     -12.844  -5.342  14.160  0.00  0.00    +0.052 A 
ATOM     20  C   UNL     1     -14.186  -7.081  15.167  0.00  0.00    +0.002 A 
ATOM     21  C   UNL     1     -14.050  -6.038  14.252  0.00  0.00    +0.019 A 
BRANCH  19  25
ATOM      7  N   UNL     1     -12.592  -3.406  12.459  0.00  0.00    -0.191 NA
ATOM     25  C   UNL     1     -12.705  -4.274  13.222  0.00  0.00    +0.099 C 
ENDBRANCH  19  25
ENDBRANCH  13  14
ENDBRANCH   5  13
ENDBRANCH   8   5
BRANCH  10  12
ATOM     12  C   UNL     1      -6.466 -10.607  18.204  0.00  0.00    +0.138 C 
BRANCH  12   6
ATOM      4  O   UNL     1      -4.809 -12.605  16.977  0.00  0.00    -0.270 OA
ATOM      6  N   UNL     1      -5.318 -10.376  17.375  0.00  0.00    -0.308 N 
ATOM     15  C   UNL     1      -4.570 -11.411  16.820  0.00  0.00    +0.251 C 
ATOM     28  H   UNL     1      -5.052  -9.411  17.215  0.00  0.00    +0.149 HD
BRANCH  15  18
ATOM      1  S   UNL     1      -3.581 -10.793  14.319  0.00  0.00    -0.092 S 
ATOM     18  C   UNL     1      -3.393 -11.006  16.008  0.00  0.00    +0.074 A 
ATOM     22  C   UNL     1      -2.102 -10.761  16.420  0.00  0.00    +0.021 A 
ATOM     23  C   UNL     1      -1.255 -10.394  15.335  0.00  0.00    +0.008 A 
ATOM     24  C   UNL     1      -1.931 -10.372  14.134  0.00  0.00    +0.046 A 
ENDBRANCH  15  18
ENDBRANCH  12   6
ENDBRANCH  10  12
TORSDOF 8
ENDMDL
MODEL 9
REMARK VINA RESULT:      -6.1     27.125     29.164
REMARK  Name = 75536609
REMARK  8 active torsions:
REMARK  status: ('A' for Active; 'I' for Inactive)
REMARK    1  A    between atoms: O_3  and  C_9
REMARK    2  A    between atoms: N_5  and  C_8
REMARK    3  A    between atoms: N_5  and  C_13
REMARK    4  A    between atoms: N_6  and  C_12
REMARK    5  A    between atoms: C_10  and  C_12
REMARK    6  A    between atoms: C_13  and  C_14
REMARK    7  A    between atoms: C_15  and  C_18
REMARK    8  A    between atoms: C_19  and  C_25
REMARK                            x       y       z     vdW  Elec       q    Type
REMARK                         _______ _______ _______ _____ _____    ______ ____
ROOT
ATOM      2  O   UNL     1     -10.255  -8.248  14.858  0.00  0.00    -0.371 OA
ATOM      8  C   UNL     1      -9.581  -9.776  16.547  0.00  0.00    +0.111 C 
ATOM      9  C   UNL     1      -9.967  -8.460  17.196  0.00  0.00    +0.164 C 
ATOM     10  C   UNL     1     -10.833  -7.839  16.109  0.00  0.00    +0.165 C 
ATOM     11  C   UNL     1      -9.362  -9.348  15.105  0.00  0.00    +0.181 C 
ENDROOT
BRANCH   9   3
ATOM      3  O   UNL     1     -10.680  -8.635  18.404  0.00  0.00    -0.388 OA
ATOM     27  H   UNL     1     -11.271  -9.400  18.302  0.00  0.00    +0.210 HD
ENDBRANCH   9   3
BRANCH   8   5
ATOM      5  N   UNL     1      -8.407 -10.396  17.138  0.00  0.00    -0.305 NA
ATOM     26  H   UNL     1      -8.248 -11.301  16.692  0.00  0.00    +0.123 HD
BRANCH   5  13
ATOM     13  C   UNL     1      -7.223  -9.565  16.953  0.00  0.00    +0.116 C 
BRANCH  13  14
ATOM     14  C   UNL     1      -5.970 -10.264  17.409  0.00  0.00    -0.032 A 
ATOM     16  C   UNL     1      -4.817 -10.214  16.627  0.00  0.00    +0.023 A 
ATOM     17  C   UNL     1      -5.964 -10.962  18.618  0.00  0.00    +0.005 A 
ATOM     19  C   UNL     1      -3.657 -10.861  17.051  0.00  0.00    +0.052 A 
ATOM     20  C   UNL     1      -4.804 -11.609  19.042  0.00  0.00    +0.002 A 
ATOM     21  C   UNL     1      -3.650 -11.559  18.260  0.00  0.00    +0.019 A 
BRANCH  19  25
ATOM      7  N   UNL     1      -1.514 -10.768  15.600  0.00  0.00    -0.191 NA
ATOM     25  C   UNL     1      -2.475 -10.811  16.250  0.00  0.00    +0.099 C 
ENDBRANCH  19  25
ENDBRANCH  13  14
ENDBRANCH   5  13
ENDBRANCH   8   5
BRANCH  10  12
ATOM     12  C   UNL     1     -10.890  -6.324  16.179  0.00  0.00    +0.138 C 
BRANCH  12   6
ATOM      4  O   UNL     1     -13.392  -5.796  14.875  0.00  0.00    -0.270 OA
ATOM      6  N   UNL     1     -11.073  -5.748  14.878  0.00  0.00    -0.308 N 
ATOM     15  C   UNL     1     -12.330  -5.527  14.322  0.00  0.00    +0.251 C 
ATOM     28  H   UNL     1     -10.236  -5.514  14.356  0.00  0.00    +0.149 HD
BRANCH  15  18
ATOM      1  S   UNL     1     -12.534  -5.992  11.609  0.00  0.00    -0.092 S 
ATOM     18  C   UNL     1     -12.350  -4.948  12.954  0.00  0.00    +0.074 A 
ATOM     22  C   UNL     1     -12.237  -3.628  12.573  0.00  0.00    +0.021 A 
ATOM     23  C   UNL     1     -12.302  -3.473  11.158  0.00  0.00    +0.008 A 
ATOM     24  C   UNL     1     -12.462  -4.679  10.511  0.00  0.00    +0.046 A 
ENDBRANCH  15  18
ENDBRANCH  12   6
ENDBRANCH  10  12
TORSDOF 8
ENDMDL
MODEL 10
REMARK VINA RESULT:      -6.1     27.203     30.169
REMARK  Name = 75536609
REMARK  8 active torsions:
REMARK  status: ('A' for Active; 'I' for Inactive)
REMARK    1  A    between atoms: O_3  and  C_9
REMARK    2  A    between atoms: N_5  and  C_8
REMARK    3  A    between atoms: N_5  and  C_13
REMARK    4  A    between atoms: N_6  and  C_12
REMARK    5  A    between atoms: C_10  and  C_12
REMARK    6  A    between atoms: C_13  and  C_14
REMARK    7  A    between atoms: C_15  and  C_18
REMARK    8  A    between atoms: C_19  and  C_25
REMARK                            x       y       z     vdW  Elec       q    Type
REMARK                         _______ _______ _______ _____ _____    ______ ____
ROOT
ATOM      2  O   UNL     1      -6.513 -11.317  18.475  0.00  0.00    -0.371 OA
ATOM      8  C   UNL     1      -8.415 -10.099  17.740  0.00  0.00    +0.111 C 
ATOM      9  C   UNL     1      -7.181  -9.559  17.040  0.00  0.00    +0.164 C 
ATOM     10  C   UNL     1      -6.220 -10.729  17.196  0.00  0.00    +0.165 C 
ATOM     11  C   UNL     1      -7.796 -10.837  18.915  0.00  0.00    +0.181 C 
ENDROOT
BRANCH   9   3
ATOM      3  O   UNL     1      -7.416  -9.246  15.682  0.00  0.00    -0.388 OA
ATOM     27  H   UNL     1      -7.035  -8.370  15.500  0.00  0.00    +0.210 HD
ENDBRANCH   9   3
BRANCH   8   5
ATOM      5  N   UNL     1      -9.352  -9.066  18.150  0.00  0.00    -0.305 NA
ATOM     26  H   UNL     1      -9.022  -8.162  17.810  0.00  0.00    +0.123 HD
BRANCH   5  13
ATOM     13  C   UNL     1     -10.682  -9.317  17.608  0.00  0.00    +0.116 C 
BRANCH  13  14
ATOM     14  C   UNL     1     -11.197  -8.143  16.818  0.00  0.00    -0.032 A 
ATOM     16  C   UNL     1     -12.562  -8.016  16.563  0.00  0.00    +0.023 A 
ATOM     17  C   UNL     1     -10.305  -7.181  16.342  0.00  0.00    +0.005 A 
ATOM     19  C   UNL     1     -13.037  -6.927  15.832  0.00  0.00    +0.052 A 
ATOM     20  C   UNL     1     -10.780  -6.093  15.611  0.00  0.00    +0.002 A 
ATOM     21  C   UNL     1     -12.145  -5.965  15.356  0.00  0.00    +0.019 A 
BRANCH  19  25
ATOM      7  N   UNL     1     -15.571  -6.690  15.358  0.00  0.00    -0.191 NA
ATOM     25  C   UNL     1     -14.435  -6.796  15.571  0.00  0.00    +0.099 C 
ENDBRANCH  19  25
ENDBRANCH  13  14
ENDBRANCH   5  13
ENDBRANCH   8   5
BRANCH  10  12
ATOM     12  C   UNL     1      -4.760 -10.319  17.141  0.00  0.00    +0.138 C 
BRANCH  12   6
ATOM      4  O   UNL     1      -3.535 -12.252  15.409  0.00  0.00    -0.270 OA
ATOM      6  N   UNL     1      -4.327 -10.105  15.790  0.00  0.00    -0.308 N 
ATOM     15  C   UNL     1      -3.739 -11.106  15.021  0.00  0.00    +0.251 C 
ATOM     28  H   UNL     1      -4.451  -9.175  15.408  0.00  0.00    +0.149 HD
BRANCH  15  18
ATOM      1  S   UNL     1      -4.521 -10.466  12.453  0.00  0.00    -0.092 S 
ATOM     18  C   UNL     1      -3.322 -10.718  13.649  0.00  0.00    +0.074 A 
ATOM     22  C   UNL     1      -2.051 -10.518  13.157  0.00  0.00    +0.021 A 
ATOM     23  C   UNL     1      -2.062 -10.152  11.780  0.00  0.00    +0.008 A 
ATOM     24  C   UNL     1      -3.341 -10.087  11.272  0.00  0.00    +0.046 A 
ENDBRANCH  15  18
ENDBRANCH  12   6
ENDBRANCH  10  12
TORSDOF 8
ENDMDL
