MODEL 1
REMARK VINA RESULT:      -7.3      0.000      0.000
REMARK  Name = 71693878
REMARK  9 active torsions:
REMARK  status: ('A' for Active; 'I' for Inactive)
REMARK    1  A    between atoms: O_4  and  C_12
REMARK    2  A    between atoms: O_5  and  C_14
REMARK    3  A    between atoms: O_8  and  C_22
REMARK    4  A    between atoms: O_8  and  C_28
REMARK    5  A    between atoms: N_9  and  C_11
REMARK    6  A    between atoms: C_10  and  C_15
REMARK    7  A    between atoms: C_18  and  C_21
REMARK    8  A    between atoms: C_23  and  C_26
REMARK    9  A    between atoms: C_25  and  C_27
REMARK                            x       y       z     vdW  Elec       q    Type
REMARK                         _______ _______ _______ _____ _____    ______ ____
ROOT
ATOM     10  C   UNL     1      14.035   9.061  18.942  0.00  0.00    +0.044 C 
ATOM     11  C   UNL     1      12.766   8.834  19.796  0.00  0.00    +0.112 C 
ATOM     12  C   UNL     1      11.627   8.991  18.790  0.00  0.00    +0.164 C 
ATOM     13  C   UNL     1      13.622   8.744  17.481  0.00  0.00    +0.044 C 
ATOM     14  C   UNL     1      12.165   8.291  17.547  0.00  0.00    +0.145 C 
ENDROOT
BRANCH  10  15
ATOM     15  C   UNL     1      15.231   8.275  19.437  0.00  0.00    -0.042 A 
ATOM     16  C   UNL     1      15.445   6.973  18.985  0.00  0.00    +0.007 A 
ATOM     17  C   UNL     1      16.117   8.853  20.345  0.00  0.00    +0.007 A 
ATOM     19  C   UNL     1      16.545   6.248  19.441  0.00  0.00    +0.046 A 
ATOM     20  C   UNL     1      17.219   8.128  20.801  0.00  0.00    +0.046 A 
ATOM     22  C   UNL     1      17.433   6.826  20.349  0.00  0.00    +0.120 A 
BRANCH  22   8
ATOM      8  O   UNL     1      18.508   6.119  20.794  0.00  0.00    -0.495 OA
ATOM     28  C   UNL     1      19.376   6.772  21.719  0.00  0.00    +0.277 C 
ENDBRANCH  22   8
ENDBRANCH  10  15
BRANCH  11   9
ATOM      6  O   UNL     1      11.403   8.451  22.295  0.00  0.00    -0.270 OA
ATOM      9  N   UNL     1      12.665   9.783  20.876  0.00  0.00    -0.305 N 
ATOM     18  C   UNL     1      11.982   9.508  22.052  0.00  0.00    +0.248 C 
ATOM     29  H   UNL     1      13.156  10.668  20.781  0.00  0.00    +0.149 HD
BRANCH  18  21
ATOM      7  O   UNL     1      12.667  12.204  24.459  0.00  0.00    -0.455 OA
ATOM     21  C   UNL     1      11.947  10.601  23.057  0.00  0.00    +0.087 A 
ATOM     23  C   UNL     1      13.045  11.260  23.557  0.00  0.00    +0.220 A 
ATOM     24  C   UNL     1      10.820  11.176  23.693  0.00  0.00    +0.058 A 
ATOM     25  C   UNL     1      11.311  12.146  24.535  0.00  0.00    +0.103 A 
ATOM     27  C   UNL     1      10.671  13.092  25.461  0.00  0.00    +0.086 C 
BRANCH  23  26
ATOM      1  F   UNL     1      14.920  11.735  22.149  0.00  0.00    -0.163 F 
ATOM      2  F   UNL     1      14.955   9.856  23.231  0.00  0.00    -0.163 F 
ATOM      3  F   UNL     1      15.256  11.727  24.297  0.00  0.00    -0.163 F 
ATOM     26  C   UNL     1      14.492  11.147  23.315  0.00  0.00    +0.451 C 
ENDBRANCH  23  26
ENDBRANCH  18  21
ENDBRANCH  11   9
BRANCH  12   4
ATOM      4  O   UNL     1      10.428   8.387  19.238  0.00  0.00    -0.387 OA
ATOM     30  H   UNL     1      10.097   7.825  18.518  0.00  0.00    +0.210 HD
ENDBRANCH  12   4
BRANCH  14   5
ATOM      5  O   UNL     1      12.133   6.877  17.703  0.00  0.00    -0.389 OA
ATOM     31  H   UNL     1      11.239   6.577  17.468  0.00  0.00    +0.210 HD
ENDBRANCH  14   5
TORSDOF 7
ENDMDL
MODEL 2
REMARK VINA RESULT:      -6.7      2.225      6.473
REMARK  Name = 71693878
REMARK  9 active torsions:
REMARK  status: ('A' for Active; 'I' for Inactive)
REMARK    1  A    between atoms: O_4  and  C_12
REMARK    2  A    between atoms: O_5  and  C_14
REMARK    3  A    between atoms: O_8  and  C_22
REMARK    4  A    between atoms: O_8  and  C_28
REMARK    5  A    between atoms: N_9  and  C_11
REMARK    6  A    between atoms: C_10  and  C_15
REMARK    7  A    between atoms: C_18  and  C_21
REMARK    8  A    between atoms: C_23  and  C_26
REMARK    9  A    between atoms: C_25  and  C_27
REMARK                            x       y       z     vdW  Elec       q    Type
REMARK                         _______ _______ _______ _____ _____    ______ ____
ROOT
ATOM     10  C   UNL     1      12.484   8.926  22.087  0.00  0.00    +0.044 C 
ATOM     11  C   UNL     1      13.006   8.123  20.874  0.00  0.00    +0.112 C 
ATOM     12  C   UNL     1      12.141   6.863  20.880  0.00  0.00    +0.164 C 
ATOM     13  C   UNL     1      11.040   8.418  22.339  0.00  0.00    +0.044 C 
ATOM     14  C   UNL     1      10.759   7.396  21.239  0.00  0.00    +0.145 C 
ENDROOT
BRANCH  10  15
ATOM     15  C   UNL     1      12.595  10.424  21.898  0.00  0.00    -0.042 A 
ATOM     16  C   UNL     1      13.850  11.031  21.860  0.00  0.00    +0.007 A 
ATOM     17  C   UNL     1      11.442  11.197  21.763  0.00  0.00    +0.007 A 
ATOM     19  C   UNL     1      13.953  12.411  21.687  0.00  0.00    +0.046 A 
ATOM     20  C   UNL     1      11.545  12.577  21.589  0.00  0.00    +0.046 A 
ATOM     22  C   UNL     1      12.800  13.185  21.551  0.00  0.00    +0.120 A 
BRANCH  22   8
ATOM      8  O   UNL     1      12.900  14.532  21.382  0.00  0.00    -0.495 OA
ATOM     28  C   UNL     1      12.448  15.355  22.456  0.00  0.00    +0.277 C 
ENDBRANCH  22   8
ENDBRANCH  10  15
BRANCH  11   9
ATOM      6  O   UNL     1      14.834   7.578  18.727  0.00  0.00    -0.270 OA
ATOM      9  N   UNL     1      14.409   7.813  20.995  0.00  0.00    -0.305 N 
ATOM     18  C   UNL     1      15.217   7.563  19.894  0.00  0.00    +0.248 C 
ATOM     29  H   UNL     1      14.822   7.827  21.922  0.00  0.00    +0.149 HD
BRANCH  18  21
ATOM      7  O   UNL     1      18.761   7.477  20.875  0.00  0.00    -0.455 OA
ATOM     21  C   UNL     1      16.635   7.232  20.189  0.00  0.00    +0.087 A 
ATOM     23  C   UNL     1      17.558   8.092  20.736  0.00  0.00    +0.220 A 
ATOM     24  C   UNL     1      17.315   6.009  19.976  0.00  0.00    +0.058 A 
ATOM     25  C   UNL     1      18.605   6.209  20.410  0.00  0.00    +0.103 A 
ATOM     27  C   UNL     1      19.794   5.346  20.464  0.00  0.00    +0.086 C 
BRANCH  23  26
ATOM      1  F   UNL     1      16.779   9.688  22.339  0.00  0.00    -0.163 F 
ATOM      2  F   UNL     1      16.924  10.354  20.280  0.00  0.00    -0.163 F 
ATOM      3  F   UNL     1      18.730  10.035  21.446  0.00  0.00    -0.163 F 
ATOM     26  C   UNL     1      17.497   9.493  21.184  0.00  0.00    +0.451 C 
ENDBRANCH  23  26
ENDBRANCH  18  21
ENDBRANCH  11   9
BRANCH  12   4
ATOM      4  O   UNL     1      12.129   6.214  19.624  0.00  0.00    -0.387 OA
ATOM     30  H   UNL     1      12.851   5.563  19.625  0.00  0.00    +0.210 HD
ENDBRANCH  12   4
BRANCH  14   5
ATOM      5  O   UNL     1      10.168   8.068  20.132  0.00  0.00    -0.389 OA
ATOM     31  H   UNL     1      10.546   8.963  20.097  0.00  0.00    +0.210 HD
ENDBRANCH  14   5
TORSDOF 7
ENDMDL
MODEL 3
REMARK VINA RESULT:      -6.4     15.972     19.707
REMARK  Name = 71693878
REMARK  9 active torsions:
REMARK  status: ('A' for Active; 'I' for Inactive)
REMARK    1  A    between atoms: O_4  and  C_12
REMARK    2  A    between atoms: O_5  and  C_14
REMARK    3  A    between atoms: O_8  and  C_22
REMARK    4  A    between atoms: O_8  and  C_28
REMARK    5  A    between atoms: N_9  and  C_11
REMARK    6  A    between atoms: C_10  and  C_15
REMARK    7  A    between atoms: C_18  and  C_21
REMARK    8  A    between atoms: C_23  and  C_26
REMARK    9  A    between atoms: C_25  and  C_27
REMARK                            x       y       z     vdW  Elec       q    Type
REMARK                         _______ _______ _______ _____ _____    ______ ____
ROOT
ATOM     10  C   UNL     1       8.354   7.444   4.192  0.00  0.00    +0.044 C 
ATOM     11  C   UNL     1       9.508   7.831   3.238  0.00  0.00    +0.112 C 
ATOM     12  C   UNL     1       9.048   9.162   2.645  0.00  0.00    +0.164 C 
ATOM     13  C   UNL     1       7.634   8.771   4.543  0.00  0.00    +0.044 C 
ATOM     14  C   UNL     1       8.422   9.874   3.839  0.00  0.00    +0.145 C 
ENDROOT
BRANCH  10  15
ATOM     15  C   UNL     1       8.821   6.650   5.394  0.00  0.00    -0.042 A 
ATOM     16  C   UNL     1       9.385   5.386   5.218  0.00  0.00    +0.007 A 
ATOM     17  C   UNL     1       8.686   7.181   6.675  0.00  0.00    +0.007 A 
ATOM     19  C   UNL     1       9.814   4.654   6.324  0.00  0.00    +0.046 A 
ATOM     20  C   UNL     1       9.116   6.449   7.782  0.00  0.00    +0.046 A 
ATOM     22  C   UNL     1       9.680   5.185   7.607  0.00  0.00    +0.120 A 
BRANCH  22   8
ATOM      8  O   UNL     1      10.099   4.471   8.687  0.00  0.00    -0.495 OA
ATOM     28  C   UNL     1       9.333   4.597   9.884  0.00  0.00    +0.277 C 
ENDBRANCH  22   8
ENDBRANCH  10  15
BRANCH  11   9
ATOM      6  O   UNL     1      11.924   7.397   1.748  0.00  0.00    -0.270 OA
ATOM      9  N   UNL     1       9.723   6.834   2.219  0.00  0.00    -0.305 N 
ATOM     18  C   UNL     1      10.932   6.699   1.550  0.00  0.00    +0.248 C 
ATOM     29  H   UNL     1       8.971   6.181   2.024  0.00  0.00    +0.149 HD
BRANCH  18  21
ATOM      7  O   UNL     1      11.462   3.686  -0.492  0.00  0.00    -0.455 OA
ATOM     21  C   UNL     1      10.985   5.641   0.509  0.00  0.00    +0.087 A 
ATOM     23  C   UNL     1      11.596   4.416   0.646  0.00  0.00    +0.220 A 
ATOM     24  C   UNL     1      10.441   5.665  -0.798  0.00  0.00    +0.058 A 
ATOM     25  C   UNL     1      10.758   4.453  -1.366  0.00  0.00    +0.103 A 
ATOM     27  C   UNL     1      10.488   3.857  -2.682  0.00  0.00    +0.086 C 
BRANCH  23  26
ATOM      1  F   UNL     1      12.828   2.525   1.436  0.00  0.00    -0.163 F 
ATOM      2  F   UNL     1      11.599   3.571   2.884  0.00  0.00    -0.163 F 
ATOM      3  F   UNL     1      13.432   4.485   2.155  0.00  0.00    -0.163 F 
ATOM     26  C   UNL     1      12.335   3.770   1.741  0.00  0.00    +0.451 C 
ENDBRANCH  23  26
ENDBRANCH  18  21
ENDBRANCH  11   9
BRANCH  12   4
ATOM      4  O   UNL     1      10.122   9.911   2.109  0.00  0.00    -0.387 OA
ATOM     30  H   UNL     1       9.821  10.292   1.267  0.00  0.00    +0.210 HD
ENDBRANCH  12   4
BRANCH  14   5
ATOM      5  O   UNL     1       9.423  10.358   4.727  0.00  0.00    -0.389 OA
ATOM     31  H   UNL     1      10.097  10.808   4.191  0.00  0.00    +0.210 HD
ENDBRANCH  14   5
TORSDOF 7
ENDMDL
MODEL 4
REMARK VINA RESULT:      -6.3     27.483     29.468
REMARK  Name = 71693878
REMARK  9 active torsions:
REMARK  status: ('A' for Active; 'I' for Inactive)
REMARK    1  A    between atoms: O_4  and  C_12
REMARK    2  A    between atoms: O_5  and  C_14
REMARK    3  A    between atoms: O_8  and  C_22
REMARK    4  A    between atoms: O_8  and  C_28
REMARK    5  A    between atoms: N_9  and  C_11
REMARK    6  A    between atoms: C_10  and  C_15
REMARK    7  A    between atoms: C_18  and  C_21
REMARK    8  A    between atoms: C_23  and  C_26
REMARK    9  A    between atoms: C_25  and  C_27
REMARK                            x       y       z     vdW  Elec       q    Type
REMARK                         _______ _______ _______ _____ _____    ______ ____
ROOT
ATOM     10  C   UNL     1      -5.829 -10.298  17.529  0.00  0.00    +0.044 C 
ATOM     11  C   UNL     1      -5.508 -11.288  16.385  0.00  0.00    +0.112 C 
ATOM     12  C   UNL     1      -4.280 -12.039  16.898  0.00  0.00    +0.164 C 
ATOM     13  C   UNL     1      -5.198 -10.911  18.806  0.00  0.00    +0.044 C 
ATOM     14  C   UNL     1      -4.595 -12.246  18.375  0.00  0.00    +0.145 C 
ENDROOT
BRANCH  10  15
ATOM     15  C   UNL     1      -7.307  -9.990  17.649  0.00  0.00    -0.042 A 
ATOM     16  C   UNL     1      -8.109 -10.749  18.501  0.00  0.00    +0.007 A 
ATOM     17  C   UNL     1      -7.865  -8.951  16.907  0.00  0.00    +0.007 A 
ATOM     19  C   UNL     1      -9.471 -10.467  18.612  0.00  0.00    +0.046 A 
ATOM     20  C   UNL     1      -9.226  -8.667  17.018  0.00  0.00    +0.046 A 
ATOM     22  C   UNL     1     -10.030  -9.425  17.870  0.00  0.00    +0.120 A 
BRANCH  22   8
ATOM      8  O   UNL     1     -11.358  -9.150  17.978  0.00  0.00    -0.495 OA
ATOM     28  C   UNL     1     -12.071  -9.796  19.032  0.00  0.00    +0.277 C 
ENDBRANCH  22   8
ENDBRANCH  10  15
BRANCH  11   9
ATOM      6  O   UNL     1      -5.578 -12.435  13.754  0.00  0.00    -0.270 OA
ATOM      9  N   UNL     1      -5.243 -10.608  15.143  0.00  0.00    -0.305 N 
ATOM     18  C   UNL     1      -5.301 -11.249  13.912  0.00  0.00    +0.248 C 
ATOM     29  H   UNL     1      -5.052  -9.611  15.175  0.00  0.00    +0.149 HD
BRANCH  18  21
ATOM      7  O   UNL     1      -3.768  -9.423  11.111  0.00  0.00    -0.455 OA
ATOM     21  C   UNL     1      -4.974 -10.415  12.727  0.00  0.00    +0.087 A 
ATOM     23  C   UNL     1      -3.720 -10.248  12.189  0.00  0.00    +0.220 A 
ATOM     24  C   UNL     1      -5.851  -9.642  11.928  0.00  0.00    +0.058 A 
ATOM     25  C   UNL     1      -5.069  -9.058  10.959  0.00  0.00    +0.103 A 
ATOM     27  C   UNL     1      -5.363  -8.155   9.837  0.00  0.00    +0.086 C 
BRANCH  23  26
ATOM      1  F   UNL     1      -2.253 -12.127  12.381  0.00  0.00    -0.163 F 
ATOM      2  F   UNL     1      -2.016 -10.543  13.843  0.00  0.00    -0.163 F 
ATOM      3  F   UNL     1      -1.377 -10.228  11.789  0.00  0.00    -0.163 F 
ATOM     26  C   UNL     1      -2.390 -10.770  12.540  0.00  0.00    +0.451 C 
ENDBRANCH  23  26
ENDBRANCH  18  21
ENDBRANCH  11   9
BRANCH  12   4
ATOM      4  O   UNL     1      -4.092 -13.275  16.237  0.00  0.00    -0.387 OA
ATOM     30  H   UNL     1      -3.755 -13.081  15.346  0.00  0.00    +0.210 HD
ENDBRANCH  12   4
BRANCH  14   5
ATOM      5  O   UNL     1      -5.572 -13.267  18.551  0.00  0.00    -0.389 OA
ATOM     31  H   UNL     1      -5.098 -14.106  18.677  0.00  0.00    +0.210 HD
ENDBRANCH  14   5
TORSDOF 7
ENDMDL
MODEL 5
REMARK VINA RESULT:      -6.3     26.683     29.352
REMARK  Name = 71693878
REMARK  9 active torsions:
REMARK  status: ('A' for Active; 'I' for Inactive)
REMARK    1  A    between atoms: O_4  and  C_12
REMARK    2  A    between atoms: O_5  and  C_14
REMARK    3  A    between atoms: O_8  and  C_22
REMARK    4  A    between atoms: O_8  and  C_28
REMARK    5  A    between atoms: N_9  and  C_11
REMARK    6  A    between atoms: C_10  and  C_15
REMARK    7  A    between atoms: C_18  and  C_21
REMARK    8  A    between atoms: C_23  and  C_26
REMARK    9  A    between atoms: C_25  and  C_27
REMARK                            x       y       z     vdW  Elec       q    Type
REMARK                         _______ _______ _______ _____ _____    ______ ____
ROOT
ATOM     10  C   UNL     1      -6.670 -10.116  17.830  0.00  0.00    +0.044 C 
ATOM     11  C   UNL     1      -5.913 -11.270  17.133  0.00  0.00    +0.112 C 
ATOM     12  C   UNL     1      -5.021 -11.831  18.240  0.00  0.00    +0.164 C 
ATOM     13  C   UNL     1      -6.637 -10.445  19.345  0.00  0.00    +0.044 C 
ATOM     14  C   UNL     1      -5.925 -11.791  19.466  0.00  0.00    +0.145 C 
ENDROOT
BRANCH  10  15
ATOM     15  C   UNL     1      -8.058  -9.895  17.269  0.00  0.00    -0.042 A 
ATOM     16  C   UNL     1      -8.549  -8.598  17.116  0.00  0.00    +0.007 A 
ATOM     17  C   UNL     1      -8.846 -10.986  16.906  0.00  0.00    +0.007 A 
ATOM     19  C   UNL     1      -9.829  -8.393  16.601  0.00  0.00    +0.046 A 
ATOM     20  C   UNL     1     -10.126 -10.781  16.389  0.00  0.00    +0.046 A 
ATOM     22  C   UNL     1     -10.618  -9.485  16.237  0.00  0.00    +0.120 A 
BRANCH  22   8
ATOM      8  O   UNL     1     -11.866  -9.285  15.734  0.00  0.00    -0.495 OA
ATOM     28  C   UNL     1     -12.724  -8.404  16.458  0.00  0.00    +0.277 C 
ENDBRANCH  22   8
ENDBRANCH  10  15
BRANCH  11   9
ATOM      6  O   UNL     1      -4.862 -12.879  14.999  0.00  0.00    -0.270 OA
ATOM      9  N   UNL     1      -5.144 -10.808  16.005  0.00  0.00    -0.305 N 
ATOM     18  C   UNL     1      -4.676 -11.665  15.017  0.00  0.00    +0.248 C 
ATOM     29  H   UNL     1      -4.984  -9.809  15.913  0.00  0.00    +0.149 HD
BRANCH  18  21
ATOM      7  O   UNL     1      -2.153 -10.047  12.885  0.00  0.00    -0.455 OA
ATOM     21  C   UNL     1      -3.877 -11.036  13.935  0.00  0.00    +0.087 A 
ATOM     23  C   UNL     1      -2.593 -10.561  14.063  0.00  0.00    +0.220 A 
ATOM     24  C   UNL     1      -4.252 -10.797  12.591  0.00  0.00    +0.058 A 
ATOM     25  C   UNL     1      -3.169 -10.195  11.993  0.00  0.00    +0.103 A 
ATOM     27  C   UNL     1      -2.915  -9.704  10.632  0.00  0.00    +0.086 C 
BRANCH  23  26
ATOM      1  F   UNL     1      -2.227 -10.383  16.420  0.00  0.00    -0.163 F 
ATOM      2  F   UNL     1      -0.755  -9.457  15.125  0.00  0.00    -0.163 F 
ATOM      3  F   UNL     1      -0.850 -11.623  15.283  0.00  0.00    -0.163 F 
ATOM     26  C   UNL     1      -1.641 -10.505  15.184  0.00  0.00    +0.451 C 
ENDBRANCH  23  26
ENDBRANCH  18  21
ENDBRANCH  11   9
BRANCH  12   4
ATOM      4  O   UNL     1      -4.589 -13.150  17.965  0.00  0.00    -0.387 OA
ATOM     30  H   UNL     1      -5.149 -13.497  17.251  0.00  0.00    +0.210 HD
ENDBRANCH  12   4
BRANCH  14   5
ATOM      5  O   UNL     1      -6.899 -12.828  19.416  0.00  0.00    -0.389 OA
ATOM     31  H   UNL     1      -7.758 -12.433  19.640  0.00  0.00    +0.210 HD
ENDBRANCH  14   5
TORSDOF 7
ENDMDL
MODEL 6
REMARK VINA RESULT:      -6.0     15.145     17.608
REMARK  Name = 71693878
REMARK  9 active torsions:
REMARK  status: ('A' for Active; 'I' for Inactive)
REMARK    1  A    between atoms: O_4  and  C_12
REMARK    2  A    between atoms: O_5  and  C_14
REMARK    3  A    between atoms: O_8  and  C_22
REMARK    4  A    between atoms: O_8  and  C_28
REMARK    5  A    between atoms: N_9  and  C_11
REMARK    6  A    between atoms: C_10  and  C_15
REMARK    7  A    between atoms: C_18  and  C_21
REMARK    8  A    between atoms: C_23  and  C_26
REMARK    9  A    between atoms: C_25  and  C_27
REMARK                            x       y       z     vdW  Elec       q    Type
REMARK                         _______ _______ _______ _____ _____    ______ ____
ROOT
ATOM     10  C   UNL     1      10.158   6.366   5.070  0.00  0.00    +0.044 C 
ATOM     11  C   UNL     1      11.444   6.241   5.920  0.00  0.00    +0.112 C 
ATOM     12  C   UNL     1      10.917   6.140   7.351  0.00  0.00    +0.164 C 
ATOM     13  C   UNL     1       9.023   5.752   5.930  0.00  0.00    +0.044 C 
ATOM     14  C   UNL     1       9.693   5.243   7.205  0.00  0.00    +0.145 C 
ENDROOT
BRANCH  10  15
ATOM     15  C   UNL     1      10.297   5.755   3.692  0.00  0.00    -0.042 A 
ATOM     16  C   UNL     1       9.920   6.485   2.565  0.00  0.00    +0.007 A 
ATOM     17  C   UNL     1      10.800   4.463   3.549  0.00  0.00    +0.007 A 
ATOM     19  C   UNL     1      10.046   5.923   1.295  0.00  0.00    +0.046 A 
ATOM     20  C   UNL     1      10.928   3.901   2.279  0.00  0.00    +0.046 A 
ATOM     22  C   UNL     1      10.551   4.630   1.151  0.00  0.00    +0.120 A 
BRANCH  22   8
ATOM      8  O   UNL     1      10.674   4.082  -0.088  0.00  0.00    -0.495 OA
ATOM     28  C   UNL     1      10.381   4.923  -1.202  0.00  0.00    +0.277 C 
ENDBRANCH  22   8
ENDBRANCH  10  15
BRANCH  11   9
ATOM      6  O   UNL     1      14.097   6.538   6.976  0.00  0.00    -0.270 OA
ATOM      9  N   UNL     1      12.317   7.373   5.746  0.00  0.00    -0.305 N 
ATOM     18  C   UNL     1      13.590   7.428   6.298  0.00  0.00    +0.248 C 
ATOM     29  H   UNL     1      11.998   8.137   5.158  0.00  0.00    +0.149 HD
BRANCH  18  21
ATOM      7  O   UNL     1      15.875  10.083   5.176  0.00  0.00    -0.455 OA
ATOM     21  C   UNL     1      14.356   8.676   6.050  0.00  0.00    +0.087 A 
ATOM     23  C   UNL     1      15.393   8.813   5.158  0.00  0.00    +0.220 A 
ATOM     24  C   UNL     1      14.189   9.945   6.656  0.00  0.00    +0.058 A 
ATOM     25  C   UNL     1      15.136  10.766   6.090  0.00  0.00    +0.103 A 
ATOM     27  C   UNL     1      15.483  12.181   6.280  0.00  0.00    +0.086 C 
BRANCH  23  26
ATOM      1  F   UNL     1      15.821   8.156   2.898  0.00  0.00    -0.163 F 
ATOM      2  F   UNL     1      15.688   6.572   4.373  0.00  0.00    -0.163 F 
ATOM      3  F   UNL     1      17.423   7.882   4.342  0.00  0.00    -0.163 F 
ATOM     26  C   UNL     1      16.055   7.888   4.225  0.00  0.00    +0.451 C 
ENDBRANCH  23  26
ENDBRANCH  18  21
ENDBRANCH  11   9
BRANCH  12   4
ATOM      4  O   UNL     1      11.866   5.571   8.233  0.00  0.00    -0.387 OA
ATOM     30  H   UNL     1      12.637   6.162   8.252  0.00  0.00    +0.210 HD
ENDBRANCH  12   4
BRANCH  14   5
ATOM      5  O   UNL     1      10.074   3.885   7.011  0.00  0.00    -0.389 OA
ATOM     31  H   UNL     1      10.030   3.704   6.057  0.00  0.00    +0.210 HD
ENDBRANCH  14   5
TORSDOF 7
ENDMDL
MODEL 7
REMARK VINA RESULT:      -6.0     27.074     29.091
REMARK  Name = 71693878
REMARK  9 active torsions:
REMARK  status: ('A' for Active; 'I' for Inactive)
REMARK    1  A    between atoms: O_4  and  C_12
REMARK    2  A    between atoms: O_5  and  C_14
REMARK    3  A    between atoms: O_8  and  C_22
REMARK    4  A    between atoms: O_8  and  C_28
REMARK    5  A    between atoms: N_9  and  C_11
REMARK    6  A    between atoms: C_10  and  C_15
REMARK    7  A    between atoms: C_18  and  C_21
REMARK    8  A    between atoms: C_23  and  C_26
REMARK    9  A    between atoms: C_25  and  C_27
REMARK                            x       y       z     vdW  Elec       q    Type
REMARK                         _______ _______ _______ _____ _____    ______ ____
ROOT
ATOM     10  C   UNL     1      -5.755 -11.453  16.815  0.00  0.00    +0.044 C 
ATOM     11  C   UNL     1      -6.093 -10.286  17.771  0.00  0.00    +0.112 C 
ATOM     12  C   UNL     1      -6.560 -10.991  19.044  0.00  0.00    +0.164 C 
ATOM     13  C   UNL     1      -5.472 -12.675  17.726  0.00  0.00    +0.044 C 
ATOM     14  C   UNL     1      -5.595 -12.165  19.161  0.00  0.00    +0.145 C 
ENDROOT
BRANCH  10  15
ATOM     15  C   UNL     1      -4.637 -11.123  15.849  0.00  0.00    -0.042 A 
ATOM     16  C   UNL     1      -3.332 -10.974  16.318  0.00  0.00    +0.007 A 
ATOM     17  C   UNL     1      -4.912 -10.966  14.491  0.00  0.00    +0.007 A 
ATOM     19  C   UNL     1      -2.301 -10.669  15.429  0.00  0.00    +0.046 A 
ATOM     20  C   UNL     1      -3.881 -10.662  13.601  0.00  0.00    +0.046 A 
ATOM     22  C   UNL     1      -2.576 -10.514  14.070  0.00  0.00    +0.120 A 
BRANCH  22   8
ATOM      8  O   UNL     1      -1.570 -10.216  13.202  0.00  0.00    -0.495 OA
ATOM     28  C   UNL     1      -1.886 -10.242  11.811  0.00  0.00    +0.277 C 
ENDBRANCH  22   8
ENDBRANCH  10  15
BRANCH  11   9
ATOM      6  O   UNL     1      -8.871 -10.924  17.419  0.00  0.00    -0.270 OA
ATOM      9  N   UNL     1      -7.113  -9.423  17.229  0.00  0.00    -0.305 N 
ATOM     18  C   UNL     1      -8.436  -9.821  17.096  0.00  0.00    +0.248 C 
ATOM     29  H   UNL     1      -6.852  -8.473  16.980  0.00  0.00    +0.149 HD
BRANCH  18  21
ATOM      7  O   UNL     1     -10.565  -7.728  14.948  0.00  0.00    -0.455 OA
ATOM     21  C   UNL     1      -9.359  -8.824  16.495  0.00  0.00    +0.087 A 
ATOM     23  C   UNL     1      -9.702  -8.754  15.165  0.00  0.00    +0.220 A 
ATOM     24  C   UNL     1     -10.056  -7.772  17.137  0.00  0.00    +0.058 A 
ATOM     25  C   UNL     1     -10.776  -7.135  16.153  0.00  0.00    +0.103 A 
ATOM     27  C   UNL     1     -11.691  -5.985  16.160  0.00  0.00    +0.086 C 
BRANCH  23  26
ATOM      1  F   UNL     1      -8.022  -9.400  13.590  0.00  0.00    -0.163 F 
ATOM      2  F   UNL     1     -10.055  -9.248  12.851  0.00  0.00    -0.163 F 
ATOM      3  F   UNL     1      -9.495 -10.896  14.153  0.00  0.00    -0.163 F 
ATOM     26  C   UNL     1      -9.331  -9.544  13.981  0.00  0.00    +0.451 C 
ENDBRANCH  23  26
ENDBRANCH  18  21
ENDBRANCH  11   9
BRANCH  12   4
ATOM      4  O   UNL     1      -6.485 -10.152  20.180  0.00  0.00    -0.387 OA
ATOM     30  H   UNL     1      -6.305  -9.250  19.866  0.00  0.00    +0.210 HD
ENDBRANCH  12   4
BRANCH  14   5
ATOM      5  O   UNL     1      -4.313 -11.731  19.602  0.00  0.00    -0.389 OA
ATOM     31  H   UNL     1      -4.096 -12.230  20.406  0.00  0.00    +0.210 HD
ENDBRANCH  14   5
TORSDOF 7
ENDMDL
MODEL 8
REMARK VINA RESULT:      -6.0     27.387     29.252
REMARK  Name = 71693878
REMARK  9 active torsions:
REMARK  status: ('A' for Active; 'I' for Inactive)
REMARK    1  A    between atoms: O_4  and  C_12
REMARK    2  A    between atoms: O_5  and  C_14
REMARK    3  A    between atoms: O_8  and  C_22
REMARK    4  A    between atoms: O_8  and  C_28
REMARK    5  A    between atoms: N_9  and  C_11
REMARK    6  A    between atoms: C_10  and  C_15
REMARK    7  A    between atoms: C_18  and  C_21
REMARK    8  A    between atoms: C_23  and  C_26
REMARK    9  A    between atoms: C_25  and  C_27
REMARK                            x       y       z     vdW  Elec       q    Type
REMARK                         _______ _______ _______ _____ _____    ______ ____
ROOT
ATOM     10  C   UNL     1      -3.459 -10.556  14.845  0.00  0.00    +0.044 C 
ATOM     11  C   UNL     1      -3.974 -11.382  13.644  0.00  0.00    +0.112 C 
ATOM     12  C   UNL     1      -2.693 -11.925  13.010  0.00  0.00    +0.164 C 
ATOM     13  C   UNL     1      -2.058 -11.130  15.182  0.00  0.00    +0.044 C 
ATOM     14  C   UNL     1      -1.839 -12.293  14.218  0.00  0.00    +0.145 C 
ENDROOT
BRANCH  10  15
ATOM     15  C   UNL     1      -4.425 -10.541  16.011  0.00  0.00    -0.042 A 
ATOM     16  C   UNL     1      -4.103 -11.212  17.191  0.00  0.00    +0.007 A 
ATOM     17  C   UNL     1      -5.635  -9.857  15.905  0.00  0.00    +0.007 A 
ATOM     19  C   UNL     1      -4.993 -11.199  18.265  0.00  0.00    +0.046 A 
ATOM     20  C   UNL     1      -6.525  -9.843  16.980  0.00  0.00    +0.046 A 
ATOM     22  C   UNL     1      -6.204 -10.514  18.160  0.00  0.00    +0.120 A 
BRANCH  22   8
ATOM      8  O   UNL     1      -7.072 -10.502  19.208  0.00  0.00    -0.495 OA
ATOM     28  C   UNL     1      -7.867 -11.670  19.405  0.00  0.00    +0.277 C 
ENDBRANCH  22   8
ENDBRANCH  10  15
BRANCH  11   9
ATOM      6  O   UNL     1      -5.986 -12.306  11.815  0.00  0.00    -0.270 OA
ATOM      9  N   UNL     1      -4.732 -10.577  12.720  0.00  0.00    -0.305 N 
ATOM     18  C   UNL     1      -5.689 -11.115  11.870  0.00  0.00    +0.248 C 
ATOM     29  H   UNL     1      -4.587  -9.572  12.732  0.00  0.00    +0.149 HD
BRANCH  18  21
ATOM      7  O   UNL     1      -6.673  -8.710   9.267  0.00  0.00    -0.455 OA
ATOM     21  C   UNL     1      -6.365 -10.156  10.960  0.00  0.00    +0.087 A 
ATOM     23  C   UNL     1      -5.779  -9.522   9.890  0.00  0.00    +0.220 A 
ATOM     24  C   UNL     1      -7.707  -9.705  10.997  0.00  0.00    +0.058 A 
ATOM     25  C   UNL     1      -7.844  -8.827   9.947  0.00  0.00    +0.103 A 
ATOM     27  C   UNL     1      -8.970  -8.029   9.443  0.00  0.00    +0.086 C 
BRANCH  23  26
ATOM      1  F   UNL     1      -4.374  -9.249   7.974  0.00  0.00    -0.163 F 
ATOM      2  F   UNL     1      -3.793 -10.768   9.408  0.00  0.00    -0.163 F 
ATOM      3  F   UNL     1      -3.562  -8.663   9.903  0.00  0.00    -0.163 F 
ATOM     26  C   UNL     1      -4.426  -9.551   9.313  0.00  0.00    +0.451 C 
ENDBRANCH  23  26
ENDBRANCH  18  21
ENDBRANCH  11   9
BRANCH  12   4
ATOM      4  O   UNL     1      -2.936 -13.053  12.191  0.00  0.00    -0.387 OA
ATOM     30  H   UNL     1      -3.756 -13.470  12.504  0.00  0.00    +0.210 HD
ENDBRANCH  12   4
BRANCH  14   5
ATOM      5  O   UNL     1      -2.310 -13.489  14.830  0.00  0.00    -0.389 OA
ATOM     31  H   UNL     1      -3.003 -13.858  14.257  0.00  0.00    +0.210 HD
ENDBRANCH  14   5
TORSDOF 7
ENDMDL
MODEL 9
REMARK VINA RESULT:      -5.9     30.475     32.173
REMARK  Name = 71693878
REMARK  9 active torsions:
REMARK  status: ('A' for Active; 'I' for Inactive)
REMARK    1  A    between atoms: O_4  and  C_12
REMARK    2  A    between atoms: O_5  and  C_14
REMARK    3  A    between atoms: O_8  and  C_22
REMARK    4  A    between atoms: O_8  and  C_28
REMARK    5  A    between atoms: N_9  and  C_11
REMARK    6  A    between atoms: C_10  and  C_15
REMARK    7  A    between atoms: C_18  and  C_21
REMARK    8  A    between atoms: C_23  and  C_26
REMARK    9  A    between atoms: C_25  and  C_27
REMARK                            x       y       z     vdW  Elec       q    Type
REMARK                         _______ _______ _______ _____ _____    ______ ____
ROOT
ATOM     10  C   UNL     1     -14.344   3.224  30.764  0.00  0.00    +0.044 C 
ATOM     11  C   UNL     1     -15.129   2.392  29.725  0.00  0.00    +0.112 C 
ATOM     12  C   UNL     1     -14.286   1.127  29.570  0.00  0.00    +0.164 C 
ATOM     13  C   UNL     1     -13.484   2.205  31.557  0.00  0.00    +0.044 C 
ATOM     14  C   UNL     1     -13.844   0.830  30.998  0.00  0.00    +0.145 C 
ENDROOT
BRANCH  10  15
ATOM     15  C   UNL     1     -15.236   4.092  31.626  0.00  0.00    -0.042 A 
ATOM     16  C   UNL     1     -15.940   3.527  32.689  0.00  0.00    +0.007 A 
ATOM     17  C   UNL     1     -15.355   5.455  31.356  0.00  0.00    +0.007 A 
ATOM     19  C   UNL     1     -16.764   4.326  33.483  0.00  0.00    +0.046 A 
ATOM     20  C   UNL     1     -16.178   6.253  32.150  0.00  0.00    +0.046 A 
ATOM     22  C   UNL     1     -16.883   5.689  33.214  0.00  0.00    +0.120 A 
BRANCH  22   8
ATOM      8  O   UNL     1     -17.686   6.469  33.988  0.00  0.00    -0.495 OA
ATOM     28  C   UNL     1     -18.474   5.807  34.977  0.00  0.00    +0.277 C 
ENDBRANCH  22   8
ENDBRANCH  10  15
BRANCH  11   9
ATOM      6  O   UNL     1     -17.069   1.849  27.678  0.00  0.00    -0.270 OA
ATOM      9  N   UNL     1     -15.282   3.094  28.475  0.00  0.00    -0.305 N 
ATOM     18  C   UNL     1     -16.253   2.758  27.542  0.00  0.00    +0.248 C 
ATOM     29  H   UNL     1     -14.680   3.893  28.300  0.00  0.00    +0.149 HD
BRANCH  18  21
ATOM      7  O   UNL     1     -16.680   5.251  24.872  0.00  0.00    -0.455 OA
ATOM     21  C   UNL     1     -16.262   3.561  26.293  0.00  0.00    +0.087 A 
ATOM     23  C   UNL     1     -16.855   4.792  26.139  0.00  0.00    +0.220 A 
ATOM     24  C   UNL     1     -15.686   3.242  25.039  0.00  0.00    +0.058 A 
ATOM     25  C   UNL     1     -15.967   4.302  24.209  0.00  0.00    +0.103 A 
ATOM     27  C   UNL     1     -15.654   4.590  22.803  0.00  0.00    +0.086 C 
BRANCH  23  26
ATOM      1  F   UNL     1     -18.824   5.168  27.443  0.00  0.00    -0.163 F 
ATOM      2  F   UNL     1     -17.914   6.904  26.515  0.00  0.00    -0.163 F 
ATOM      3  F   UNL     1     -16.948   5.950  28.213  0.00  0.00    -0.163 F 
ATOM     26  C   UNL     1     -17.611   5.672  27.044  0.00  0.00    +0.451 C 
ENDBRANCH  23  26
ENDBRANCH  18  21
ENDBRANCH  11   9
BRANCH  12   4
ATOM      4  O   UNL     1     -15.028   0.050  29.030  0.00  0.00    -0.387 OA
ATOM     30  H   UNL     1     -14.950  -0.697  29.647  0.00  0.00    +0.210 HD
ENDBRANCH  12   4
BRANCH  14   5
ATOM      5  O   UNL     1     -14.917   0.292  31.764  0.00  0.00    -0.389 OA
ATOM     31  H   UNL     1     -15.700   0.267  31.191  0.00  0.00    +0.210 HD
ENDBRANCH  14   5
TORSDOF 7
ENDMDL
MODEL 10
REMARK VINA RESULT:      -5.8     20.776     21.918
REMARK  Name = 71693878
REMARK  9 active torsions:
REMARK  status: ('A' for Active; 'I' for Inactive)
REMARK    1  A    between atoms: O_4  and  C_12
REMARK    2  A    between atoms: O_5  and  C_14
REMARK    3  A    between atoms: O_8  and  C_22
REMARK    4  A    between atoms: O_8  and  C_28
REMARK    5  A    between atoms: N_9  and  C_11
REMARK    6  A    between atoms: C_10  and  C_15
REMARK    7  A    between atoms: C_18  and  C_21
REMARK    8  A    between atoms: C_23  and  C_26
REMARK    9  A    between atoms: C_25  and  C_27
REMARK                            x       y       z     vdW  Elec       q    Type
REMARK                         _______ _______ _______ _____ _____    ______ ____
ROOT
ATOM     10  C   UNL     1      10.148  -6.561  33.899  0.00  0.00    +0.044 C 
ATOM     11  C   UNL     1       8.681  -6.589  33.411  0.00  0.00    +0.112 C 
ATOM     12  C   UNL     1       7.973  -5.616  34.353  0.00  0.00    +0.164 C 
ATOM     13  C   UNL     1      10.320  -5.208  34.638  0.00  0.00    +0.044 C 
ATOM     14  C   UNL     1       8.982  -4.483  34.501  0.00  0.00    +0.145 C 
ENDROOT
BRANCH  10  15
ATOM     15  C   UNL     1      11.147  -6.795  32.786  0.00  0.00    -0.042 A 
ATOM     16  C   UNL     1      11.413  -8.093  32.350  0.00  0.00    +0.007 A 
ATOM     17  C   UNL     1      11.801  -5.714  32.197  0.00  0.00    +0.007 A 
ATOM     19  C   UNL     1      12.334  -8.310  31.326  0.00  0.00    +0.046 A 
ATOM     20  C   UNL     1      12.722  -5.931  31.171  0.00  0.00    +0.046 A 
ATOM     22  C   UNL     1      12.988  -7.229  30.735  0.00  0.00    +0.120 A 
BRANCH  22   8
ATOM      8  O   UNL     1      13.887  -7.440  29.735  0.00  0.00    -0.495 OA
ATOM     28  C   UNL     1      14.840  -6.407  29.491  0.00  0.00    +0.277 C 
ENDBRANCH  22   8
ENDBRANCH  10  15
BRANCH  11   9
ATOM      6  O   UNL     1       6.348  -7.533  32.028  0.00  0.00    -0.270 OA
ATOM      9  N   UNL     1       8.115  -7.913  33.481  0.00  0.00    -0.305 N 
ATOM     18  C   UNL     1       6.979  -8.279  32.772  0.00  0.00    +0.248 C 
ATOM     29  H   UNL     1       8.601  -8.611  34.036  0.00  0.00    +0.149 HD
BRANCH  18  21
ATOM      7  O   UNL     1       6.053 -11.831  32.540  0.00  0.00    -0.455 OA
ATOM     21  C   UNL     1       6.507  -9.673  32.973  0.00  0.00    +0.087 A 
ATOM     23  C   UNL     1       6.571 -10.679  32.038  0.00  0.00    +0.220 A 
ATOM     24  C   UNL     1       5.911 -10.243  34.123  0.00  0.00    +0.058 A 
ATOM     25  C   UNL     1       5.654 -11.557  33.810  0.00  0.00    +0.103 A 
ATOM     27  C   UNL     1       5.057 -12.672  34.558  0.00  0.00    +0.086 C 
BRANCH  23  26
ATOM      1  F   UNL     1       6.681  -9.700  29.859  0.00  0.00    -0.163 F 
ATOM      2  F   UNL     1       6.673 -11.866  29.963  0.00  0.00    -0.163 F 
ATOM      3  F   UNL     1       8.441 -10.757  30.572  0.00  0.00    -0.163 F 
ATOM     26  C   UNL     1       7.071 -10.748  30.656  0.00  0.00    +0.451 C 
ENDBRANCH  23  26
ENDBRANCH  18  21
ENDBRANCH  11   9
BRANCH  12   4
ATOM      4  O   UNL     1       6.750  -5.146  33.819  0.00  0.00    -0.387 OA
ATOM     30  H   UNL     1       6.726  -4.183  33.949  0.00  0.00    +0.210 HD
ENDBRANCH  12   4
BRANCH  14   5
ATOM      5  O   UNL     1       9.018  -3.675  33.329  0.00  0.00    -0.389 OA
ATOM     31  H   UNL     1       8.405  -2.934  33.467  0.00  0.00    +0.210 HD
ENDBRANCH  14   5
TORSDOF 7
ENDMDL
