MODEL 1
REMARK VINA RESULT:      -6.6      0.000      0.000
REMARK  Name = 11882854
REMARK  12 active torsions:
REMARK  status: ('A' for Active; 'I' for Inactive)
REMARK    1  A    between atoms: O_2  and  C_16
REMARK    2  A    between atoms: O_3  and  C_21
REMARK    3  A    between atoms: O_7  and  C_38
REMARK    4  A    between atoms: O_7  and  C_39
REMARK    5  A    between atoms: N_9  and  C_27
REMARK    6  A    between atoms: C_11  and  C_19
REMARK    7  A    between atoms: C_13  and  C_21
REMARK    8  A    between atoms: C_13  and  C_22
REMARK    9  A    between atoms: C_14  and  C_24
REMARK   10  A    between atoms: C_24  and  C_25
REMARK   11  A    between atoms: C_27  and  C_29
REMARK   12  A    between atoms: C_28  and  C_30
REMARK                            x       y       z     vdW  Elec       q    Type
REMARK                         _______ _______ _______ _____ _____    ______ ____
ROOT
ATOM      1  S   UNL     1     -10.217 -12.662  20.190  0.00  0.00    -0.057 S 
ATOM      5  O   UNL     1     -13.295  -9.243  19.473  0.00  0.00    -0.270 OA
ATOM      8  N   UNL     1     -10.680 -10.486  18.870  0.00  0.00    -0.229 NA
ATOM     10  N   UNL     1     -12.396 -11.218  20.396  0.00  0.00    -0.261 N 
ATOM     11  C   UNL     1      -7.081 -10.706  17.502  0.00  0.00    -0.019 C 
ATOM     12  C   UNL     1      -7.074 -12.297  17.556  0.00  0.00    +0.011 C 
ATOM     13  C   UNL     1      -5.719 -13.020  17.195  0.00  0.00    +0.021 C 
ATOM     14  C   UNL     1      -8.602 -10.221  17.462  0.00  0.00    +0.054 C 
ATOM     15  C   UNL     1      -6.382 -10.230  16.202  0.00  0.00    +0.010 C 
ATOM     16  C   UNL     1      -5.134 -12.394  15.897  0.00  0.00    +0.123 C 
ATOM     17  C   UNL     1      -7.738 -12.826  18.861  0.00  0.00    +0.049 C 
ATOM     18  C   UNL     1      -5.024 -10.874  15.961  0.00  0.00    +0.032 C 
ATOM     19  C   UNL     1      -6.366 -10.060  18.714  0.00  0.00    +0.012 C 
ATOM     20  C   UNL     1      -9.429 -10.942  18.496  0.00  0.00    +0.058 A 
ATOM     22  C   UNL     1      -6.008 -14.519  16.896  0.00  0.00    +0.016 C 
ATOM     23  C   UNL     1      -9.030 -12.118  19.097  0.00  0.00    +0.015 A 
ATOM     26  C   UNL     1     -11.185 -11.309  19.763  0.00  0.00    +0.165 A 
ATOM     28  C   UNL     1     -13.362 -10.213  20.220  0.00  0.00    +0.250 C 
ATOM     43  H   UNL     1     -12.588 -11.996  21.018  0.00  0.00    +0.157 HD
ENDROOT
BRANCH  28  30
ATOM     30  C   UNL     1     -14.606 -10.380  21.017  0.00  0.00    +0.037 A 
ATOM     32  C   UNL     1     -15.578  -9.380  21.011  0.00  0.00    +0.016 A 
ATOM     33  C   UNL     1     -14.802 -11.538  21.769  0.00  0.00    +0.016 A 
ATOM     36  C   UNL     1     -16.745  -9.537  21.758  0.00  0.00    +0.046 A 
ATOM     37  C   UNL     1     -15.969 -11.695  22.517  0.00  0.00    +0.046 A 
ATOM     38  C   UNL     1     -16.941 -10.695  22.512  0.00  0.00    +0.120 A 
BRANCH  38   7
ATOM      7  O   UNL     1     -18.081 -10.849  23.239  0.00  0.00    -0.495 OA
ATOM     39  C   UNL     1     -19.170  -9.980  22.932  0.00  0.00    +0.277 C 
ENDBRANCH  38   7
ENDBRANCH  28  30
BRANCH  16   2
ATOM      2  O   UNL     1      -3.844 -12.935  15.615  0.00  0.00    -0.391 OA
ATOM     40  H   UNL     1      -3.265 -12.199  15.357  0.00  0.00    +0.210 HD
ENDBRANCH  16   2
BRANCH  13  21
ATOM     21  C   UNL     1      -4.670 -13.018  18.329  0.00  0.00    +0.165 C 
BRANCH  21   3
ATOM      3  O   UNL     1      -4.061 -14.289  18.356  0.00  0.00    -0.394 OA
ATOM     41  H   UNL     1      -3.882 -14.505  19.287  0.00  0.00    +0.209 HD
ENDBRANCH  21   3
ENDBRANCH  13  21
BRANCH  14  24
ATOM     24  C   UNL     1      -8.790  -8.701  17.555  0.00  0.00    +0.106 C 
BRANCH  24  25
ATOM      4  O   UNL     1      -9.449  -8.650  15.226  0.00  0.00    -0.276 OA
ATOM      9  N   UNL     1     -10.208  -6.993  16.669  0.00  0.00    -0.308 N 
ATOM     25  C   UNL     1      -9.502  -8.142  16.344  0.00  0.00    +0.214 C 
ATOM     42  H   UNL     1     -10.199  -6.661  17.630  0.00  0.00    +0.149 HD
BRANCH   9  27
ATOM     27  C   UNL     1     -10.980  -6.242  15.706  0.00  0.00    +0.178 C 
BRANCH  27  29
ATOM      6  O   UNL     1     -13.296  -5.978  15.027  0.00  0.00    -0.466 OA
ATOM     29  C   UNL     1     -12.395  -6.736  15.704  0.00  0.00    +0.122 A 
ATOM     31  C   UNL     1     -13.009  -7.835  16.260  0.00  0.00    +0.046 A 
ATOM     34  C   UNL     1     -14.375  -7.745  15.901  0.00  0.00    +0.041 A 
ATOM     35  C   UNL     1     -14.498  -6.599  15.152  0.00  0.00    +0.195 A 
ENDBRANCH  27  29
ENDBRANCH   9  27
ENDBRANCH  24  25
ENDBRANCH  14  24
TORSDOF 9
ENDMDL
MODEL 2
REMARK VINA RESULT:      -6.6      6.066     12.129
REMARK  Name = 11882854
REMARK  12 active torsions:
REMARK  status: ('A' for Active; 'I' for Inactive)
REMARK    1  A    between atoms: O_2  and  C_16
REMARK    2  A    between atoms: O_3  and  C_21
REMARK    3  A    between atoms: O_7  and  C_38
REMARK    4  A    between atoms: O_7  and  C_39
REMARK    5  A    between atoms: N_9  and  C_27
REMARK    6  A    between atoms: C_11  and  C_19
REMARK    7  A    between atoms: C_13  and  C_21
REMARK    8  A    between atoms: C_13  and  C_22
REMARK    9  A    between atoms: C_14  and  C_24
REMARK   10  A    between atoms: C_24  and  C_25
REMARK   11  A    between atoms: C_27  and  C_29
REMARK   12  A    between atoms: C_28  and  C_30
REMARK                            x       y       z     vdW  Elec       q    Type
REMARK                         _______ _______ _______ _____ _____    ______ ____
ROOT
ATOM      1  S   UNL     1      -7.396 -11.586  12.413  0.00  0.00    -0.057 S 
ATOM      5  O   UNL     1      -3.360 -11.462  10.096  0.00  0.00    -0.270 OA
ATOM      8  N   UNL     1      -4.825 -11.470  12.666  0.00  0.00    -0.229 NA
ATOM     10  N   UNL     1      -5.693 -11.554  10.420  0.00  0.00    -0.261 N 
ATOM     11  C   UNL     1      -5.350 -11.011  16.459  0.00  0.00    -0.019 C 
ATOM     12  C   UNL     1      -6.685 -11.876  16.458  0.00  0.00    +0.011 C 
ATOM     13  C   UNL     1      -7.485 -11.960  17.816  0.00  0.00    +0.021 C 
ATOM     14  C   UNL     1      -4.500 -11.415  15.168  0.00  0.00    +0.054 C 
ATOM     15  C   UNL     1      -4.514 -11.351  17.720  0.00  0.00    +0.010 C 
ATOM     16  C   UNL     1      -6.495 -12.261  18.976  0.00  0.00    +0.123 C 
ATOM     17  C   UNL     1      -7.576 -11.548  15.225  0.00  0.00    +0.049 C 
ATOM     18  C   UNL     1      -5.309 -11.304  19.017  0.00  0.00    +0.032 C 
ATOM     19  C   UNL     1      -5.621  -9.486  16.440  0.00  0.00    +0.012 C 
ATOM     20  C   UNL     1      -5.369 -11.456  13.937  0.00  0.00    +0.058 A 
ATOM     22  C   UNL     1      -8.487 -13.147  17.742  0.00  0.00    +0.016 C 
ATOM     23  C   UNL     1      -6.746 -11.534  13.986  0.00  0.00    +0.015 A 
ATOM     26  C   UNL     1      -5.799 -11.530  11.785  0.00  0.00    +0.165 A 
ATOM     28  C   UNL     1      -4.507 -11.520   9.668  0.00  0.00    +0.250 C 
ATOM     43  H   UNL     1      -6.586 -11.644   9.946  0.00  0.00    +0.157 HD
ENDROOT
BRANCH  28  30
ATOM     30  C   UNL     1      -4.685 -11.590   8.194  0.00  0.00    +0.037 A 
ATOM     32  C   UNL     1      -5.405 -10.597   7.530  0.00  0.00    +0.016 A 
ATOM     33  C   UNL     1      -4.132 -12.649   7.474  0.00  0.00    +0.016 A 
ATOM     36  C   UNL     1      -5.572 -10.662   6.147  0.00  0.00    +0.046 A 
ATOM     37  C   UNL     1      -4.299 -12.715   6.091  0.00  0.00    +0.046 A 
ATOM     38  C   UNL     1      -5.019 -11.722   5.427  0.00  0.00    +0.120 A 
BRANCH  38   7
ATOM      7  O   UNL     1      -5.180 -11.784   4.077  0.00  0.00    -0.495 OA
ATOM     39  C   UNL     1      -4.288 -12.632   3.355  0.00  0.00    +0.277 C 
ENDBRANCH  38   7
ENDBRANCH  28  30
BRANCH  16   2
ATOM      2  O   UNL     1      -7.167 -12.214  20.235  0.00  0.00    -0.391 OA
ATOM     40  H   UNL     1      -6.516 -11.947  20.906  0.00  0.00    +0.210 HD
ENDBRANCH  16   2
BRANCH  13  21
ATOM     21  C   UNL     1      -8.342 -10.714  18.132  0.00  0.00    +0.165 C 
BRANCH  21   3
ATOM      3  O   UNL     1      -9.479 -11.142  18.848  0.00  0.00    -0.394 OA
ATOM     41  H   UNL     1      -9.766 -11.985  18.458  0.00  0.00    +0.209 HD
ENDBRANCH  21   3
ENDBRANCH  13  21
BRANCH  14  24
ATOM     24  C   UNL     1      -3.243 -10.564  14.939  0.00  0.00    +0.106 C 
BRANCH  24  25
ATOM      4  O   UNL     1      -0.986 -11.188  15.550  0.00  0.00    -0.276 OA
ATOM      9  N   UNL     1      -2.135 -12.446  13.969  0.00  0.00    -0.308 N 
ATOM     25  C   UNL     1      -1.991 -11.408  14.878  0.00  0.00    +0.214 C 
ATOM     42  H   UNL     1      -3.015 -12.551  13.471  0.00  0.00    +0.149 HD
BRANCH   9  27
ATOM     27  C   UNL     1      -1.094 -13.411  13.700  0.00  0.00    +0.178 C 
BRANCH  27  29
ATOM      6  O   UNL     1      -2.766 -14.958  14.539  0.00  0.00    -0.466 OA
ATOM     29  C   UNL     1      -1.665 -14.794  13.759  0.00  0.00    +0.122 A 
ATOM     31  C   UNL     1      -1.306 -15.987  13.174  0.00  0.00    +0.046 A 
ATOM     34  C   UNL     1      -2.247 -16.944  13.623  0.00  0.00    +0.041 A 
ATOM     35  C   UNL     1      -3.114 -16.268  14.450  0.00  0.00    +0.195 A 
ENDBRANCH  27  29
ENDBRANCH   9  27
ENDBRANCH  24  25
ENDBRANCH  14  24
TORSDOF 9
ENDMDL
MODEL 3
REMARK VINA RESULT:      -6.6      6.847     11.053
REMARK  Name = 11882854
REMARK  12 active torsions:
REMARK  status: ('A' for Active; 'I' for Inactive)
REMARK    1  A    between atoms: O_2  and  C_16
REMARK    2  A    between atoms: O_3  and  C_21
REMARK    3  A    between atoms: O_7  and  C_38
REMARK    4  A    between atoms: O_7  and  C_39
REMARK    5  A    between atoms: N_9  and  C_27
REMARK    6  A    between atoms: C_11  and  C_19
REMARK    7  A    between atoms: C_13  and  C_21
REMARK    8  A    between atoms: C_13  and  C_22
REMARK    9  A    between atoms: C_14  and  C_24
REMARK   10  A    between atoms: C_24  and  C_25
REMARK   11  A    between atoms: C_27  and  C_29
REMARK   12  A    between atoms: C_28  and  C_30
REMARK                            x       y       z     vdW  Elec       q    Type
REMARK                         _______ _______ _______ _____ _____    ______ ____
ROOT
ATOM      1  S   UNL     1      -9.111  -9.301  11.805  0.00  0.00    -0.057 S 
ATOM      5  O   UNL     1      -5.035 -10.102  13.906  0.00  0.00    -0.270 OA
ATOM      8  N   UNL     1      -6.573  -9.625  11.425  0.00  0.00    -0.229 NA
ATOM     10  N   UNL     1      -7.356  -9.750  13.701  0.00  0.00    -0.261 N 
ATOM     11  C   UNL     1      -7.263  -9.541   7.631  0.00  0.00    -0.019 C 
ATOM     12  C   UNL     1      -8.505  -8.561   7.800  0.00  0.00    +0.011 C 
ATOM     13  C   UNL     1      -9.336  -8.228   6.500  0.00  0.00    +0.021 C 
ATOM     14  C   UNL     1      -6.336  -9.389   8.924  0.00  0.00    +0.054 C 
ATOM     15  C   UNL     1      -6.439  -9.122   6.387  0.00  0.00    +0.010 C 
ATOM     16  C   UNL     1      -8.359  -7.875   5.344  0.00  0.00    +0.123 C 
ATOM     17  C   UNL     1      -9.385  -8.960   9.021  0.00  0.00    +0.049 C 
ATOM     18  C   UNL     1      -7.276  -8.926   5.131  0.00  0.00    +0.032 C 
ATOM     19  C   UNL     1      -7.683 -11.023   7.472  0.00  0.00    +0.012 C 
ATOM     20  C   UNL     1      -7.157  -9.424  10.188  0.00  0.00    +0.058 A 
ATOM     22  C   UNL     1     -10.213  -6.971   6.767  0.00  0.00    +0.016 C 
ATOM     23  C   UNL     1      -8.520  -9.212  10.210  0.00  0.00    +0.015 A 
ATOM     26  C   UNL     1      -7.508  -9.588  12.349  0.00  0.00    +0.165 A 
ATOM     28  C   UNL     1      -6.156  -9.992  14.388  0.00  0.00    +0.250 C 
ATOM     43  H   UNL     1      -8.220  -9.638  14.221  0.00  0.00    +0.157 HD
ENDROOT
BRANCH  28  30
ATOM     30  C   UNL     1      -6.279 -10.096  15.867  0.00  0.00    +0.037 A 
ATOM     32  C   UNL     1      -5.208 -10.568  16.624  0.00  0.00    +0.016 A 
ATOM     33  C   UNL     1      -7.466  -9.719  16.495  0.00  0.00    +0.016 A 
ATOM     36  C   UNL     1      -5.323 -10.665  18.011  0.00  0.00    +0.046 A 
ATOM     37  C   UNL     1      -7.581  -9.816  17.882  0.00  0.00    +0.046 A 
ATOM     38  C   UNL     1      -6.510 -10.289  18.641  0.00  0.00    +0.120 A 
BRANCH  38   7
ATOM      7  O   UNL     1      -6.622 -10.381  19.993  0.00  0.00    -0.495 OA
ATOM     39  C   UNL     1      -5.893 -11.426  20.636  0.00  0.00    +0.277 C 
ENDBRANCH  38   7
ENDBRANCH  28  30
BRANCH  16   2
ATOM      2  O   UNL     1      -9.072  -7.696   4.121  0.00  0.00    -0.391 OA
ATOM     40  H   UNL     1      -8.508  -7.176   3.524  0.00  0.00    +0.210 HD
ENDBRANCH  16   2
BRANCH  13  21
ATOM     21  C   UNL     1     -10.322  -9.337   6.070  0.00  0.00    +0.165 C 
BRANCH  21   3
ATOM      3  O   UNL     1     -11.451  -8.714   5.499  0.00  0.00    -0.394 OA
ATOM     41  H   UNL     1     -11.614  -7.897   6.000  0.00  0.00    +0.209 HD
ENDBRANCH  21   3
ENDBRANCH  13  21
BRANCH  14  24
ATOM     24  C   UNL     1      -5.163 -10.376   8.988  0.00  0.00    +0.106 C 
BRANCH  24  25
ATOM      4  O   UNL     1      -3.438  -8.688   9.172  0.00  0.00    -0.276 OA
ATOM      9  N   UNL     1      -3.414 -10.515  10.610  0.00  0.00    -0.308 N 
ATOM     25  C   UNL     1      -3.921  -9.744   9.574  0.00  0.00    +0.214 C 
ATOM     42  H   UNL     1      -3.897 -11.368  10.877  0.00  0.00    +0.149 HD
BRANCH   9  27
ATOM     27  C   UNL     1      -2.227 -10.156  11.353  0.00  0.00    +0.178 C 
BRANCH  27  29
ATOM      6  O   UNL     1      -1.803 -10.449  13.725  0.00  0.00    -0.466 OA
ATOM     29  C   UNL     1      -2.091 -11.055  12.543  0.00  0.00    +0.122 A 
ATOM     31  C   UNL     1      -2.197 -12.417  12.712  0.00  0.00    +0.046 A 
ATOM     34  C   UNL     1      -1.960 -12.662  14.085  0.00  0.00    +0.041 A 
ATOM     35  C   UNL     1      -1.725 -11.434  14.658  0.00  0.00    +0.195 A 
ENDBRANCH  27  29
ENDBRANCH   9  27
ENDBRANCH  24  25
ENDBRANCH  14  24
TORSDOF 9
ENDMDL
MODEL 4
REMARK VINA RESULT:      -6.5     20.216     22.525
REMARK  Name = 11882854
REMARK  12 active torsions:
REMARK  status: ('A' for Active; 'I' for Inactive)
REMARK    1  A    between atoms: O_2  and  C_16
REMARK    2  A    between atoms: O_3  and  C_21
REMARK    3  A    between atoms: O_7  and  C_38
REMARK    4  A    between atoms: O_7  and  C_39
REMARK    5  A    between atoms: N_9  and  C_27
REMARK    6  A    between atoms: C_11  and  C_19
REMARK    7  A    between atoms: C_13  and  C_21
REMARK    8  A    between atoms: C_13  and  C_22
REMARK    9  A    between atoms: C_14  and  C_24
REMARK   10  A    between atoms: C_24  and  C_25
REMARK   11  A    between atoms: C_27  and  C_29
REMARK   12  A    between atoms: C_28  and  C_30
REMARK                            x       y       z     vdW  Elec       q    Type
REMARK                         _______ _______ _______ _____ _____    ______ ____
ROOT
ATOM      1  S   UNL     1      -6.331  -9.284  38.478  0.00  0.00    -0.057 S 
ATOM      5  O   UNL     1     -10.963  -9.165  38.930  0.00  0.00    -0.270 OA
ATOM      8  N   UNL     1      -8.293  -8.236  39.798  0.00  0.00    -0.229 NA
ATOM     10  N   UNL     1      -8.867  -9.806  38.062  0.00  0.00    -0.261 N 
ATOM     11  C   UNL     1      -5.683  -6.577  42.102  0.00  0.00    -0.019 C 
ATOM     12  C   UNL     1      -4.608  -6.466  40.934  0.00  0.00    +0.011 C 
ATOM     13  C   UNL     1      -3.177  -5.928  41.327  0.00  0.00    +0.021 C 
ATOM     14  C   UNL     1      -7.127  -6.706  41.431  0.00  0.00    +0.054 C 
ATOM     15  C   UNL     1      -5.655  -5.282  42.956  0.00  0.00    +0.010 C 
ATOM     16  C   UNL     1      -3.332  -4.661  42.215  0.00  0.00    +0.123 C 
ATOM     17  C   UNL     1      -4.575  -7.756  40.065  0.00  0.00    +0.049 C 
ATOM     18  C   UNL     1      -4.260  -4.872  43.406  0.00  0.00    +0.032 C 
ATOM     19  C   UNL     1      -5.438  -7.790  43.032  0.00  0.00    +0.012 C 
ATOM     20  C   UNL     1      -7.119  -7.720  40.317  0.00  0.00    +0.058 A 
ATOM     22  C   UNL     1      -2.424  -5.499  40.036  0.00  0.00    +0.016 C 
ATOM     23  C   UNL     1      -5.964  -8.164  39.706  0.00  0.00    +0.015 A 
ATOM     26  C   UNL     1      -7.999  -9.075  38.829  0.00  0.00    +0.165 A 
ATOM     28  C   UNL     1     -10.269  -9.810  38.153  0.00  0.00    +0.250 C 
ATOM     43  H   UNL     1      -8.408 -10.357  37.345  0.00  0.00    +0.157 HD
ENDROOT
BRANCH  28  30
ATOM     30  C   UNL     1     -10.967 -10.680  37.169  0.00  0.00    +0.037 A 
ATOM     32  C   UNL     1     -12.205 -10.296  36.654  0.00  0.00    +0.016 A 
ATOM     33  C   UNL     1     -10.384 -11.879  36.761  0.00  0.00    +0.016 A 
ATOM     36  C   UNL     1     -12.860 -11.112  35.731  0.00  0.00    +0.046 A 
ATOM     37  C   UNL     1     -11.038 -12.695  35.839  0.00  0.00    +0.046 A 
ATOM     38  C   UNL     1     -12.276 -12.312  35.323  0.00  0.00    +0.120 A 
BRANCH  38   7
ATOM      7  O   UNL     1     -12.914 -13.107  34.421  0.00  0.00    -0.495 OA
ATOM     39  C   UNL     1     -14.231 -12.719  34.031  0.00  0.00    +0.277 C 
ENDBRANCH  38   7
ENDBRANCH  28  30
BRANCH  16   2
ATOM      2  O   UNL     1      -2.061  -4.225  42.695  0.00  0.00    -0.391 OA
ATOM     40  H   UNL     1      -1.729  -4.903  43.308  0.00  0.00    +0.210 HD
ENDBRANCH  16   2
BRANCH  13  21
ATOM     21  C   UNL     1      -2.266  -6.972  42.011  0.00  0.00    +0.165 C 
BRANCH  21   3
ATOM      3  O   UNL     1      -0.931  -6.658  41.686  0.00  0.00    -0.394 OA
ATOM     41  H   UNL     1      -0.595  -7.373  41.119  0.00  0.00    +0.209 HD
ENDBRANCH  21   3
ENDBRANCH  13  21
BRANCH  14  24
ATOM     24  C   UNL     1      -8.270  -6.969  42.422  0.00  0.00    +0.106 C 
BRANCH  24  25
ATOM      4  O   UNL     1      -9.507  -5.156  43.441  0.00  0.00    -0.276 OA
ATOM      9  N   UNL     1      -9.877  -5.683  41.208  0.00  0.00    -0.308 N 
ATOM     25  C   UNL     1      -9.271  -5.837  42.446  0.00  0.00    +0.214 C 
ATOM     42  H   UNL     1      -9.600  -6.291  40.441  0.00  0.00    +0.149 HD
BRANCH   9  27
ATOM     27  C   UNL     1     -10.880  -4.678  40.939  0.00  0.00    +0.178 C 
BRANCH  27  29
ATOM      6  O   UNL     1     -10.772  -2.992  39.196  0.00  0.00    -0.466 OA
ATOM     29  C   UNL     1     -10.229  -3.465  40.348  0.00  0.00    +0.122 A 
ATOM     31  C   UNL     1      -9.158  -2.691  40.731  0.00  0.00    +0.046 A 
ATOM     34  C   UNL     1      -9.035  -1.678  39.751  0.00  0.00    +0.041 A 
ATOM     35  C   UNL     1     -10.040  -1.904  38.839  0.00  0.00    +0.195 A 
ENDBRANCH  27  29
ENDBRANCH   9  27
ENDBRANCH  24  25
ENDBRANCH  14  24
TORSDOF 9
ENDMDL
MODEL 5
REMARK VINA RESULT:      -6.5      5.983     10.110
REMARK  Name = 11882854
REMARK  12 active torsions:
REMARK  status: ('A' for Active; 'I' for Inactive)
REMARK    1  A    between atoms: O_2  and  C_16
REMARK    2  A    between atoms: O_3  and  C_21
REMARK    3  A    between atoms: O_7  and  C_38
REMARK    4  A    between atoms: O_7  and  C_39
REMARK    5  A    between atoms: N_9  and  C_27
REMARK    6  A    between atoms: C_11  and  C_19
REMARK    7  A    between atoms: C_13  and  C_21
REMARK    8  A    between atoms: C_13  and  C_22
REMARK    9  A    between atoms: C_14  and  C_24
REMARK   10  A    between atoms: C_24  and  C_25
REMARK   11  A    between atoms: C_27  and  C_29
REMARK   12  A    between atoms: C_28  and  C_30
REMARK                            x       y       z     vdW  Elec       q    Type
REMARK                         _______ _______ _______ _____ _____    ______ ____
ROOT
ATOM      1  S   UNL     1      -5.036  -9.635  10.096  0.00  0.00    -0.057 S 
ATOM      5  O   UNL     1      -9.519  -8.395   9.892  0.00  0.00    -0.270 OA
ATOM      8  N   UNL     1      -7.215  -9.376  11.465  0.00  0.00    -0.229 NA
ATOM     10  N   UNL     1      -7.326  -8.800   9.128  0.00  0.00    -0.261 N 
ATOM     11  C   UNL     1      -5.377 -10.989  14.448  0.00  0.00    -0.019 C 
ATOM     12  C   UNL     1      -3.968 -10.402  13.997  0.00  0.00    +0.011 C 
ATOM     13  C   UNL     1      -2.706 -10.850  14.832  0.00  0.00    +0.021 C 
ATOM     14  C   UNL     1      -6.520 -10.092  13.783  0.00  0.00    +0.054 C 
ATOM     15  C   UNL     1      -5.510 -10.888  15.989  0.00  0.00    +0.010 C 
ATOM     16  C   UNL     1      -3.025 -10.730  16.348  0.00  0.00    +0.123 C 
ATOM     17  C   UNL     1      -3.772 -10.510  12.457  0.00  0.00    +0.049 C 
ATOM     18  C   UNL     1      -4.313 -11.441  16.749  0.00  0.00    +0.032 C 
ATOM     19  C   UNL     1      -5.575 -12.467  14.029  0.00  0.00    +0.012 C 
ATOM     20  C   UNL     1      -6.238  -9.848  12.323  0.00  0.00    +0.058 A 
ATOM     22  C   UNL     1      -1.527  -9.882  14.528  0.00  0.00    +0.016 C 
ATOM     23  C   UNL     1      -4.994 -10.025  11.753  0.00  0.00    +0.015 A 
ATOM     26  C   UNL     1      -6.698  -9.234  10.265  0.00  0.00    +0.165 A 
ATOM     28  C   UNL     1      -8.671  -8.414   9.007  0.00  0.00    +0.250 C 
ATOM     43  H   UNL     1      -6.709  -8.732   8.325  0.00  0.00    +0.157 HD
ENDROOT
BRANCH  28  30
ATOM     30  C   UNL     1      -9.082  -7.954   7.654  0.00  0.00    +0.037 A 
ATOM     32  C   UNL     1     -10.301  -7.301   7.479  0.00  0.00    +0.016 A 
ATOM     33  C   UNL     1      -8.246  -8.176   6.559  0.00  0.00    +0.016 A 
ATOM     36  C   UNL     1     -10.686  -6.869   6.210  0.00  0.00    +0.046 A 
ATOM     37  C   UNL     1      -8.631  -7.745   5.289  0.00  0.00    +0.046 A 
ATOM     38  C   UNL     1      -9.851  -7.092   5.114  0.00  0.00    +0.120 A 
BRANCH  38   7
ATOM      7  O   UNL     1     -10.225  -6.669   3.876  0.00  0.00    -0.495 OA
ATOM     39  C   UNL     1      -9.245  -6.742   2.841  0.00  0.00    +0.277 C 
ENDBRANCH  38   7
ENDBRANCH  28  30
BRANCH  16   2
ATOM      2  O   UNL     1      -1.951 -11.251  17.131  0.00  0.00    -0.391 OA
ATOM     40  H   UNL     1      -1.205 -10.632  17.056  0.00  0.00    +0.210 HD
ENDBRANCH  16   2
BRANCH  13  21
ATOM     21  C   UNL     1      -2.181 -12.262  14.489  0.00  0.00    +0.165 C 
BRANCH  21   3
ATOM      3  O   UNL     1      -0.807 -12.300  14.805  0.00  0.00    -0.394 OA
ATOM     41  H   UNL     1      -0.356 -12.771  14.083  0.00  0.00    +0.209 HD
ENDBRANCH  21   3
ENDBRANCH  13  21
BRANCH  14  24
ATOM     24  C   UNL     1      -7.947 -10.613  14.000  0.00  0.00    +0.106 C 
BRANCH  24  25
ATOM      4  O   UNL     1      -9.797  -9.060  13.837  0.00  0.00    -0.276 OA
ATOM      9  N   UNL     1      -8.543  -9.149  15.793  0.00  0.00    -0.308 N 
ATOM     25  C   UNL     1      -8.876  -9.530  14.501  0.00  0.00    +0.214 C 
ATOM     42  H   UNL     1      -7.769  -9.611  16.263  0.00  0.00    +0.149 HD
BRANCH   9  27
ATOM     27  C   UNL     1      -9.259  -8.128  16.523  0.00  0.00    +0.178 C 
BRANCH  27  29
ATOM      6  O   UNL     1      -9.888  -9.624  18.330  0.00  0.00    -0.466 OA
ATOM     29  C   UNL     1     -10.319  -8.767  17.367  0.00  0.00    +0.122 A 
ATOM     31  C   UNL     1     -11.692  -8.673  17.384  0.00  0.00    +0.046 A 
ATOM     34  C   UNL     1     -12.131  -9.527  18.423  0.00  0.00    +0.041 A 
ATOM     35  C   UNL     1     -10.996 -10.082  18.968  0.00  0.00    +0.195 A 
ENDBRANCH  27  29
ENDBRANCH   9  27
ENDBRANCH  24  25
ENDBRANCH  14  24
TORSDOF 9
ENDMDL
MODEL 6
REMARK VINA RESULT:      -6.5      5.330      9.475
REMARK  Name = 11882854
REMARK  12 active torsions:
REMARK  status: ('A' for Active; 'I' for Inactive)
REMARK    1  A    between atoms: O_2  and  C_16
REMARK    2  A    between atoms: O_3  and  C_21
REMARK    3  A    between atoms: O_7  and  C_38
REMARK    4  A    between atoms: O_7  and  C_39
REMARK    5  A    between atoms: N_9  and  C_27
REMARK    6  A    between atoms: C_11  and  C_19
REMARK    7  A    between atoms: C_13  and  C_21
REMARK    8  A    between atoms: C_13  and  C_22
REMARK    9  A    between atoms: C_14  and  C_24
REMARK   10  A    between atoms: C_24  and  C_25
REMARK   11  A    between atoms: C_27  and  C_29
REMARK   12  A    between atoms: C_28  and  C_30
REMARK                            x       y       z     vdW  Elec       q    Type
REMARK                         _______ _______ _______ _____ _____    ______ ____
ROOT
ATOM      1  S   UNL     1      -5.825 -10.800  12.621  0.00  0.00    -0.057 S 
ATOM      5  O   UNL     1      -9.219  -8.436  10.485  0.00  0.00    -0.270 OA
ATOM      8  N   UNL     1      -8.085  -9.590  12.961  0.00  0.00    -0.229 NA
ATOM     10  N   UNL     1      -7.200  -9.630  10.720  0.00  0.00    -0.261 N 
ATOM     11  C   UNL     1      -8.051 -10.830  16.613  0.00  0.00    -0.019 C 
ATOM     12  C   UNL     1      -6.461 -10.804  16.689  0.00  0.00    +0.011 C 
ATOM     13  C   UNL     1      -5.798 -11.360  18.009  0.00  0.00    +0.021 C 
ATOM     14  C   UNL     1      -8.504  -9.849  15.436  0.00  0.00    +0.054 C 
ATOM     15  C   UNL     1      -8.641 -10.300  17.945  0.00  0.00    +0.010 C 
ATOM     16  C   UNL     1      -6.536 -10.767  19.242  0.00  0.00    +0.123 C 
ATOM     17  C   UNL     1      -5.819 -11.357  15.383  0.00  0.00    +0.049 C 
ATOM     18  C   UNL     1      -8.048 -10.955  19.185  0.00  0.00    +0.032 C 
ATOM     19  C   UNL     1      -8.617 -12.247  16.348  0.00  0.00    +0.012 C 
ATOM     20  C   UNL     1      -7.687 -10.081  14.191  0.00  0.00    +0.058 A 
ATOM     22  C   UNL     1      -4.321 -10.878  18.076  0.00  0.00    +0.016 C 
ATOM     23  C   UNL     1      -6.477 -10.744  14.193  0.00  0.00    +0.015 A 
ATOM     26  C   UNL     1      -7.185  -9.915  12.059  0.00  0.00    +0.165 A 
ATOM     28  C   UNL     1      -8.194  -8.923  10.023  0.00  0.00    +0.250 C 
ATOM     43  H   UNL     1      -6.372  -9.950  10.229  0.00  0.00    +0.157 HD
ENDROOT
BRANCH  28  30
ATOM     30  C   UNL     1      -7.938  -8.732   8.570  0.00  0.00    +0.037 A 
ATOM     32  C   UNL     1      -7.188  -9.672   7.865  0.00  0.00    +0.016 A 
ATOM     33  C   UNL     1      -8.450  -7.613   7.914  0.00  0.00    +0.016 A 
ATOM     36  C   UNL     1      -6.949  -9.494   6.502  0.00  0.00    +0.046 A 
ATOM     37  C   UNL     1      -8.210  -7.434   6.551  0.00  0.00    +0.046 A 
ATOM     38  C   UNL     1      -7.460  -8.374   5.845  0.00  0.00    +0.120 A 
BRANCH  38   7
ATOM      7  O   UNL     1      -7.229  -8.201   4.515  0.00  0.00    -0.495 OA
ATOM     39  C   UNL     1      -7.829  -9.140   3.624  0.00  0.00    +0.277 C 
ENDBRANCH  38   7
ENDBRANCH  28  30
BRANCH  16   2
ATOM      2  O   UNL     1      -6.046 -11.350  20.449  0.00  0.00    -0.391 OA
ATOM     40  H   UNL     1      -5.107 -11.562  20.314  0.00  0.00    +0.210 HD
ENDBRANCH  16   2
BRANCH  13  21
ATOM     21  C   UNL     1      -5.736 -12.902  18.092  0.00  0.00    +0.165 C 
BRANCH  21   3
ATOM      3  O   UNL     1      -4.467 -13.256  18.595  0.00  0.00    -0.394 OA
ATOM     41  H   UNL     1      -4.135 -13.992  18.053  0.00  0.00    +0.209 HD
ENDBRANCH  21   3
ENDBRANCH  13  21
BRANCH  14  24
ATOM     24  C   UNL     1     -10.008  -9.869  15.132  0.00  0.00    +0.106 C 
BRANCH  24  25
ATOM      4  O   UNL     1     -11.592  -8.863  16.661  0.00  0.00    -0.276 OA
ATOM      9  N   UNL     1     -10.306  -7.503  15.282  0.00  0.00    -0.308 N 
ATOM     25  C   UNL     1     -10.735  -8.720  15.792  0.00  0.00    +0.214 C 
ATOM     42  H   UNL     1      -9.579  -7.491  14.572  0.00  0.00    +0.149 HD
BRANCH   9  27
ATOM     27  C   UNL     1     -10.832  -6.232  15.725  0.00  0.00    +0.178 C 
BRANCH  27  29
ATOM      6  O   UNL     1     -11.835  -5.034  13.867  0.00  0.00    -0.466 OA
ATOM     29  C   UNL     1     -12.039  -5.878  14.912  0.00  0.00    +0.122 A 
ATOM     31  C   UNL     1     -13.366  -6.236  14.992  0.00  0.00    +0.046 A 
ATOM     34  C   UNL     1     -14.018  -5.567  13.928  0.00  0.00    +0.041 A 
ATOM     35  C   UNL     1     -13.044  -4.850  13.274  0.00  0.00    +0.195 A 
ENDBRANCH  27  29
ENDBRANCH   9  27
ENDBRANCH  24  25
ENDBRANCH  14  24
TORSDOF 9
ENDMDL
MODEL 7
REMARK VINA RESULT:      -6.5     28.152     32.116
REMARK  Name = 11882854
REMARK  12 active torsions:
REMARK  status: ('A' for Active; 'I' for Inactive)
REMARK    1  A    between atoms: O_2  and  C_16
REMARK    2  A    between atoms: O_3  and  C_21
REMARK    3  A    between atoms: O_7  and  C_38
REMARK    4  A    between atoms: O_7  and  C_39
REMARK    5  A    between atoms: N_9  and  C_27
REMARK    6  A    between atoms: C_11  and  C_19
REMARK    7  A    between atoms: C_13  and  C_21
REMARK    8  A    between atoms: C_13  and  C_22
REMARK    9  A    between atoms: C_14  and  C_24
REMARK   10  A    between atoms: C_24  and  C_25
REMARK   11  A    between atoms: C_27  and  C_29
REMARK   12  A    between atoms: C_28  and  C_30
REMARK                            x       y       z     vdW  Elec       q    Type
REMARK                         _______ _______ _______ _____ _____    ______ ____
ROOT
ATOM      1  S   UNL     1      19.634  -5.870  20.312  0.00  0.00    -0.057 S 
ATOM      5  O   UNL     1      21.750  -9.788  21.673  0.00  0.00    -0.270 OA
ATOM      8  N   UNL     1      20.363  -7.268  22.362  0.00  0.00    -0.229 NA
ATOM     10  N   UNL     1      20.891  -8.168  20.191  0.00  0.00    -0.261 N 
ATOM     11  C   UNL     1      19.193  -4.352  24.600  0.00  0.00    -0.019 C 
ATOM     12  C   UNL     1      18.054  -3.920  23.575  0.00  0.00    +0.011 C 
ATOM     13  C   UNL     1      17.245  -2.609  23.916  0.00  0.00    +0.021 C 
ATOM     14  C   UNL     1      19.561  -5.880  24.312  0.00  0.00    +0.054 C 
ATOM     15  C   UNL     1      18.652  -4.245  26.049  0.00  0.00    +0.010 C 
ATOM     16  C   UNL     1      16.820  -2.644  25.411  0.00  0.00    +0.123 C 
ATOM     17  C   UNL     1      18.559  -3.981  22.104  0.00  0.00    +0.049 C 
ATOM     18  C   UNL     1      17.982  -2.914  26.360  0.00  0.00    +0.032 C 
ATOM     19  C   UNL     1      20.470  -3.484  24.481  0.00  0.00    +0.012 C 
ATOM     20  C   UNL     1      19.744  -6.125  22.836  0.00  0.00    +0.058 A 
ATOM     22  C   UNL     1      15.943  -2.582  23.065  0.00  0.00    +0.016 C 
ATOM     23  C   UNL     1      19.271  -5.269  21.863  0.00  0.00    +0.015 A 
ATOM     26  C   UNL     1      20.369  -7.237  21.048  0.00  0.00    +0.165 A 
ATOM     28  C   UNL     1      21.538  -9.365  20.542  0.00  0.00    +0.250 C 
ATOM     43  H   UNL     1      20.740  -7.948  19.212  0.00  0.00    +0.157 HD
ENDROOT
BRANCH  28  30
ATOM     30  C   UNL     1      21.981 -10.208  19.400  0.00  0.00    +0.037 A 
ATOM     32  C   UNL     1      23.271 -10.068  18.890  0.00  0.00    +0.016 A 
ATOM     33  C   UNL     1      21.107 -11.140  18.841  0.00  0.00    +0.016 A 
ATOM     36  C   UNL     1      23.687 -10.860  17.819  0.00  0.00    +0.046 A 
ATOM     37  C   UNL     1      21.522 -11.931  17.770  0.00  0.00    +0.046 A 
ATOM     38  C   UNL     1      22.813 -11.792  17.259  0.00  0.00    +0.120 A 
BRANCH  38   7
ATOM      7  O   UNL     1      23.219 -12.565  16.216  0.00  0.00    -0.495 OA
ATOM     39  C   UNL     1      24.626 -12.696  16.014  0.00  0.00    +0.277 C 
ENDBRANCH  38   7
ENDBRANCH  28  30
BRANCH  16   2
ATOM      2  O   UNL     1      16.198  -1.414  25.785  0.00  0.00    -0.391 OA
ATOM     40  H   UNL     1      16.873  -0.716  25.735  0.00  0.00    +0.210 HD
ENDBRANCH  16   2
BRANCH  13  21
ATOM     21  C   UNL     1      17.986  -1.295  23.583  0.00  0.00    +0.165 C 
BRANCH  21   3
ATOM      3  O   UNL     1      17.459  -0.798  22.373  0.00  0.00    -0.394 OA
ATOM     41  H   UNL     1      18.188  -0.770  21.730  0.00  0.00    +0.209 HD
ENDBRANCH  21   3
ENDBRANCH  13  21
BRANCH  14  24
ATOM     24  C   UNL     1      20.751  -6.413  25.121  0.00  0.00    +0.106 C 
BRANCH  24  25
ATOM      4  O   UNL     1      20.737  -7.664  27.193  0.00  0.00    -0.276 OA
ATOM      9  N   UNL     1      19.510  -8.439  25.377  0.00  0.00    -0.308 N 
ATOM     25  C   UNL     1      20.353  -7.552  26.031  0.00  0.00    +0.214 C 
ATOM     42  H   UNL     1      19.239  -8.249  24.416  0.00  0.00    +0.149 HD
BRANCH   9  27
ATOM     27  C   UNL     1      18.973  -9.626  26.003  0.00  0.00    +0.178 C 
BRANCH  27  29
ATOM      6  O   UNL     1      16.830 -10.688  26.420  0.00  0.00    -0.466 OA
ATOM     29  C   UNL     1      17.477  -9.599  25.929  0.00  0.00    +0.122 A 
ATOM     31  C   UNL     1      16.575  -8.675  25.454  0.00  0.00    +0.046 A 
ATOM     34  C   UNL     1      15.292  -9.233  25.667  0.00  0.00    +0.041 A 
ATOM     35  C   UNL     1      15.501 -10.458  26.257  0.00  0.00    +0.195 A 
ENDBRANCH  27  29
ENDBRANCH   9  27
ENDBRANCH  24  25
ENDBRANCH  14  24
TORSDOF 9
ENDMDL
MODEL 8
REMARK VINA RESULT:      -6.4      4.977     10.771
REMARK  Name = 11882854
REMARK  12 active torsions:
REMARK  status: ('A' for Active; 'I' for Inactive)
REMARK    1  A    between atoms: O_2  and  C_16
REMARK    2  A    between atoms: O_3  and  C_21
REMARK    3  A    between atoms: O_7  and  C_38
REMARK    4  A    between atoms: O_7  and  C_39
REMARK    5  A    between atoms: N_9  and  C_27
REMARK    6  A    between atoms: C_11  and  C_19
REMARK    7  A    between atoms: C_13  and  C_21
REMARK    8  A    between atoms: C_13  and  C_22
REMARK    9  A    between atoms: C_14  and  C_24
REMARK   10  A    between atoms: C_24  and  C_25
REMARK   11  A    between atoms: C_27  and  C_29
REMARK   12  A    between atoms: C_28  and  C_30
REMARK                            x       y       z     vdW  Elec       q    Type
REMARK                         _______ _______ _______ _____ _____    ______ ____
ROOT
ATOM      1  S   UNL     1     -10.443  -9.960  13.143  0.00  0.00    -0.057 S 
ATOM      5  O   UNL     1      -5.982  -9.819  11.820  0.00  0.00    -0.270 OA
ATOM      8  N   UNL     1      -7.996 -10.040  13.975  0.00  0.00    -0.229 NA
ATOM     10  N   UNL     1      -8.329  -9.799  11.601  0.00  0.00    -0.261 N 
ATOM     11  C   UNL     1      -9.359 -10.005  17.583  0.00  0.00    -0.019 C 
ATOM     12  C   UNL     1     -10.688 -10.777  17.171  0.00  0.00    +0.011 C 
ATOM     13  C   UNL     1     -11.781 -10.971  18.293  0.00  0.00    +0.021 C 
ATOM     14  C   UNL     1      -8.251 -10.306  16.471  0.00  0.00    +0.054 C 
ATOM     15  C   UNL     1      -8.847 -10.548  18.942  0.00  0.00    +0.010 C 
ATOM     16  C   UNL     1     -11.094 -11.472  19.595  0.00  0.00    +0.123 C 
ATOM     17  C   UNL     1     -11.261 -10.247  15.824  0.00  0.00    +0.049 C 
ATOM     18  C   UNL     1      -9.916 -10.605  20.024  0.00  0.00    +0.032 C 
ATOM     19  C   UNL     1      -9.564  -8.476  17.703  0.00  0.00    +0.012 C 
ATOM     20  C   UNL     1      -8.816 -10.144  15.083  0.00  0.00    +0.058 A 
ATOM     22  C   UNL     1     -12.780 -12.074  17.843  0.00  0.00    +0.016 C 
ATOM     23  C   UNL     1     -10.169 -10.138  14.814  0.00  0.00    +0.015 A 
ATOM     26  C   UNL     1      -8.744  -9.932  12.899  0.00  0.00    +0.165 A 
ATOM     28  C   UNL     1      -7.002  -9.751  11.143  0.00  0.00    +0.250 C 
ATOM     43  H   UNL     1      -9.092  -9.774  10.932  0.00  0.00    +0.157 HD
ENDROOT
BRANCH  28  30
ATOM     30  C   UNL     1      -6.840  -9.633   9.670  0.00  0.00    +0.037 A 
ATOM     32  C   UNL     1      -5.635  -9.994   9.069  0.00  0.00    +0.016 A 
ATOM     33  C   UNL     1      -7.895  -9.162   8.888  0.00  0.00    +0.016 A 
ATOM     36  C   UNL     1      -5.483  -9.884   7.687  0.00  0.00    +0.046 A 
ATOM     37  C   UNL     1      -7.744  -9.051   7.506  0.00  0.00    +0.046 A 
ATOM     38  C   UNL     1      -6.538  -9.412   6.905  0.00  0.00    +0.120 A 
BRANCH  38   7
ATOM      7  O   UNL     1      -6.392  -9.306   5.556  0.00  0.00    -0.495 OA
ATOM     39  C   UNL     1      -7.264  -8.404   4.877  0.00  0.00    +0.277 C 
ENDBRANCH  38   7
ENDBRANCH  28  30
BRANCH  16   2
ATOM      2  O   UNL     1     -12.034 -11.533  20.667  0.00  0.00    -0.391 OA
ATOM     40  H   UNL     1     -12.759 -12.119  20.391  0.00  0.00    +0.210 HD
ENDBRANCH  16   2
BRANCH  13  21
ATOM     21  C   UNL     1     -12.642  -9.719  18.571  0.00  0.00    +0.165 C 
BRANCH  21   3
ATOM      3  O   UNL     1     -13.934 -10.155  18.929  0.00  0.00    -0.394 OA
ATOM     41  H   UNL     1     -14.199  -9.657  19.721  0.00  0.00    +0.209 HD
ENDBRANCH  21   3
ENDBRANCH  13  21
BRANCH  14  24
ATOM     24  C   UNL     1      -6.946  -9.517  16.642  0.00  0.00    +0.106 C 
BRANCH  24  25
ATOM      4  O   UNL     1      -5.300 -10.615  18.036  0.00  0.00    -0.276 OA
ATOM      9  N   UNL     1      -5.295 -10.991  15.742  0.00  0.00    -0.308 N 
ATOM     25  C   UNL     1      -5.767 -10.422  16.916  0.00  0.00    +0.214 C 
ATOM     42  H   UNL     1      -5.761 -10.778  14.865  0.00  0.00    +0.149 HD
BRANCH   9  27
ATOM     27  C   UNL     1      -4.170 -11.898  15.701  0.00  0.00    +0.178 C 
BRANCH  27  29
ATOM      6  O   UNL     1      -2.708 -10.623  14.242  0.00  0.00    -0.466 OA
ATOM     29  C   UNL     1      -2.907 -11.121  15.490  0.00  0.00    +0.122 A 
ATOM     31  C   UNL     1      -1.860 -10.784  16.317  0.00  0.00    +0.046 A 
ATOM     34  C   UNL     1      -0.960 -10.032  15.525  0.00  0.00    +0.041 A 
ATOM     35  C   UNL     1      -1.521  -9.962  14.271  0.00  0.00    +0.195 A 
ENDBRANCH  27  29
ENDBRANCH   9  27
ENDBRANCH  24  25
ENDBRANCH  14  24
TORSDOF 9
ENDMDL
MODEL 9
REMARK VINA RESULT:      -6.4     16.123     19.635
REMARK  Name = 11882854
REMARK  12 active torsions:
REMARK  status: ('A' for Active; 'I' for Inactive)
REMARK    1  A    between atoms: O_2  and  C_16
REMARK    2  A    between atoms: O_3  and  C_21
REMARK    3  A    between atoms: O_7  and  C_38
REMARK    4  A    between atoms: O_7  and  C_39
REMARK    5  A    between atoms: N_9  and  C_27
REMARK    6  A    between atoms: C_11  and  C_19
REMARK    7  A    between atoms: C_13  and  C_21
REMARK    8  A    between atoms: C_13  and  C_22
REMARK    9  A    between atoms: C_14  and  C_24
REMARK   10  A    between atoms: C_24  and  C_25
REMARK   11  A    between atoms: C_27  and  C_29
REMARK   12  A    between atoms: C_28  and  C_30
REMARK                            x       y       z     vdW  Elec       q    Type
REMARK                         _______ _______ _______ _____ _____    ______ ____
ROOT
ATOM      1  S   UNL     1     -10.609  -9.961  37.572  0.00  0.00    -0.057 S 
ATOM      5  O   UNL     1      -6.019 -10.627  37.971  0.00  0.00    -0.270 OA
ATOM      8  N   UNL     1      -8.639 -11.502  36.915  0.00  0.00    -0.229 NA
ATOM     10  N   UNL     1      -8.112  -9.586  38.277  0.00  0.00    -0.261 N 
ATOM     11  C   UNL     1     -11.214 -13.906  35.344  0.00  0.00    -0.019 C 
ATOM     12  C   UNL     1     -12.206 -12.720  34.967  0.00  0.00    +0.011 C 
ATOM     13  C   UNL     1     -13.602 -13.123  34.351  0.00  0.00    +0.021 C 
ATOM     14  C   UNL     1      -9.751 -13.287  35.520  0.00  0.00    +0.054 C 
ATOM     15  C   UNL     1     -11.173 -14.934  34.185  0.00  0.00    +0.010 C 
ATOM     16  C   UNL     1     -13.383 -14.190  33.241  0.00  0.00    +0.123 C 
ATOM     17  C   UNL     1     -12.307 -11.673  36.115  0.00  0.00    +0.049 C 
ATOM     18  C   UNL     1     -12.548 -15.378  33.706  0.00  0.00    +0.032 C 
ATOM     19  C   UNL     1     -11.621 -14.640  36.645  0.00  0.00    +0.012 C 
ATOM     20  C   UNL     1      -9.788 -12.038  36.364  0.00  0.00    +0.058 A 
ATOM     22  C   UNL     1     -14.238 -11.875  33.675  0.00  0.00    +0.016 C 
ATOM     23  C   UNL     1     -10.942 -11.321  36.603  0.00  0.00    +0.015 A 
ATOM     26  C   UNL     1      -8.952 -10.411  37.578  0.00  0.00    +0.165 A 
ATOM     28  C   UNL     1      -6.723  -9.735  38.431  0.00  0.00    +0.250 C 
ATOM     43  H   UNL     1      -8.577  -8.777  38.675  0.00  0.00    +0.157 HD
ENDROOT
BRANCH  28  30
ATOM     30  C   UNL     1      -6.052  -8.669  39.220  0.00  0.00    +0.037 A 
ATOM     32  C   UNL     1      -5.023  -8.996  40.102  0.00  0.00    +0.016 A 
ATOM     33  C   UNL     1      -6.451  -7.340  39.077  0.00  0.00    +0.016 A 
ATOM     36  C   UNL     1      -4.392  -7.996  40.841  0.00  0.00    +0.046 A 
ATOM     37  C   UNL     1      -5.822  -6.339  39.817  0.00  0.00    +0.046 A 
ATOM     38  C   UNL     1      -4.792  -6.666  40.699  0.00  0.00    +0.120 A 
BRANCH  38   7
ATOM      7  O   UNL     1      -4.176  -5.690  41.419  0.00  0.00    -0.495 OA
ATOM     39  C   UNL     1      -2.849  -5.336  41.031  0.00  0.00    +0.277 C 
ENDBRANCH  38   7
ENDBRANCH  28  30
BRANCH  16   2
ATOM      2  O   UNL     1     -14.635 -14.672  32.753  0.00  0.00    -0.391 OA
ATOM     40  H   UNL     1     -15.091 -13.928  32.324  0.00  0.00    +0.210 HD
ENDBRANCH  16   2
BRANCH  13  21
ATOM     21  C   UNL     1     -14.642 -13.610  35.385  0.00  0.00    +0.165 C 
BRANCH  21   3
ATOM      3  O   UNL     1     -15.596 -12.585  35.553  0.00  0.00    -0.394 OA
ATOM     41  H   UNL     1     -15.465 -12.209  36.440  0.00  0.00    +0.209 HD
ENDBRANCH  21   3
ENDBRANCH  13  21
BRANCH  14  24
ATOM     24  C   UNL     1      -8.696 -14.277  36.029  0.00  0.00    +0.106 C 
BRANCH  24  25
ATOM      4  O   UNL     1      -6.503 -13.841  35.103  0.00  0.00    -0.276 OA
ATOM      9  N   UNL     1      -7.892 -15.398  34.078  0.00  0.00    -0.308 N 
ATOM     25  C   UNL     1      -7.564 -14.457  35.043  0.00  0.00    +0.214 C 
ATOM     42  H   UNL     1      -8.794 -15.864  34.125  0.00  0.00    +0.149 HD
BRANCH   9  27
ATOM     27  C   UNL     1      -7.000 -15.770  33.003  0.00  0.00    +0.178 C 
BRANCH  27  29
ATOM      6  O   UNL     1      -7.297 -16.605  30.743  0.00  0.00    -0.466 OA
ATOM     29  C   UNL     1      -7.747 -15.757  31.705  0.00  0.00    +0.122 A 
ATOM     31  C   UNL     1      -8.835 -15.046  31.252  0.00  0.00    +0.046 A 
ATOM     34  C   UNL     1      -9.068 -15.486  29.927  0.00  0.00    +0.041 A 
ATOM     35  C   UNL     1      -8.106 -16.435  29.665  0.00  0.00    +0.195 A 
ENDBRANCH  27  29
ENDBRANCH   9  27
ENDBRANCH  24  25
ENDBRANCH  14  24
TORSDOF 9
ENDMDL
MODEL 10
REMARK VINA RESULT:      -6.2     27.991     31.899
REMARK  Name = 11882854
REMARK  12 active torsions:
REMARK  status: ('A' for Active; 'I' for Inactive)
REMARK    1  A    between atoms: O_2  and  C_16
REMARK    2  A    between atoms: O_3  and  C_21
REMARK    3  A    between atoms: O_7  and  C_38
REMARK    4  A    between atoms: O_7  and  C_39
REMARK    5  A    between atoms: N_9  and  C_27
REMARK    6  A    between atoms: C_11  and  C_19
REMARK    7  A    between atoms: C_13  and  C_21
REMARK    8  A    between atoms: C_13  and  C_22
REMARK    9  A    between atoms: C_14  and  C_24
REMARK   10  A    between atoms: C_24  and  C_25
REMARK   11  A    between atoms: C_27  and  C_29
REMARK   12  A    between atoms: C_28  and  C_30
REMARK                            x       y       z     vdW  Elec       q    Type
REMARK                         _______ _______ _______ _____ _____    ______ ____
ROOT
ATOM      1  S   UNL     1      11.500   3.864   1.622  0.00  0.00    -0.057 S 
ATOM      5  O   UNL     1       9.244   7.065   4.138  0.00  0.00    -0.270 OA
ATOM      8  N   UNL     1      10.125   6.051   1.503  0.00  0.00    -0.229 NA
ATOM     10  N   UNL     1      10.512   5.128   3.695  0.00  0.00    -0.261 N 
ATOM     11  C   UNL     1      10.875   6.163  -2.278  0.00  0.00    -0.019 C 
ATOM     12  C   UNL     1      10.931   4.577  -2.393  0.00  0.00    +0.011 C 
ATOM     13  C   UNL     1      11.348   3.975  -3.791  0.00  0.00    +0.021 C 
ATOM     14  C   UNL     1      10.032   6.533  -0.972  0.00  0.00    +0.054 C 
ATOM     15  C   UNL     1      10.141   6.745  -3.514  0.00  0.00    +0.010 C 
ATOM     16  C   UNL     1      10.555   4.697  -4.916  0.00  0.00    +0.123 C 
ATOM     17  C   UNL     1      11.688   3.945  -1.188  0.00  0.00    +0.049 C 
ATOM     18  C   UNL     1      10.660   6.217  -4.844  0.00  0.00    +0.032 C 
ATOM     19  C   UNL     1      12.278   6.810  -2.185  0.00  0.00    +0.012 C 
ATOM     20  C   UNL     1      10.473   5.707   0.210  0.00  0.00    +0.058 A 
ATOM     22  C   UNL     1      10.948   2.472  -3.835  0.00  0.00    +0.016 C 
ATOM     23  C   UNL     1      11.200   4.541   0.089  0.00  0.00    +0.015 A 
ATOM     26  C   UNL     1      10.618   5.156   2.330  0.00  0.00    +0.165 A 
ATOM     28  C   UNL     1       9.846   6.063   4.505  0.00  0.00    +0.250 C 
ATOM     43  H   UNL     1      10.941   4.312   4.119  0.00  0.00    +0.157 HD
ENDROOT
BRANCH  28  30
ATOM     30  C   UNL     1       9.863   5.768   5.963  0.00  0.00    +0.037 A 
ATOM     32  C   UNL     1       9.927   6.812   6.885  0.00  0.00    +0.016 A 
ATOM     33  C   UNL     1       9.812   4.447   6.408  0.00  0.00    +0.016 A 
ATOM     36  C   UNL     1       9.942   6.536   8.252  0.00  0.00    +0.046 A 
ATOM     37  C   UNL     1       9.828   4.171   7.775  0.00  0.00    +0.046 A 
ATOM     38  C   UNL     1       9.893   5.215   8.697  0.00  0.00    +0.120 A 
BRANCH  38   7
ATOM      7  O   UNL     1       9.905   4.946  10.031  0.00  0.00    -0.495 OA
ATOM     39  C   UNL     1       8.672   4.542  10.624  0.00  0.00    +0.277 C 
ENDBRANCH  38   7
ENDBRANCH  28  30
BRANCH  16   2
ATOM      2  O   UNL     1      11.002   4.268  -6.202  0.00  0.00    -0.391 OA
ATOM     40  H   UNL     1      10.575   4.833  -6.867  0.00  0.00    +0.210 HD
ENDBRANCH  16   2
BRANCH  13  21
ATOM     21  C   UNL     1      12.866   4.009  -4.077  0.00  0.00    +0.165 C 
BRANCH  21   3
ATOM      3  O   UNL     1      13.211   2.802  -4.720  0.00  0.00    -0.394 OA
ATOM     41  H   UNL     1      13.979   2.434  -4.252  0.00  0.00    +0.209 HD
ENDBRANCH  21   3
ENDBRANCH  13  21
BRANCH  14  24
ATOM     24  C   UNL     1      10.004   8.029  -0.633  0.00  0.00    +0.106 C 
BRANCH  24  25
ATOM      4  O   UNL     1       8.119   9.105   0.437  0.00  0.00    -0.276 OA
ATOM      9  N   UNL     1       7.924   8.369  -1.759  0.00  0.00    -0.308 N 
ATOM     25  C   UNL     1       8.593   8.568  -0.560  0.00  0.00    +0.214 C 
ATOM     42  H   UNL     1       8.412   7.925  -2.532  0.00  0.00    +0.149 HD
BRANCH   9  27
ATOM     27  C   UNL     1       6.556   8.780  -1.977  0.00  0.00    +0.178 C 
BRANCH  27  29
ATOM      6  O   UNL     1       4.539   7.982  -3.068  0.00  0.00    -0.466 OA
ATOM     29  C   UNL     1       5.866   7.781  -2.855  0.00  0.00    +0.122 A 
ATOM     31  C   UNL     1       6.298   6.658  -3.523  0.00  0.00    +0.046 A 
ATOM     34  C   UNL     1       5.164   6.136  -4.188  0.00  0.00    +0.041 A 
ATOM     35  C   UNL     1       4.119   6.976  -3.880  0.00  0.00    +0.195 A 
ENDBRANCH  27  29
ENDBRANCH   9  27
ENDBRANCH  24  25
ENDBRANCH  14  24
TORSDOF 9
ENDMDL
