MODEL 1
REMARK VINA RESULT:      -7.6      0.000      0.000
REMARK  Name = 45361526
REMARK  11 active torsions:
REMARK  status: ('A' for Active; 'I' for Inactive)
REMARK    1  A    between atoms: O_1  and  C_10
REMARK    2  A    between atoms: N_4  and  C_14
REMARK    3  A    between atoms: N_5  and  C_24
REMARK    4  A    between atoms: C_7  and  C_17
REMARK    5  A    between atoms: C_9  and  C_19
REMARK    6  A    between atoms: C_13  and  C_18
REMARK    7  A    between atoms: C_18  and  C_20
REMARK    8  A    between atoms: C_18  and  C_21
REMARK    9  A    between atoms: C_22  and  C_23
REMARK   10  A    between atoms: C_23  and  C_25
REMARK   11  A    between atoms: C_24  and  C_26
REMARK                            x       y       z     vdW  Elec       q    Type
REMARK                         _______ _______ _______ _____ _____    ______ ____
ROOT
ATOM      7  C   UNL     1     -16.998   5.540  22.030  0.00  0.00    -0.027 C 
ATOM      8  C   UNL     1     -15.803   5.029  22.901  0.00  0.00    +0.028 C 
ATOM      9  C   UNL     1     -14.444   5.178  22.127  0.00  0.00    +0.012 C 
ATOM     10  C   UNL     1     -16.091   3.613  23.478  0.00  0.00    +0.122 C 
ATOM     11  C   UNL     1     -18.302   5.485  22.861  0.00  0.00    +0.007 C 
ATOM     12  C   UNL     1     -16.747   7.016  21.647  0.00  0.00    +0.009 C 
ATOM     13  C   UNL     1     -17.446   3.537  24.220  0.00  0.00    +0.029 C 
ATOM     14  C   UNL     1     -14.238   6.653  21.680  0.00  0.00    +0.076 C 
ATOM     15  C   UNL     1     -18.608   4.092  23.396  0.00  0.00    +0.007 C 
ATOM     16  C   UNL     1     -15.430   7.227  20.915  0.00  0.00    +0.023 C 
ATOM     17  C   UNL     1     -17.195   4.704  20.741  0.00  0.00    +0.011 C 
ATOM     19  C   UNL     1     -13.219   4.719  22.937  0.00  0.00    +0.010 C 
ENDROOT
BRANCH  14   4
ATOM      3  O   UNL     1     -12.620   9.018  21.414  0.00  0.00    -0.275 OA
ATOM      4  N   UNL     1     -13.052   6.805  20.863  0.00  0.00    -0.312 N 
ATOM     22  C   UNL     1     -12.339   7.991  20.802  0.00  0.00    +0.218 C 
ATOM     36  H   UNL     1     -12.784   6.024  20.272  0.00  0.00    +0.149 HD
BRANCH  22  23
ATOM     23  C   UNL     1     -11.142   7.869  19.878  0.00  0.00    +0.130 C 
BRANCH  23  25
ATOM     25  C   UNL     1     -11.476   8.116  18.431  0.00  0.00    -0.039 A 
ATOM     27  C   UNL     1     -10.452   8.261  17.494  0.00  0.00    +0.004 A 
ATOM     28  C   UNL     1     -12.808   8.200  18.027  0.00  0.00    +0.004 A 
ATOM     30  C   UNL     1     -10.762   8.489  16.153  0.00  0.00    +0.000 A 
ATOM     31  C   UNL     1     -13.117   8.429  16.686  0.00  0.00    +0.000 A 
ATOM     32  C   UNL     1     -12.094   8.573  15.749  0.00  0.00    +0.000 A 
ENDBRANCH  23  25
ENDBRANCH  22  23
ENDBRANCH  14   4
BRANCH  10   1
ATOM      1  O   UNL     1     -15.084   3.273  24.433  0.00  0.00    -0.391 OA
ATOM     37  H   UNL     1     -15.458   2.619  25.048  0.00  0.00    +0.210 HD
ENDBRANCH  10   1
BRANCH  13  18
ATOM     18  C   UNL     1     -17.771   2.107  24.667  0.00  0.00    +0.077 C 
ATOM     20  C   UNL     1     -18.931   1.552  23.848  0.00  0.00    +0.017 C 
BRANCH  18  21
ATOM      2  O   UNL     1     -18.963   2.789  26.663  0.00  0.00    -0.276 OA
ATOM      5  N   UNL     1     -17.278   1.206  26.862  0.00  0.00    -0.309 N 
ATOM     21  C   UNL     1     -18.086   2.088  26.160  0.00  0.00    +0.217 C 
ATOM     38  H   UNL     1     -16.612   0.623  26.365  0.00  0.00    +0.149 HD
BRANCH   5  24
ATOM     24  C   UNL     1     -17.387   1.014  28.291  0.00  0.00    +0.159 C 
BRANCH  24  26
ATOM      6  N   UNL     1     -15.298   0.106  29.134  0.00  0.00    -0.258 NA
ATOM     26  C   UNL     1     -16.070   1.206  28.985  0.00  0.00    +0.058 A 
ATOM     29  C   UNL     1     -15.715   2.469  29.430  0.00  0.00    +0.025 A 
ATOM     33  C   UNL     1     -14.488   2.613  30.068  0.00  0.00    +0.003 A 
ATOM     34  C   UNL     1     -14.113   0.285  29.760  0.00  0.00    +0.111 A 
ATOM     35  C   UNL     1     -13.666   1.505  30.240  0.00  0.00    +0.020 A 
ENDBRANCH  24  26
ENDBRANCH   5  24
ENDBRANCH  18  21
ENDBRANCH  13  18
TORSDOF 8
ENDMDL
MODEL 2
REMARK VINA RESULT:      -7.4     19.060     20.635
REMARK  Name = 45361526
REMARK  11 active torsions:
REMARK  status: ('A' for Active; 'I' for Inactive)
REMARK    1  A    between atoms: O_1  and  C_10
REMARK    2  A    between atoms: N_4  and  C_14
REMARK    3  A    between atoms: N_5  and  C_24
REMARK    4  A    between atoms: C_7  and  C_17
REMARK    5  A    between atoms: C_9  and  C_19
REMARK    6  A    between atoms: C_13  and  C_18
REMARK    7  A    between atoms: C_18  and  C_20
REMARK    8  A    between atoms: C_18  and  C_21
REMARK    9  A    between atoms: C_22  and  C_23
REMARK   10  A    between atoms: C_23  and  C_25
REMARK   11  A    between atoms: C_24  and  C_26
REMARK                            x       y       z     vdW  Elec       q    Type
REMARK                         _______ _______ _______ _____ _____    ______ ____
ROOT
ATOM      7  C   UNL     1      -3.497 -11.009  11.228  0.00  0.00    -0.027 C 
ATOM      8  C   UNL     1      -4.841 -10.437  11.791  0.00  0.00    +0.028 C 
ATOM      9  C   UNL     1      -5.458  -9.385  10.801  0.00  0.00    +0.012 C 
ATOM     10  C   UNL     1      -4.677  -9.955  13.261  0.00  0.00    +0.122 C 
ATOM     11  C   UNL     1      -2.975 -12.120  12.169  0.00  0.00    +0.007 C 
ATOM     12  C   UNL     1      -3.760 -11.648   9.846  0.00  0.00    +0.009 C 
ATOM     13  C   UNL     1      -4.058 -11.037  14.176  0.00  0.00    +0.029 C 
ATOM     14  C   UNL     1      -5.648 -10.017   9.393  0.00  0.00    +0.076 C 
ATOM     15  C   UNL     1      -2.777 -11.641  13.602  0.00  0.00    +0.007 C 
ATOM     16  C   UNL     1      -4.384 -10.681   8.850  0.00  0.00    +0.023 C 
ATOM     17  C   UNL     1      -2.401  -9.921  11.088  0.00  0.00    +0.011 C 
ATOM     19  C   UNL     1      -6.799  -8.802  11.279  0.00  0.00    +0.010 C 
ENDROOT
BRANCH  14   4
ATOM      3  O   UNL     1      -7.900 -10.278   7.619  0.00  0.00    -0.275 OA
ATOM      4  N   UNL     1      -6.107  -9.043   8.426  0.00  0.00    -0.312 N 
ATOM     22  C   UNL     1      -7.208  -9.263   7.613  0.00  0.00    +0.218 C 
ATOM     36  H   UNL     1      -5.554  -8.200   8.307  0.00  0.00    +0.149 HD
BRANCH  22  23
ATOM     23  C   UNL     1      -7.468  -8.079   6.701  0.00  0.00    +0.130 C 
BRANCH  23  25
ATOM     25  C   UNL     1      -8.575  -7.183   7.187  0.00  0.00    -0.039 A 
ATOM     27  C   UNL     1      -8.295  -6.155   8.089  0.00  0.00    +0.004 A 
ATOM     28  C   UNL     1      -9.880  -7.379   6.737  0.00  0.00    +0.004 A 
ATOM     30  C   UNL     1      -9.320  -5.324   8.539  0.00  0.00    +0.000 A 
ATOM     31  C   UNL     1     -10.906  -6.547   7.188  0.00  0.00    +0.000 A 
ATOM     32  C   UNL     1     -10.625  -5.519   8.089  0.00  0.00    +0.000 A 
ENDBRANCH  23  25
ENDBRANCH  22  23
ENDBRANCH  14   4
BRANCH  10   1
ATOM      1  O   UNL     1      -5.960  -9.645  13.807  0.00  0.00    -0.391 OA
ATOM     37  H   UNL     1      -5.965  -8.705  14.055  0.00  0.00    +0.210 HD
ENDBRANCH  10   1
BRANCH  13  18
ATOM     18  C   UNL     1      -3.785 -10.502  15.587  0.00  0.00    +0.077 C 
ATOM     20  C   UNL     1      -2.310 -10.671  15.936  0.00  0.00    +0.017 C 
BRANCH  18  21
ATOM      2  O   UNL     1      -4.489 -12.375  16.951  0.00  0.00    -0.276 OA
ATOM      5  N   UNL     1      -5.715 -10.408  17.050  0.00  0.00    -0.309 N 
ATOM     21  C   UNL     1      -4.680 -11.214  16.596  0.00  0.00    +0.217 C 
ATOM     38  H   UNL     1      -5.774  -9.441  16.748  0.00  0.00    +0.149 HD
BRANCH   5  24
ATOM     24  C   UNL     1      -6.695 -10.862  18.010  0.00  0.00    +0.159 C 
BRANCH  24  26
ATOM      6  N   UNL     1      -9.038 -10.603  18.598  0.00  0.00    -0.258 NA
ATOM     26  C   UNL     1      -8.004 -10.143  17.858  0.00  0.00    +0.058 A 
ATOM     29  C   UNL     1      -8.091  -9.067  16.989  0.00  0.00    +0.025 A 
ATOM     33  C   UNL     1      -9.317  -8.422  16.872  0.00  0.00    +0.003 A 
ATOM     34  C   UNL     1     -10.214  -9.951  18.458  0.00  0.00    +0.111 A 
ATOM     35  C   UNL     1     -10.403  -8.866  17.618  0.00  0.00    +0.020 A 
ENDBRANCH  24  26
ENDBRANCH   5  24
ENDBRANCH  18  21
ENDBRANCH  13  18
TORSDOF 8
ENDMDL
MODEL 3
REMARK VINA RESULT:      -7.3     27.790     32.613
REMARK  Name = 45361526
REMARK  11 active torsions:
REMARK  status: ('A' for Active; 'I' for Inactive)
REMARK    1  A    between atoms: O_1  and  C_10
REMARK    2  A    between atoms: N_4  and  C_14
REMARK    3  A    between atoms: N_5  and  C_24
REMARK    4  A    between atoms: C_7  and  C_17
REMARK    5  A    between atoms: C_9  and  C_19
REMARK    6  A    between atoms: C_13  and  C_18
REMARK    7  A    between atoms: C_18  and  C_20
REMARK    8  A    between atoms: C_18  and  C_21
REMARK    9  A    between atoms: C_22  and  C_23
REMARK   10  A    between atoms: C_23  and  C_25
REMARK   11  A    between atoms: C_24  and  C_26
REMARK                            x       y       z     vdW  Elec       q    Type
REMARK                         _______ _______ _______ _____ _____    ______ ____
ROOT
ATOM      7  C   UNL     1      15.872  10.087  21.328  0.00  0.00    -0.027 C 
ATOM      8  C   UNL     1      15.471   8.620  21.696  0.00  0.00    +0.028 C 
ATOM      9  C   UNL     1      16.475   7.591  21.062  0.00  0.00    +0.012 C 
ATOM     10  C   UNL     1      13.967   8.355  21.398  0.00  0.00    +0.122 C 
ATOM     11  C   UNL     1      14.933  11.077  22.058  0.00  0.00    +0.007 C 
ATOM     12  C   UNL     1      17.313  10.354  21.821  0.00  0.00    +0.009 C 
ATOM     13  C   UNL     1      13.038   9.409  22.046  0.00  0.00    +0.029 C 
ATOM     14  C   UNL     1      17.929   7.916  21.505  0.00  0.00    +0.076 C 
ATOM     15  C   UNL     1      13.462  10.845  21.739  0.00  0.00    +0.007 C 
ATOM     16  C   UNL     1      18.328   9.370  21.260  0.00  0.00    +0.023 C 
ATOM     17  C   UNL     1      15.795  10.360  19.804  0.00  0.00    +0.011 C 
ATOM     19  C   UNL     1      16.156   6.126  21.408  0.00  0.00    +0.010 C 
ENDROOT
BRANCH  14   4
ATOM      3  O   UNL     1      19.927   6.278  22.774  0.00  0.00    -0.275 OA
ATOM      4  N   UNL     1      18.893   7.058  20.847  0.00  0.00    -0.312 N 
ATOM     22  C   UNL     1      19.820   6.305  21.551  0.00  0.00    +0.218 C 
ATOM     36  H   UNL     1      18.919   7.069  19.832  0.00  0.00    +0.149 HD
BRANCH  22  23
ATOM     23  C   UNL     1      20.700   5.497  20.616  0.00  0.00    +0.130 C 
BRANCH  23  25
ATOM     25  C   UNL     1      22.113   6.009  20.533  0.00  0.00    -0.039 A 
ATOM     27  C   UNL     1      23.183   5.116  20.596  0.00  0.00    +0.004 A 
ATOM     28  C   UNL     1      22.353   7.376  20.393  0.00  0.00    +0.004 A 
ATOM     30  C   UNL     1      24.493   5.590  20.519  0.00  0.00    +0.000 A 
ATOM     31  C   UNL     1      23.662   7.850  20.316  0.00  0.00    +0.000 A 
ATOM     32  C   UNL     1      24.732   6.957  20.379  0.00  0.00    +0.000 A 
ENDBRANCH  23  25
ENDBRANCH  22  23
ENDBRANCH  14   4
BRANCH  10   1
ATOM      1  O   UNL     1      13.588   7.090  21.942  0.00  0.00    -0.391 OA
ATOM     37  H   UNL     1      13.787   7.097  22.894  0.00  0.00    +0.210 HD
ENDBRANCH  10   1
BRANCH  13  18
ATOM     18  C   UNL     1      11.575   9.207  21.635  0.00  0.00    +0.077 C 
ATOM     20  C   UNL     1      10.796   8.555  22.773  0.00  0.00    +0.017 C 
BRANCH  18  21
ATOM      2  O   UNL     1      11.239   7.169  20.369  0.00  0.00    -0.276 OA
ATOM      5  N   UNL     1      11.769   9.115  19.221  0.00  0.00    -0.309 N 
ATOM     21  C   UNL     1      11.503   8.370  20.362  0.00  0.00    +0.217 C 
ATOM     38  H   UNL     1      11.926  10.114  19.294  0.00  0.00    +0.149 HD
BRANCH   5  24
ATOM     24  C   UNL     1      11.762   8.541  17.895  0.00  0.00    +0.159 C 
BRANCH  24  26
ATOM      6  N   UNL     1      13.327   8.333  16.049  0.00  0.00    -0.258 NA
ATOM     26  C   UNL     1      12.833   9.129  17.023  0.00  0.00    +0.058 A 
ATOM     29  C   UNL     1      13.256  10.429  17.251  0.00  0.00    +0.025 A 
ATOM     33  C   UNL     1      14.248  10.944  16.426  0.00  0.00    +0.003 A 
ATOM     34  C   UNL     1      14.291   8.868  15.267  0.00  0.00    +0.111 A 
ATOM     35  C   UNL     1      14.781  10.156  15.411  0.00  0.00    +0.020 A 
ENDBRANCH  24  26
ENDBRANCH   5  24
ENDBRANCH  18  21
ENDBRANCH  13  18
TORSDOF 8
ENDMDL
MODEL 4
REMARK VINA RESULT:      -7.2     19.599     21.175
REMARK  Name = 45361526
REMARK  11 active torsions:
REMARK  status: ('A' for Active; 'I' for Inactive)
REMARK    1  A    between atoms: O_1  and  C_10
REMARK    2  A    between atoms: N_4  and  C_14
REMARK    3  A    between atoms: N_5  and  C_24
REMARK    4  A    between atoms: C_7  and  C_17
REMARK    5  A    between atoms: C_9  and  C_19
REMARK    6  A    between atoms: C_13  and  C_18
REMARK    7  A    between atoms: C_18  and  C_20
REMARK    8  A    between atoms: C_18  and  C_21
REMARK    9  A    between atoms: C_22  and  C_23
REMARK   10  A    between atoms: C_23  and  C_25
REMARK   11  A    between atoms: C_24  and  C_26
REMARK                            x       y       z     vdW  Elec       q    Type
REMARK                         _______ _______ _______ _____ _____    ______ ____
ROOT
ATOM      7  C   UNL     1      -3.535 -10.646  10.843  0.00  0.00    -0.027 C 
ATOM      8  C   UNL     1      -4.788 -10.294  11.713  0.00  0.00    +0.028 C 
ATOM      9  C   UNL     1      -5.644  -9.169  11.029  0.00  0.00    +0.012 C 
ATOM     10  C   UNL     1      -4.389 -10.024  13.193  0.00  0.00    +0.122 C 
ATOM     11  C   UNL     1      -2.777 -11.832  11.486  0.00  0.00    +0.007 C 
ATOM     12  C   UNL     1      -4.005 -11.093   9.440  0.00  0.00    +0.009 C 
ATOM     13  C   UNL     1      -3.542 -11.168  13.799  0.00  0.00    +0.029 C 
ATOM     14  C   UNL     1      -6.047  -9.598   9.590  0.00  0.00    +0.076 C 
ATOM     15  C   UNL     1      -2.352 -11.556  12.923  0.00  0.00    +0.007 C 
ATOM     16  C   UNL     1      -4.863 -10.051   8.738  0.00  0.00    +0.023 C 
ATOM     17  C   UNL     1      -2.558  -9.451  10.698  0.00  0.00    +0.011 C 
ATOM     19  C   UNL     1      -6.910  -8.792  11.819  0.00  0.00    +0.010 C 
ENDROOT
BRANCH  14   4
ATOM      3  O   UNL     1      -8.609  -9.777   8.290  0.00  0.00    -0.275 OA
ATOM      4  N   UNL     1      -6.739  -8.538   8.889  0.00  0.00    -0.312 N 
ATOM     22  C   UNL     1      -7.976  -8.724   8.292  0.00  0.00    +0.218 C 
ATOM     36  H   UNL     1      -6.258  -7.649   8.785  0.00  0.00    +0.149 HD
BRANCH  22  23
ATOM     23  C   UNL     1      -8.471  -7.450   7.634  0.00  0.00    +0.130 C 
BRANCH  23  25
ATOM     25  C   UNL     1      -8.669  -7.582   6.148  0.00  0.00    -0.039 A 
ATOM     27  C   UNL     1      -7.637  -8.073   5.348  0.00  0.00    +0.004 A 
ATOM     28  C   UNL     1      -9.884  -7.216   5.571  0.00  0.00    +0.004 A 
ATOM     30  C   UNL     1      -7.820  -8.197   3.971  0.00  0.00    +0.000 A 
ATOM     31  C   UNL     1     -10.068  -7.339   4.193  0.00  0.00    +0.000 A 
ATOM     32  C   UNL     1      -9.035  -7.830   3.393  0.00  0.00    +0.000 A 
ENDBRANCH  23  25
ENDBRANCH  22  23
ENDBRANCH  14   4
BRANCH  10   1
ATOM      1  O   UNL     1      -5.568  -9.922  13.993  0.00  0.00    -0.391 OA
ATOM     37  H   UNL     1      -6.290 -10.377  13.528  0.00  0.00    +0.210 HD
ENDBRANCH  10   1
BRANCH  13  18
ATOM     18  C   UNL     1      -3.051 -10.826  15.210  0.00  0.00    +0.077 C 
ATOM     20  C   UNL     1      -1.620 -11.318  15.401  0.00  0.00    +0.017 C 
BRANCH  18  21
ATOM      2  O   UNL     1      -4.226 -12.638  16.309  0.00  0.00    -0.276 OA
ATOM      5  N   UNL     1      -4.534 -10.477  17.095  0.00  0.00    -0.309 N 
ATOM     21  C   UNL     1      -3.990 -11.432  16.249  0.00  0.00    +0.217 C 
ATOM     38  H   UNL     1      -4.248  -9.506  17.014  0.00  0.00    +0.149 HD
BRANCH   5  24
ATOM     24  C   UNL     1      -5.455 -10.808  18.159  0.00  0.00    +0.159 C 
BRANCH  24  26
ATOM      6  N   UNL     1      -6.996  -9.500  16.812  0.00  0.00    -0.258 NA
ATOM     26  C   UNL     1      -6.849 -10.338  17.862  0.00  0.00    +0.058 A 
ATOM     29  C   UNL     1      -7.896 -10.775  18.658  0.00  0.00    +0.025 A 
ATOM     33  C   UNL     1      -9.175 -10.322  18.357  0.00  0.00    +0.003 A 
ATOM     34  C   UNL     1      -8.254  -9.080  16.550  0.00  0.00    +0.111 A 
ATOM     35  C   UNL     1      -9.366  -9.459  17.283  0.00  0.00    +0.020 A 
ENDBRANCH  24  26
ENDBRANCH   5  24
ENDBRANCH  18  21
ENDBRANCH  13  18
TORSDOF 8
ENDMDL
MODEL 5
REMARK VINA RESULT:      -7.2     18.849     21.860
REMARK  Name = 45361526
REMARK  11 active torsions:
REMARK  status: ('A' for Active; 'I' for Inactive)
REMARK    1  A    between atoms: O_1  and  C_10
REMARK    2  A    between atoms: N_4  and  C_14
REMARK    3  A    between atoms: N_5  and  C_24
REMARK    4  A    between atoms: C_7  and  C_17
REMARK    5  A    between atoms: C_9  and  C_19
REMARK    6  A    between atoms: C_13  and  C_18
REMARK    7  A    between atoms: C_18  and  C_20
REMARK    8  A    between atoms: C_18  and  C_21
REMARK    9  A    between atoms: C_22  and  C_23
REMARK   10  A    between atoms: C_23  and  C_25
REMARK   11  A    between atoms: C_24  and  C_26
REMARK                            x       y       z     vdW  Elec       q    Type
REMARK                         _______ _______ _______ _____ _____    ______ ____
ROOT
ATOM      7  C   UNL     1      -3.970 -10.186  10.811  0.00  0.00    -0.027 C 
ATOM      8  C   UNL     1      -5.238  -9.693  11.585  0.00  0.00    +0.028 C 
ATOM      9  C   UNL     1      -5.465 -10.547  12.884  0.00  0.00    +0.012 C 
ATOM     10  C   UNL     1      -6.467  -9.579  10.637  0.00  0.00    +0.122 C 
ATOM     11  C   UNL     1      -3.710  -9.256   9.602  0.00  0.00    +0.007 C 
ATOM     12  C   UNL     1      -2.742 -10.095  11.746  0.00  0.00    +0.009 C 
ATOM     13  C   UNL     1      -6.170  -8.732   9.377  0.00  0.00    +0.029 C 
ATOM     14  C   UNL     1      -4.196 -10.510  13.781  0.00  0.00    +0.076 C 
ATOM     15  C   UNL     1      -4.898  -9.171   8.652  0.00  0.00    +0.007 C 
ATOM     16  C   UNL     1      -2.915 -10.883  13.036  0.00  0.00    +0.023 C 
ATOM     17  C   UNL     1      -4.114 -11.641  10.297  0.00  0.00    +0.011 C 
ATOM     19  C   UNL     1      -6.683 -10.098  13.711  0.00  0.00    +0.010 C 
ENDROOT
BRANCH  14   4
ATOM      3  O   UNL     1      -2.769 -10.301  16.272  0.00  0.00    -0.275 OA
ATOM      4  N   UNL     1      -4.328 -11.379  14.931  0.00  0.00    -0.312 N 
ATOM     22  C   UNL     1      -3.591 -11.195  16.091  0.00  0.00    +0.218 C 
ATOM     36  H   UNL     1      -4.940 -12.185  14.846  0.00  0.00    +0.149 HD
BRANCH  22  23
ATOM     23  C   UNL     1      -3.931 -12.242  17.135  0.00  0.00    +0.130 C 
BRANCH  23  25
ATOM     25  C   UNL     1      -5.170 -11.917  17.926  0.00  0.00    -0.039 A 
ATOM     27  C   UNL     1      -6.250 -12.800  17.925  0.00  0.00    +0.004 A 
ATOM     28  C   UNL     1      -5.237 -10.734  18.661  0.00  0.00    +0.004 A 
ATOM     30  C   UNL     1      -7.398 -12.499  18.658  0.00  0.00    +0.000 A 
ATOM     31  C   UNL     1      -6.385 -10.433  19.395  0.00  0.00    +0.000 A 
ATOM     32  C   UNL     1      -7.465 -11.316  19.394  0.00  0.00    +0.000 A 
ENDBRANCH  23  25
ENDBRANCH  22  23
ENDBRANCH  14   4
BRANCH  10   1
ATOM      1  O   UNL     1      -7.538  -8.927  11.323  0.00  0.00    -0.391 OA
ATOM     37  H   UNL     1      -8.321  -9.502  11.277  0.00  0.00    +0.210 HD
ENDBRANCH  10   1
BRANCH  13  18
ATOM     18  C   UNL     1      -7.348  -8.739   8.397  0.00  0.00    +0.077 C 
ATOM     20  C   UNL     1      -6.932  -9.388   7.081  0.00  0.00    +0.017 C 
BRANCH  18  21
ATOM      2  O   UNL     1      -7.123  -6.329   8.284  0.00  0.00    -0.276 OA
ATOM      5  N   UNL     1      -9.200  -7.271   7.857  0.00  0.00    -0.309 N 
ATOM     21  C   UNL     1      -7.851  -7.315   8.179  0.00  0.00    +0.217 C 
ATOM     38  H   UNL     1      -9.720  -8.134   7.737  0.00  0.00    +0.149 HD
BRANCH   5  24
ATOM     24  C   UNL     1      -9.903  -6.034   7.606  0.00  0.00    +0.159 C 
BRANCH  24  26
ATOM      6  N   UNL     1     -10.746  -4.257   9.032  0.00  0.00    -0.258 NA
ATOM     26  C   UNL     1     -10.697  -5.587   8.799  0.00  0.00    +0.058 A 
ATOM     29  C   UNL     1     -11.329  -6.536   9.588  0.00  0.00    +0.025 A 
ATOM     33  C   UNL     1     -12.057  -6.090  10.684  0.00  0.00    +0.003 A 
ATOM     34  C   UNL     1     -11.463  -3.860  10.107  0.00  0.00    +0.111 A 
ATOM     35  C   UNL     1     -12.131  -4.728  10.955  0.00  0.00    +0.020 A 
ENDBRANCH  24  26
ENDBRANCH   5  24
ENDBRANCH  18  21
ENDBRANCH  13  18
TORSDOF 8
ENDMDL
MODEL 6
REMARK VINA RESULT:      -7.1     18.824     19.978
REMARK  Name = 45361526
REMARK  11 active torsions:
REMARK  status: ('A' for Active; 'I' for Inactive)
REMARK    1  A    between atoms: O_1  and  C_10
REMARK    2  A    between atoms: N_4  and  C_14
REMARK    3  A    between atoms: N_5  and  C_24
REMARK    4  A    between atoms: C_7  and  C_17
REMARK    5  A    between atoms: C_9  and  C_19
REMARK    6  A    between atoms: C_13  and  C_18
REMARK    7  A    between atoms: C_18  and  C_20
REMARK    8  A    between atoms: C_18  and  C_21
REMARK    9  A    between atoms: C_22  and  C_23
REMARK   10  A    between atoms: C_23  and  C_25
REMARK   11  A    between atoms: C_24  and  C_26
REMARK                            x       y       z     vdW  Elec       q    Type
REMARK                         _______ _______ _______ _____ _____    ______ ____
ROOT
ATOM      7  C   UNL     1      -6.237 -10.848  17.846  0.00  0.00    -0.027 C 
ATOM      8  C   UNL     1      -6.265 -12.398  17.632  0.00  0.00    +0.028 C 
ATOM      9  C   UNL     1      -5.652 -12.781  16.238  0.00  0.00    +0.012 C 
ATOM     10  C   UNL     1      -7.678 -12.981  17.924  0.00  0.00    +0.122 C 
ATOM     11  C   UNL     1      -6.741 -10.514  19.270  0.00  0.00    +0.007 C 
ATOM     12  C   UNL     1      -4.777 -10.351  17.735  0.00  0.00    +0.009 C 
ATOM     13  C   UNL     1      -8.222 -12.559  19.309  0.00  0.00    +0.029 C 
ATOM     14  C   UNL     1      -4.212 -12.211  16.108  0.00  0.00    +0.076 C 
ATOM     15  C   UNL     1      -8.140 -11.051  19.546  0.00  0.00    +0.007 C 
ATOM     16  C   UNL     1      -4.121 -10.716  16.412  0.00  0.00    +0.023 C 
ATOM     17  C   UNL     1      -7.114 -10.090  16.817  0.00  0.00    +0.011 C 
ATOM     19  C   UNL     1      -5.623 -14.296  15.973  0.00  0.00    +0.010 C 
ENDROOT
BRANCH  14   4
ATOM      3  O   UNL     1      -1.565 -11.534  15.203  0.00  0.00    -0.275 OA
ATOM      4  N   UNL     1      -3.659 -12.445  14.790  0.00  0.00    -0.312 N 
ATOM     22  C   UNL     1      -2.366 -12.080  14.450  0.00  0.00    +0.218 C 
ATOM     36  H   UNL     1      -4.275 -12.835  14.083  0.00  0.00    +0.149 HD
BRANCH  22  23
ATOM     23  C   UNL     1      -2.047 -12.448  13.013  0.00  0.00    +0.130 C 
BRANCH  23  25
ATOM     25  C   UNL     1      -2.462 -11.395  12.021  0.00  0.00    -0.039 A 
ATOM     27  C   UNL     1      -3.627 -11.563  11.272  0.00  0.00    +0.004 A 
ATOM     28  C   UNL     1      -1.682 -10.251  11.850  0.00  0.00    +0.004 A 
ATOM     30  C   UNL     1      -4.012 -10.587  10.353  0.00  0.00    +0.000 A 
ATOM     31  C   UNL     1      -2.067  -9.275  10.931  0.00  0.00    +0.000 A 
ATOM     32  C   UNL     1      -3.232  -9.443  10.182  0.00  0.00    +0.000 A 
ENDBRANCH  23  25
ENDBRANCH  22  23
ENDBRANCH  14   4
BRANCH  10   1
ATOM      1  O   UNL     1      -7.613 -14.408  17.930  0.00  0.00    -0.391 OA
ATOM     37  H   UNL     1      -8.428 -14.751  17.525  0.00  0.00    +0.210 HD
ENDBRANCH  10   1
BRANCH  13  18
ATOM     18  C   UNL     1      -9.663 -13.034  19.523  0.00  0.00    +0.077 C 
ATOM     20  C   UNL     1     -10.580 -11.839  19.762  0.00  0.00    +0.017 C 
BRANCH  18  21
ATOM      2  O   UNL     1      -8.887 -14.910  20.845  0.00  0.00    -0.276 OA
ATOM      5  N   UNL     1     -10.799 -13.787  21.528  0.00  0.00    -0.309 N 
ATOM     21  C   UNL     1      -9.718 -14.018  20.688  0.00  0.00    +0.217 C 
ATOM     38  H   UNL     1     -11.411 -12.995  21.360  0.00  0.00    +0.149 HD
BRANCH   5  24
ATOM     24  C   UNL     1     -11.064 -14.590  22.700  0.00  0.00    +0.159 C 
BRANCH  24  26
ATOM      6  N   UNL     1     -12.920 -13.042  22.935  0.00  0.00    -0.258 NA
ATOM     26  C   UNL     1     -12.252 -14.089  23.468  0.00  0.00    +0.058 A 
ATOM     29  C   UNL     1     -12.601 -14.707  24.658  0.00  0.00    +0.025 A 
ATOM     33  C   UNL     1     -13.706 -14.219  25.345  0.00  0.00    +0.003 A 
ATOM     34  C   UNL     1     -13.990 -12.595  23.631  0.00  0.00    +0.111 A 
ATOM     35  C   UNL     1     -14.420 -13.144  24.828  0.00  0.00    +0.020 A 
ENDBRANCH  24  26
ENDBRANCH   5  24
ENDBRANCH  18  21
ENDBRANCH  13  18
TORSDOF 8
ENDMDL
MODEL 7
REMARK VINA RESULT:      -7.1     19.608     20.925
REMARK  Name = 45361526
REMARK  11 active torsions:
REMARK  status: ('A' for Active; 'I' for Inactive)
REMARK    1  A    between atoms: O_1  and  C_10
REMARK    2  A    between atoms: N_4  and  C_14
REMARK    3  A    between atoms: N_5  and  C_24
REMARK    4  A    between atoms: C_7  and  C_17
REMARK    5  A    between atoms: C_9  and  C_19
REMARK    6  A    between atoms: C_13  and  C_18
REMARK    7  A    between atoms: C_18  and  C_20
REMARK    8  A    between atoms: C_18  and  C_21
REMARK    9  A    between atoms: C_22  and  C_23
REMARK   10  A    between atoms: C_23  and  C_25
REMARK   11  A    between atoms: C_24  and  C_26
REMARK                            x       y       z     vdW  Elec       q    Type
REMARK                         _______ _______ _______ _____ _____    ______ ____
ROOT
ATOM      7  C   UNL     1      -4.562 -12.744  14.249  0.00  0.00    -0.027 C 
ATOM      8  C   UNL     1      -5.390 -11.416  14.245  0.00  0.00    +0.028 C 
ATOM      9  C   UNL     1      -5.087 -10.574  12.954  0.00  0.00    +0.012 C 
ATOM     10  C   UNL     1      -5.236 -10.653  15.592  0.00  0.00    +0.122 C 
ATOM     11  C   UNL     1      -4.966 -13.600  15.473  0.00  0.00    +0.007 C 
ATOM     12  C   UNL     1      -4.901 -13.554  12.977  0.00  0.00    +0.009 C 
ATOM     13  C   UNL     1      -5.542 -11.543  16.819  0.00  0.00    +0.029 C 
ATOM     14  C   UNL     1      -5.360 -11.424  11.681  0.00  0.00    +0.076 C 
ATOM     15  C   UNL     1      -4.781 -12.868  16.797  0.00  0.00    +0.007 C 
ATOM     16  C   UNL     1      -4.653 -12.778  11.691  0.00  0.00    +0.023 C 
ATOM     17  C   UNL     1      -3.033 -12.493  14.301  0.00  0.00    +0.011 C 
ATOM     19  C   UNL     1      -5.890  -9.264  12.870  0.00  0.00    +0.010 C 
ENDROOT
BRANCH  14   4
ATOM      3  O   UNL     1      -7.074 -10.748   9.470  0.00  0.00    -0.275 OA
ATOM      4  N   UNL     1      -4.982 -10.718  10.474  0.00  0.00    -0.312 N 
ATOM     22  C   UNL     1      -5.886 -10.440   9.461  0.00  0.00    +0.218 C 
ATOM     36  H   UNL     1      -4.002 -10.481  10.354  0.00  0.00    +0.149 HD
BRANCH  22  23
ATOM     23  C   UNL     1      -5.225  -9.687   8.321  0.00  0.00    +0.130 C 
BRANCH  23  25
ATOM     25  C   UNL     1      -5.493 -10.294   6.970  0.00  0.00    -0.039 A 
ATOM     27  C   UNL     1      -4.775 -11.417   6.556  0.00  0.00    +0.004 A 
ATOM     28  C   UNL     1      -6.459  -9.736   6.134  0.00  0.00    +0.004 A 
ATOM     30  C   UNL     1      -5.023 -11.980   5.304  0.00  0.00    +0.000 A 
ATOM     31  C   UNL     1      -6.707 -10.299   4.882  0.00  0.00    +0.000 A 
ATOM     32  C   UNL     1      -5.989 -11.422   4.467  0.00  0.00    +0.000 A 
ENDBRANCH  23  25
ENDBRANCH  22  23
ENDBRANCH  14   4
BRANCH  10   1
ATOM      1  O   UNL     1      -6.166  -9.568  15.634  0.00  0.00    -0.391 OA
ATOM     37  H   UNL     1      -6.922  -9.796  15.066  0.00  0.00    +0.210 HD
ENDBRANCH  10   1
BRANCH  13  18
ATOM     18  C   UNL     1      -5.260 -10.812  18.137  0.00  0.00    +0.077 C 
ATOM     20  C   UNL     1      -4.268 -11.609  18.977  0.00  0.00    +0.017 C 
BRANCH  18  21
ATOM      2  O   UNL     1      -6.601 -10.302  20.089  0.00  0.00    -0.276 OA
ATOM      5  N   UNL     1      -7.681 -10.720  18.078  0.00  0.00    -0.309 N 
ATOM     21  C   UNL     1      -6.566 -10.580  18.891  0.00  0.00    +0.217 C 
ATOM     38  H   UNL     1      -7.566 -10.898  17.086  0.00  0.00    +0.149 HD
BRANCH   5  24
ATOM     24  C   UNL     1      -9.031 -10.549  18.567  0.00  0.00    +0.159 C 
BRANCH  24  26
ATOM      6  N   UNL     1      -9.032  -8.663  17.035  0.00  0.00    -0.258 NA
ATOM     26  C   UNL     1      -9.774  -9.490  17.805  0.00  0.00    +0.058 A 
ATOM     29  C   UNL     1     -11.153  -9.412  17.922  0.00  0.00    +0.025 A 
ATOM     33  C   UNL     1     -11.812  -8.422  17.202  0.00  0.00    +0.003 A 
ATOM     34  C   UNL     1      -9.707  -7.713  16.351  0.00  0.00    +0.111 A 
ATOM     35  C   UNL     1     -11.082  -7.552  16.399  0.00  0.00    +0.020 A 
ENDBRANCH  24  26
ENDBRANCH   5  24
ENDBRANCH  18  21
ENDBRANCH  13  18
TORSDOF 8
ENDMDL
MODEL 8
REMARK VINA RESULT:      -7.1     18.017     20.929
REMARK  Name = 45361526
REMARK  11 active torsions:
REMARK  status: ('A' for Active; 'I' for Inactive)
REMARK    1  A    between atoms: O_1  and  C_10
REMARK    2  A    between atoms: N_4  and  C_14
REMARK    3  A    between atoms: N_5  and  C_24
REMARK    4  A    between atoms: C_7  and  C_17
REMARK    5  A    between atoms: C_9  and  C_19
REMARK    6  A    between atoms: C_13  and  C_18
REMARK    7  A    between atoms: C_18  and  C_20
REMARK    8  A    between atoms: C_18  and  C_21
REMARK    9  A    between atoms: C_22  and  C_23
REMARK   10  A    between atoms: C_23  and  C_25
REMARK   11  A    between atoms: C_24  and  C_26
REMARK                            x       y       z     vdW  Elec       q    Type
REMARK                         _______ _______ _______ _____ _____    ______ ____
ROOT
ATOM      7  C   UNL     1      -5.687 -11.484  18.495  0.00  0.00    -0.027 C 
ATOM      8  C   UNL     1      -5.851 -10.557  17.244  0.00  0.00    +0.028 C 
ATOM      9  C   UNL     1      -7.338 -10.561  16.738  0.00  0.00    +0.012 C 
ATOM     10  C   UNL     1      -4.776 -10.873  16.164  0.00  0.00    +0.122 C 
ATOM     11  C   UNL     1      -4.241 -11.370  19.035  0.00  0.00    +0.007 C 
ATOM     12  C   UNL     1      -6.644 -11.002  19.608  0.00  0.00    +0.009 C 
ATOM     13  C   UNL     1      -3.339 -10.860  16.733  0.00  0.00    +0.029 C 
ATOM     14  C   UNL     1      -8.299 -10.148  17.888  0.00  0.00    +0.076 C 
ATOM     15  C   UNL     1      -3.188 -11.716  17.989  0.00  0.00    +0.007 C 
ATOM     16  C   UNL     1      -8.100 -10.959  19.168  0.00  0.00    +0.023 C 
ATOM     17  C   UNL     1      -5.982 -12.972  18.175  0.00  0.00    +0.011 C 
ATOM     19  C   UNL     1      -7.578  -9.646  15.524  0.00  0.00    +0.010 C 
ENDROOT
BRANCH  14   4
ATOM      3  O   UNL     1     -10.184  -7.988  17.627  0.00  0.00    -0.275 OA
ATOM      4  N   UNL     1      -9.687 -10.252  17.490  0.00  0.00    -0.312 N 
ATOM     22  C   UNL     1     -10.518  -9.147  17.394  0.00  0.00    +0.218 C 
ATOM     36  H   UNL     1     -10.066 -11.182  17.341  0.00  0.00    +0.149 HD
BRANCH  22  23
ATOM     23  C   UNL     1     -11.915  -9.541  16.952  0.00  0.00    +0.130 C 
BRANCH  23  25
ATOM     25  C   UNL     1     -12.925  -9.511  18.067  0.00  0.00    -0.039 A 
ATOM     27  C   UNL     1     -12.520  -9.743  19.382  0.00  0.00    +0.004 A 
ATOM     28  C   UNL     1     -14.266  -9.251  17.786  0.00  0.00    +0.004 A 
ATOM     30  C   UNL     1     -13.456  -9.714  20.415  0.00  0.00    +0.000 A 
ATOM     31  C   UNL     1     -15.203  -9.222  18.820  0.00  0.00    +0.000 A 
ATOM     32  C   UNL     1     -14.797  -9.453  20.135  0.00  0.00    +0.000 A 
ENDBRANCH  23  25
ENDBRANCH  22  23
ENDBRANCH  14   4
BRANCH  10   1
ATOM      1  O   UNL     1      -4.820  -9.875  15.142  0.00  0.00    -0.391 OA
ATOM     37  H   UNL     1      -5.442 -10.171  14.456  0.00  0.00    +0.210 HD
ENDBRANCH  10   1
BRANCH  13  18
ATOM     18  C   UNL     1      -2.308 -11.299  15.686  0.00  0.00    +0.077 C 
ATOM     20  C   UNL     1      -1.420 -10.122  15.298  0.00  0.00    +0.017 C 
BRANCH  18  21
ATOM      2  O   UNL     1      -3.749 -12.871  14.535  0.00  0.00    -0.276 OA
ATOM      5  N   UNL     1      -2.747 -11.177  13.305  0.00  0.00    -0.309 N 
ATOM     21  C   UNL     1      -3.020 -11.882  14.469  0.00  0.00    +0.217 C 
ATOM     38  H   UNL     1      -2.177 -10.338  13.343  0.00  0.00    +0.149 HD
BRANCH   5  24
ATOM     24  C   UNL     1      -3.305 -11.540  12.022  0.00  0.00    +0.159 C 
BRANCH  24  26
ATOM      6  N   UNL     1      -5.023  -9.823  11.991  0.00  0.00    -0.258 NA
ATOM     26  C   UNL     1      -3.969 -10.374  11.349  0.00  0.00    +0.058 A 
ATOM     29  C   UNL     1      -3.483  -9.928  10.130  0.00  0.00    +0.025 A 
ATOM     33  C   UNL     1      -4.119  -8.846   9.533  0.00  0.00    +0.003 A 
ATOM     34  C   UNL     1      -5.616  -8.773  11.380  0.00  0.00    +0.111 A 
ATOM     35  C   UNL     1      -5.207  -8.251  10.164  0.00  0.00    +0.020 A 
ENDBRANCH  24  26
ENDBRANCH   5  24
ENDBRANCH  18  21
ENDBRANCH  13  18
TORSDOF 8
ENDMDL
MODEL 9
REMARK VINA RESULT:      -7.1     18.601     21.477
REMARK  Name = 45361526
REMARK  11 active torsions:
REMARK  status: ('A' for Active; 'I' for Inactive)
REMARK    1  A    between atoms: O_1  and  C_10
REMARK    2  A    between atoms: N_4  and  C_14
REMARK    3  A    between atoms: N_5  and  C_24
REMARK    4  A    between atoms: C_7  and  C_17
REMARK    5  A    between atoms: C_9  and  C_19
REMARK    6  A    between atoms: C_13  and  C_18
REMARK    7  A    between atoms: C_18  and  C_20
REMARK    8  A    between atoms: C_18  and  C_21
REMARK    9  A    between atoms: C_22  and  C_23
REMARK   10  A    between atoms: C_23  and  C_25
REMARK   11  A    between atoms: C_24  and  C_26
REMARK                            x       y       z     vdW  Elec       q    Type
REMARK                         _______ _______ _______ _____ _____    ______ ____
ROOT
ATOM      7  C   UNL     1      -4.658 -11.079  16.903  0.00  0.00    -0.027 C 
ATOM      8  C   UNL     1      -5.443 -10.453  15.703  0.00  0.00    +0.028 C 
ATOM      9  C   UNL     1      -6.993 -10.572  15.926  0.00  0.00    +0.012 C 
ATOM     10  C   UNL     1      -4.920 -10.998  14.342  0.00  0.00    +0.122 C 
ATOM     11  C   UNL     1      -3.142 -10.845  16.706  0.00  0.00    +0.007 C 
ATOM     12  C   UNL     1      -5.079 -10.365  18.208  0.00  0.00    +0.009 C 
ATOM     13  C   UNL     1      -3.388 -10.854  14.194  0.00  0.00    +0.029 C 
ATOM     14  C   UNL     1      -7.395  -9.917  17.278  0.00  0.00    +0.076 C 
ATOM     15  C   UNL     1      -2.619 -11.410  15.392  0.00  0.00    +0.007 C 
ATOM     16  C   UNL     1      -6.578 -10.425  18.465  0.00  0.00    +0.023 C 
ATOM     17  C   UNL     1      -4.911 -12.601  17.050  0.00  0.00    +0.011 C 
ATOM     19  C   UNL     1      -7.829  -9.950  14.794  0.00  0.00    +0.010 C 
ENDROOT
BRANCH  14   4
ATOM      3  O   UNL     1      -9.418  -7.877  17.444  0.00  0.00    -0.275 OA
ATOM      4  N   UNL     1      -8.799 -10.110  17.571  0.00  0.00    -0.312 N 
ATOM     22  C   UNL     1      -9.699  -9.058  17.629  0.00  0.00    +0.218 C 
ATOM     36  H   UNL     1      -9.108 -11.050  17.802  0.00  0.00    +0.149 HD
BRANCH  22  23
ATOM     23  C   UNL     1     -11.100  -9.544  17.948  0.00  0.00    +0.130 C 
BRANCH  23  25
ATOM     25  C   UNL     1     -12.084  -9.301  16.835  0.00  0.00    -0.039 A 
ATOM     27  C   UNL     1     -11.811  -9.769  15.549  0.00  0.00    +0.004 A 
ATOM     28  C   UNL     1     -13.268  -8.610  17.089  0.00  0.00    +0.004 A 
ATOM     30  C   UNL     1     -12.723  -9.544  14.517  0.00  0.00    +0.000 A 
ATOM     31  C   UNL     1     -14.180  -8.386  16.057  0.00  0.00    +0.000 A 
ATOM     32  C   UNL     1     -13.907  -8.853  14.771  0.00  0.00    +0.000 A 
ENDBRANCH  23  25
ENDBRANCH  22  23
ENDBRANCH  14   4
BRANCH  10   1
ATOM      1  O   UNL     1      -5.505 -10.251  13.273  0.00  0.00    -0.391 OA
ATOM     37  H   UNL     1      -4.785  -9.869  12.741  0.00  0.00    +0.210 HD
ENDBRANCH  10   1
BRANCH  13  18
ATOM     18  C   UNL     1      -2.877 -11.512  12.906  0.00  0.00    +0.077 C 
ATOM     20  C   UNL     1      -1.687 -12.415  13.215  0.00  0.00    +0.017 C 
BRANCH  18  21
ATOM      2  O   UNL     1      -1.408  -9.897  11.857  0.00  0.00    -0.276 OA
ATOM      5  N   UNL     1      -3.553 -10.159  11.013  0.00  0.00    -0.309 N 
ATOM     21  C   UNL     1      -2.511 -10.440  11.885  0.00  0.00    +0.217 C 
ATOM     38  H   UNL     1      -4.416 -10.690  11.067  0.00  0.00    +0.149 HD
BRANCH   5  24
ATOM     24  C   UNL     1      -3.446  -9.177   9.958  0.00  0.00    +0.159 C 
BRANCH  24  26
ATOM      6  N   UNL     1      -4.839  -9.849   8.084  0.00  0.00    -0.258 NA
ATOM     26  C   UNL     1      -4.719  -9.056   9.172  0.00  0.00    +0.058 A 
ATOM     29  C   UNL     1      -5.691  -8.159   9.588  0.00  0.00    +0.025 A 
ATOM     33  C   UNL     1      -6.859  -8.072   8.840  0.00  0.00    +0.003 A 
ATOM     34  C   UNL     1      -5.988  -9.736   7.381  0.00  0.00    +0.111 A 
ATOM     35  C   UNL     1      -7.018  -8.872   7.714  0.00  0.00    +0.020 A 
ENDBRANCH  24  26
ENDBRANCH   5  24
ENDBRANCH  18  21
ENDBRANCH  13  18
TORSDOF 8
ENDMDL
MODEL 10
REMARK VINA RESULT:      -7.1     30.008     33.944
REMARK  Name = 45361526
REMARK  11 active torsions:
REMARK  status: ('A' for Active; 'I' for Inactive)
REMARK    1  A    between atoms: O_1  and  C_10
REMARK    2  A    between atoms: N_4  and  C_14
REMARK    3  A    between atoms: N_5  and  C_24
REMARK    4  A    between atoms: C_7  and  C_17
REMARK    5  A    between atoms: C_9  and  C_19
REMARK    6  A    between atoms: C_13  and  C_18
REMARK    7  A    between atoms: C_18  and  C_20
REMARK    8  A    between atoms: C_18  and  C_21
REMARK    9  A    between atoms: C_22  and  C_23
REMARK   10  A    between atoms: C_23  and  C_25
REMARK   11  A    between atoms: C_24  and  C_26
REMARK                            x       y       z     vdW  Elec       q    Type
REMARK                         _______ _______ _______ _____ _____    ______ ____
ROOT
ATOM      7  C   UNL     1       9.592   6.806   6.199  0.00  0.00    -0.027 C 
ATOM      8  C   UNL     1      10.333   7.563   5.047  0.00  0.00    +0.028 C 
ATOM      9  C   UNL     1      11.377   6.623   4.344  0.00  0.00    +0.012 C 
ATOM     10  C   UNL     1      10.890   8.931   5.538  0.00  0.00    +0.122 C 
ATOM     11  C   UNL     1       8.495   7.721   6.794  0.00  0.00    +0.007 C 
ATOM     12  C   UNL     1       8.895   5.556   5.614  0.00  0.00    +0.009 C 
ATOM     13  C   UNL     1       9.811   9.799   6.226  0.00  0.00    +0.029 C 
ATOM     14  C   UNL     1      10.679   5.334   3.826  0.00  0.00    +0.076 C 
ATOM     15  C   UNL     1       9.043   9.046   7.310  0.00  0.00    +0.007 C 
ATOM     16  C   UNL     1       9.855   4.619   4.896  0.00  0.00    +0.023 C 
ATOM     17  C   UNL     1      10.549   6.372   7.338  0.00  0.00    +0.011 C 
ATOM     19  C   UNL     1      12.126   7.296   3.179  0.00  0.00    +0.010 C 
ENDROOT
BRANCH  14   4
ATOM      3  O   UNL     1      10.478   3.953   1.309  0.00  0.00    -0.275 OA
ATOM      4  N   UNL     1      11.631   4.393   3.275  0.00  0.00    -0.312 N 
ATOM     22  C   UNL     1      11.443   3.777   2.048  0.00  0.00    +0.218 C 
ATOM     36  H   UNL     1      12.429   4.139   3.849  0.00  0.00    +0.149 HD
BRANCH  22  23
ATOM     23  C   UNL     1      12.593   2.847   1.713  0.00  0.00    +0.130 C 
BRANCH  23  25
ATOM     25  C   UNL     1      13.562   3.429   0.719  0.00  0.00    -0.039 A 
ATOM     27  C   UNL     1      14.835   3.822   1.135  0.00  0.00    +0.004 A 
ATOM     28  C   UNL     1      13.189   3.575  -0.616  0.00  0.00    +0.004 A 
ATOM     30  C   UNL     1      15.734   4.362   0.214  0.00  0.00    +0.000 A 
ATOM     31  C   UNL     1      14.088   4.114  -1.537  0.00  0.00    +0.000 A 
ATOM     32  C   UNL     1      15.360   4.507  -1.122  0.00  0.00    +0.000 A 
ENDBRANCH  23  25
ENDBRANCH  22  23
ENDBRANCH  14   4
BRANCH  10   1
ATOM      1  O   UNL     1      11.365   9.681   4.419  0.00  0.00    -0.391 OA
ATOM     37  H   UNL     1      11.319  10.626   4.646  0.00  0.00    +0.210 HD
ENDBRANCH  10   1
BRANCH  13  18
ATOM     18  C   UNL     1      10.406  11.083   6.816  0.00  0.00    +0.077 C 
ATOM     20  C   UNL     1      10.398  12.194   5.770  0.00  0.00    +0.017 C 
BRANCH  18  21
ATOM      2  O   UNL     1      12.043  10.396   8.464  0.00  0.00    -0.276 OA
ATOM      5  N   UNL     1      12.790  11.096   6.382  0.00  0.00    -0.309 N 
ATOM     21  C   UNL     1      11.817  10.814   7.330  0.00  0.00    +0.217 C 
ATOM     38  H   UNL     1      12.519  11.388   5.449  0.00  0.00    +0.149 HD
BRANCH   5  24
ATOM     24  C   UNL     1      14.202  10.922   6.636  0.00  0.00    +0.159 C 
BRANCH  24  26
ATOM      6  N   UNL     1      15.569   9.896   4.911  0.00  0.00    -0.258 NA
ATOM     26  C   UNL     1      14.747   9.696   5.965  0.00  0.00    +0.058 A 
ATOM     29  C   UNL     1      14.392   8.445   6.444  0.00  0.00    +0.025 A 
ATOM     33  C   UNL     1      14.914   7.329   5.801  0.00  0.00    +0.003 A 
ATOM     34  C   UNL     1      16.057   8.787   4.311  0.00  0.00    +0.111 A 
ATOM     35  C   UNL     1      15.764   7.495   4.714  0.00  0.00    +0.020 A 
ENDBRANCH  24  26
ENDBRANCH   5  24
ENDBRANCH  18  21
ENDBRANCH  13  18
TORSDOF 8
ENDMDL
