MODEL 1
REMARK VINA RESULT:      -6.1      0.000      0.000
REMARK  Name = 71694098
REMARK  10 active torsions:
REMARK  status: ('A' for Active; 'I' for Inactive)
REMARK    1  A    between atoms: O_3  and  C_16
REMARK    2  A    between atoms: O_3  and  C_26
REMARK    3  A    between atoms: O_4  and  C_27
REMARK    4  A    between atoms: O_4  and  C_28
REMARK    5  A    between atoms: N_5  and  C_7
REMARK    6  A    between atoms: N_5  and  C_11
REMARK    7  A    between atoms: C_7  and  C_10
REMARK    8  A    between atoms: C_10  and  C_12
REMARK    9  A    between atoms: C_11  and  C_13
REMARK   10  A    between atoms: C_15  and  C_18
REMARK                            x       y       z     vdW  Elec       q    Type
REMARK                         _______ _______ _______ _____ _____    ______ ____
ROOT
ATOM      1  O   UNL     1      22.795   7.856  21.258  0.00  0.00    -0.376 OA
ATOM      7  C   UNL     1      21.635   6.062  21.250  0.00  0.00    +0.072 C 
ATOM      8  C   UNL     1      22.875   6.598  21.977  0.00  0.00    +0.184 C 
ATOM      9  C   UNL     1      21.811   7.293  20.351  0.00  0.00    +0.184 C 
ENDROOT
BRANCH   7   5
ATOM      5  N   UNL     1      22.020   4.873  20.484  0.00  0.00    -0.302 NA
ATOM     29  H   UNL     1      21.686   4.840  19.523  0.00  0.00    +0.123 HD
BRANCH   5  11
ATOM     11  C   UNL     1      21.608   3.676  21.208  0.00  0.00    +0.120 C 
BRANCH  11  13
ATOM     13  C   UNL     1      22.791   2.881  21.696  0.00  0.00    +0.008 A 
ATOM     16  C   UNL     1      23.146   2.887  23.045  0.00  0.00    +0.124 A 
ATOM     17  C   UNL     1      23.534   2.134  20.782  0.00  0.00    +0.008 A 
ATOM     19  C   UNL     1      24.244   2.145  23.480  0.00  0.00    +0.046 A 
ATOM     20  C   UNL     1      24.632   1.393  21.217  0.00  0.00    +0.001 A 
ATOM     21  C   UNL     1      24.987   1.398  22.566  0.00  0.00    +0.004 A 
BRANCH  16   3
ATOM      3  O   UNL     1      22.430   3.610  23.951  0.00  0.00    -0.495 OA
ATOM     26  C   UNL     1      22.757   3.428  25.328  0.00  0.00    +0.277 C 
ENDBRANCH  16   3
ENDBRANCH  11  13
ENDBRANCH   5  11
ENDBRANCH   7   5
BRANCH   7  10
ATOM     10  C   UNL     1      20.347   5.888  22.012  0.00  0.00    +0.085 C 
BRANCH  10  12
ATOM      2  O   UNL     1      17.813   6.005  19.442  0.00  0.00    -0.354 OA
ATOM      6  N   UNL     1      18.968   5.478  20.007  0.00  0.00    -0.083 NA
ATOM     12  C   UNL     1      19.161   6.188  21.123  0.00  0.00    +0.086 A 
ATOM     14  C   UNL     1      18.169   7.165  21.313  0.00  0.00    +0.076 A 
ATOM     15  C   UNL     1      17.346   7.008  20.228  0.00  0.00    +0.167 A 
BRANCH  15  18
ATOM     18  C   UNL     1      16.149   7.652  19.771  0.00  0.00    +0.020 A 
ATOM     22  C   UNL     1      15.262   6.966  18.942  0.00  0.00    +0.015 A 
ATOM     23  C   UNL     1      15.872   8.964  20.156  0.00  0.00    +0.015 A 
ATOM     24  C   UNL     1      14.097   7.592  18.498  0.00  0.00    +0.046 A 
ATOM     25  C   UNL     1      14.708   9.591  19.712  0.00  0.00    +0.046 A 
ATOM     27  C   UNL     1      13.820   8.905  18.883  0.00  0.00    +0.120 A 
BRANCH  27   4
ATOM      4  O   UNL     1      12.683   9.514  18.452  0.00  0.00    -0.495 OA
ATOM     28  C   UNL     1      11.967   8.879  17.394  0.00  0.00    +0.277 C 
ENDBRANCH  27   4
ENDBRANCH  15  18
ENDBRANCH  10  12
ENDBRANCH   7  10
TORSDOF 8
ENDMDL
MODEL 2
REMARK VINA RESULT:      -5.9     28.963     30.706
REMARK  Name = 71694098
REMARK  10 active torsions:
REMARK  status: ('A' for Active; 'I' for Inactive)
REMARK    1  A    between atoms: O_3  and  C_16
REMARK    2  A    between atoms: O_3  and  C_26
REMARK    3  A    between atoms: O_4  and  C_27
REMARK    4  A    between atoms: O_4  and  C_28
REMARK    5  A    between atoms: N_5  and  C_7
REMARK    6  A    between atoms: N_5  and  C_11
REMARK    7  A    between atoms: C_7  and  C_10
REMARK    8  A    between atoms: C_10  and  C_12
REMARK    9  A    between atoms: C_11  and  C_13
REMARK   10  A    between atoms: C_15  and  C_18
REMARK                            x       y       z     vdW  Elec       q    Type
REMARK                         _______ _______ _______ _____ _____    ______ ____
ROOT
ATOM      1  O   UNL     1      -2.256 -13.639  12.808  0.00  0.00    -0.376 OA
ATOM      7  C   UNL     1      -2.665 -12.065  14.194  0.00  0.00    +0.072 C 
ATOM      8  C   UNL     1      -1.504 -13.019  13.884  0.00  0.00    +0.184 C 
ATOM      9  C   UNL     1      -3.467 -12.968  13.247  0.00  0.00    +0.184 C 
ENDROOT
BRANCH   7   5
ATOM      5  N   UNL     1      -3.122 -12.316  15.565  0.00  0.00    -0.302 NA
ATOM     29  H   UNL     1      -4.015 -12.795  15.652  0.00  0.00    +0.123 HD
BRANCH   5  11
ATOM     11  C   UNL     1      -3.144 -11.059  16.304  0.00  0.00    +0.120 C 
BRANCH  11  13
ATOM     13  C   UNL     1      -4.287 -11.005  17.283  0.00  0.00    +0.008 A 
ATOM     16  C   UNL     1      -5.471 -10.342  16.960  0.00  0.00    +0.124 A 
ATOM     17  C   UNL     1      -4.153 -11.628  18.524  0.00  0.00    +0.008 A 
ATOM     19  C   UNL     1      -6.520 -10.301  17.878  0.00  0.00    +0.046 A 
ATOM     20  C   UNL     1      -5.202 -11.588  19.442  0.00  0.00    +0.001 A 
ATOM     21  C   UNL     1      -6.386 -10.924  19.119  0.00  0.00    +0.004 A 
BRANCH  16   3
ATOM      3  O   UNL     1      -5.620  -9.729  15.752  0.00  0.00    -0.495 OA
ATOM     26  C   UNL     1      -6.782 -10.063  14.995  0.00  0.00    +0.277 C 
ENDBRANCH  16   3
ENDBRANCH  11  13
ENDBRANCH   5  11
ENDBRANCH   7   5
BRANCH   7  10
ATOM     10  C   UNL     1      -2.528 -10.600  13.870  0.00  0.00    +0.085 C 
BRANCH  10  12
ATOM      2  O   UNL     1      -2.908 -10.047  10.323  0.00  0.00    -0.354 OA
ATOM      6  N   UNL     1      -2.146 -10.340  11.447  0.00  0.00    -0.083 NA
ATOM     12  C   UNL     1      -3.011 -10.320  12.466  0.00  0.00    +0.086 A 
ATOM     14  C   UNL     1      -4.320 -10.026  12.049  0.00  0.00    +0.076 A 
ATOM     15  C   UNL     1      -4.201  -9.862  10.693  0.00  0.00    +0.167 A 
BRANCH  15  18
ATOM     18  C   UNL     1      -5.115  -9.553   9.633  0.00  0.00    +0.020 A 
ATOM     22  C   UNL     1      -6.240  -8.769   9.887  0.00  0.00    +0.015 A 
ATOM     23  C   UNL     1      -4.878 -10.037   8.345  0.00  0.00    +0.015 A 
ATOM     24  C   UNL     1      -7.128  -8.467   8.855  0.00  0.00    +0.046 A 
ATOM     25  C   UNL     1      -5.767  -9.736   7.313  0.00  0.00    +0.046 A 
ATOM     27  C   UNL     1      -6.891  -8.951   7.567  0.00  0.00    +0.120 A 
BRANCH  27   4
ATOM      4  O   UNL     1      -7.756  -8.655   6.560  0.00  0.00    -0.495 OA
ATOM     28  C   UNL     1      -8.334  -7.351   6.563  0.00  0.00    +0.277 C 
ENDBRANCH  27   4
ENDBRANCH  15  18
ENDBRANCH  10  12
ENDBRANCH   7  10
TORSDOF 8
ENDMDL
MODEL 3
REMARK VINA RESULT:      -5.8     30.336     33.263
REMARK  Name = 71694098
REMARK  10 active torsions:
REMARK  status: ('A' for Active; 'I' for Inactive)
REMARK    1  A    between atoms: O_3  and  C_16
REMARK    2  A    between atoms: O_3  and  C_26
REMARK    3  A    between atoms: O_4  and  C_27
REMARK    4  A    between atoms: O_4  and  C_28
REMARK    5  A    between atoms: N_5  and  C_7
REMARK    6  A    between atoms: N_5  and  C_11
REMARK    7  A    between atoms: C_7  and  C_10
REMARK    8  A    between atoms: C_10  and  C_12
REMARK    9  A    between atoms: C_11  and  C_13
REMARK   10  A    between atoms: C_15  and  C_18
REMARK                            x       y       z     vdW  Elec       q    Type
REMARK                         _______ _______ _______ _____ _____    ______ ____
ROOT
ATOM      1  O   UNL     1     -11.767 -10.344  18.573  0.00  0.00    -0.376 OA
ATOM      7  C   UNL     1     -10.137  -9.369  17.595  0.00  0.00    +0.072 C 
ATOM      8  C   UNL     1     -11.449 -10.053  17.187  0.00  0.00    +0.184 C 
ATOM      9  C   UNL     1     -10.423  -9.972  18.976  0.00  0.00    +0.184 C 
ENDROOT
BRANCH   7   5
ATOM      5  N   UNL     1      -9.020 -10.104  16.993  0.00  0.00    -0.302 NA
ATOM     29  H   UNL     1      -8.865 -11.043  17.353  0.00  0.00    +0.123 HD
BRANCH   5  11
ATOM     11  C   UNL     1      -7.803  -9.308  17.102  0.00  0.00    +0.120 C 
BRANCH  11  13
ATOM     13  C   UNL     1      -6.666 -10.102  17.690  0.00  0.00    +0.008 A 
ATOM     16  C   UNL     1      -5.591 -10.501  16.896  0.00  0.00    +0.124 A 
ATOM     17  C   UNL     1      -6.697 -10.438  19.043  0.00  0.00    +0.008 A 
ATOM     19  C   UNL     1      -4.546 -11.236  17.456  0.00  0.00    +0.046 A 
ATOM     20  C   UNL     1      -5.652 -11.173  19.603  0.00  0.00    +0.001 A 
ATOM     21  C   UNL     1      -4.577 -11.572  18.810  0.00  0.00    +0.004 A 
BRANCH  16   3
ATOM      3  O   UNL     1      -5.544 -10.181  15.573  0.00  0.00    -0.495 OA
ATOM     26  C   UNL     1      -4.389 -10.596  14.846  0.00  0.00    +0.277 C 
ENDBRANCH  16   3
ENDBRANCH  11  13
ENDBRANCH   5  11
ENDBRANCH   7   5
BRANCH   7  10
ATOM     10  C   UNL     1     -10.008  -7.874  17.460  0.00  0.00    +0.085 C 
BRANCH  10  12
ATOM      2  O   UNL     1     -11.344  -7.286  14.158  0.00  0.00    -0.354 OA
ATOM      6  N   UNL     1     -10.521  -7.963  15.048  0.00  0.00    -0.083 NA
ATOM     12  C   UNL     1     -10.745  -7.386  16.233  0.00  0.00    +0.086 A 
ATOM     14  C   UNL     1     -11.691  -6.351  16.153  0.00  0.00    +0.076 A 
ATOM     15  C   UNL     1     -12.037  -6.328  14.827  0.00  0.00    +0.167 A 
BRANCH  15  18
ATOM     18  C   UNL     1     -12.937  -5.542  14.034  0.00  0.00    +0.020 A 
ATOM     22  C   UNL     1     -12.447  -4.490  13.261  0.00  0.00    +0.015 A 
ATOM     23  C   UNL     1     -14.302  -5.830  14.038  0.00  0.00    +0.015 A 
ATOM     24  C   UNL     1     -13.323  -3.726  12.489  0.00  0.00    +0.046 A 
ATOM     25  C   UNL     1     -15.178  -5.065  13.267  0.00  0.00    +0.046 A 
ATOM     27  C   UNL     1     -14.688  -4.013  12.493  0.00  0.00    +0.120 A 
BRANCH  27   4
ATOM      4  O   UNL     1     -15.541  -3.270  11.738  0.00  0.00    -0.495 OA
ATOM     28  C   UNL     1     -15.007  -2.659  10.564  0.00  0.00    +0.277 C 
ENDBRANCH  27   4
ENDBRANCH  15  18
ENDBRANCH  10  12
ENDBRANCH   7  10
TORSDOF 8
ENDMDL
MODEL 4
REMARK VINA RESULT:      -5.8     30.254     32.504
REMARK  Name = 71694098
REMARK  10 active torsions:
REMARK  status: ('A' for Active; 'I' for Inactive)
REMARK    1  A    between atoms: O_3  and  C_16
REMARK    2  A    between atoms: O_3  and  C_26
REMARK    3  A    between atoms: O_4  and  C_27
REMARK    4  A    between atoms: O_4  and  C_28
REMARK    5  A    between atoms: N_5  and  C_7
REMARK    6  A    between atoms: N_5  and  C_11
REMARK    7  A    between atoms: C_7  and  C_10
REMARK    8  A    between atoms: C_10  and  C_12
REMARK    9  A    between atoms: C_11  and  C_13
REMARK   10  A    between atoms: C_15  and  C_18
REMARK                            x       y       z     vdW  Elec       q    Type
REMARK                         _______ _______ _______ _____ _____    ______ ____
ROOT
ATOM      1  O   UNL     1     -12.216   8.126  14.808  0.00  0.00    -0.376 OA
ATOM      7  C   UNL     1     -11.107   9.122  16.338  0.00  0.00    +0.072 C 
ATOM      8  C   UNL     1     -12.570   8.744  16.072  0.00  0.00    +0.184 C 
ATOM      9  C   UNL     1     -10.888   8.708  14.877  0.00  0.00    +0.184 C 
ENDROOT
BRANCH   7   5
ATOM      5  N   UNL     1     -11.010  10.582  16.423  0.00  0.00    -0.302 NA
ATOM     29  H   UNL     1     -11.152  11.085  15.550  0.00  0.00    +0.123 HD
BRANCH   5  11
ATOM     11  C   UNL     1      -9.731  10.948  17.020  0.00  0.00    +0.120 C 
BRANCH  11  13
ATOM     13  C   UNL     1      -9.555  12.442  17.097  0.00  0.00    +0.008 A 
ATOM     16  C   UNL     1     -10.411  13.221  17.876  0.00  0.00    +0.124 A 
ATOM     17  C   UNL     1      -8.522  13.045  16.378  0.00  0.00    +0.008 A 
ATOM     19  C   UNL     1     -10.234  14.603  17.936  0.00  0.00    +0.046 A 
ATOM     20  C   UNL     1      -8.346  14.427  16.439  0.00  0.00    +0.001 A 
ATOM     21  C   UNL     1      -9.201  15.206  17.217  0.00  0.00    +0.004 A 
BRANCH  16   3
ATOM      3  O   UNL     1     -11.423  12.648  18.584  0.00  0.00    -0.495 OA
ATOM     26  C   UNL     1     -12.428  13.520  19.099  0.00  0.00    +0.277 C 
ENDBRANCH  16   3
ENDBRANCH  11  13
ENDBRANCH   5  11
ENDBRANCH   7   5
BRANCH   7  10
ATOM     10  C   UNL     1     -10.343   8.410  17.424  0.00  0.00    +0.085 C 
BRANCH  10  12
ATOM      2  O   UNL     1     -12.437   8.731  20.347  0.00  0.00    -0.354 OA
ATOM      6  N   UNL     1     -11.688   9.265  19.307  0.00  0.00    -0.083 NA
ATOM     12  C   UNL     1     -11.216   8.207  18.641  0.00  0.00    +0.086 A 
ATOM     14  C   UNL     1     -11.632   6.991  19.209  0.00  0.00    +0.076 A 
ATOM     15  C   UNL     1     -12.396   7.375  20.279  0.00  0.00    +0.167 A 
BRANCH  15  18
ATOM     18  C   UNL     1     -13.130   6.678  21.294  0.00  0.00    +0.020 A 
ATOM     22  C   UNL     1     -12.626   5.494  21.831  0.00  0.00    +0.015 A 
ATOM     23  C   UNL     1     -14.350   7.185  21.745  0.00  0.00    +0.015 A 
ATOM     24  C   UNL     1     -13.340   4.817  22.819  0.00  0.00    +0.046 A 
ATOM     25  C   UNL     1     -15.064   6.507  22.733  0.00  0.00    +0.046 A 
ATOM     27  C   UNL     1     -14.559   5.323  23.270  0.00  0.00    +0.120 A 
BRANCH  27   4
ATOM      4  O   UNL     1     -15.254   4.664  24.236  0.00  0.00    -0.495 OA
ATOM     28  C   UNL     1     -16.428   3.963  23.828  0.00  0.00    +0.277 C 
ENDBRANCH  27   4
ENDBRANCH  15  18
ENDBRANCH  10  12
ENDBRANCH   7  10
TORSDOF 8
ENDMDL
MODEL 5
REMARK VINA RESULT:      -5.8     32.940     36.632
REMARK  Name = 71694098
REMARK  10 active torsions:
REMARK  status: ('A' for Active; 'I' for Inactive)
REMARK    1  A    between atoms: O_3  and  C_16
REMARK    2  A    between atoms: O_3  and  C_26
REMARK    3  A    between atoms: O_4  and  C_27
REMARK    4  A    between atoms: O_4  and  C_28
REMARK    5  A    between atoms: N_5  and  C_7
REMARK    6  A    between atoms: N_5  and  C_11
REMARK    7  A    between atoms: C_7  and  C_10
REMARK    8  A    between atoms: C_10  and  C_12
REMARK    9  A    between atoms: C_11  and  C_13
REMARK   10  A    between atoms: C_15  and  C_18
REMARK                            x       y       z     vdW  Elec       q    Type
REMARK                         _______ _______ _______ _____ _____    ______ ____
ROOT
ATOM      1  O   UNL     1     -18.313   2.086  22.515  0.00  0.00    -0.376 OA
ATOM      7  C   UNL     1     -16.907   3.517  23.250  0.00  0.00    +0.072 C 
ATOM      8  C   UNL     1     -17.866   3.389  22.060  0.00  0.00    +0.184 C 
ATOM      9  C   UNL     1     -17.229   2.035  23.480  0.00  0.00    +0.184 C 
ENDROOT
BRANCH   7   5
ATOM      5  N   UNL     1     -15.537   3.617  22.739  0.00  0.00    -0.302 NA
ATOM     29  H   UNL     1     -14.962   2.785  22.852  0.00  0.00    +0.123 HD
BRANCH   5  11
ATOM     11  C   UNL     1     -14.881   4.775  23.335  0.00  0.00    +0.120 C 
BRANCH  11  13
ATOM     13  C   UNL     1     -14.192   5.624  22.300  0.00  0.00    +0.008 A 
ATOM     16  C   UNL     1     -14.916   6.524  21.518  0.00  0.00    +0.124 A 
ATOM     17  C   UNL     1     -12.813   5.502  22.127  0.00  0.00    +0.008 A 
ATOM     19  C   UNL     1     -14.262   7.302  20.564  0.00  0.00    +0.046 A 
ATOM     20  C   UNL     1     -12.158   6.280  21.172  0.00  0.00    +0.001 A 
ATOM     21  C   UNL     1     -12.883   7.180  20.391  0.00  0.00    +0.004 A 
BRANCH  16   3
ATOM      3  O   UNL     1     -16.263   6.656  21.675  0.00  0.00    -0.495 OA
ATOM     26  C   UNL     1     -17.064   6.568  20.498  0.00  0.00    +0.277 C 
ENDBRANCH  16   3
ENDBRANCH  11  13
ENDBRANCH   5  11
ENDBRANCH   7   5
BRANCH   7  10
ATOM     10  C   UNL     1     -17.209   4.511  24.342  0.00  0.00    +0.085 C 
BRANCH  10  12
ATOM      2  O   UNL     1     -18.082   2.826  27.413  0.00  0.00    -0.354 OA
ATOM      6  N   UNL     1     -18.406   3.396  26.188  0.00  0.00    -0.083 NA
ATOM     12  C   UNL     1     -17.243   3.825  25.689  0.00  0.00    +0.086 A 
ATOM     14  C   UNL     1     -16.163   3.556  26.544  0.00  0.00    +0.076 A 
ATOM     15  C   UNL     1     -16.743   2.927  27.615  0.00  0.00    +0.167 A 
BRANCH  15  18
ATOM     18  C   UNL     1     -16.255   2.377  28.846  0.00  0.00    +0.020 A 
ATOM     22  C   UNL     1     -15.949   1.019  28.930  0.00  0.00    +0.015 A 
ATOM     23  C   UNL     1     -16.088   3.201  29.960  0.00  0.00    +0.015 A 
ATOM     24  C   UNL     1     -15.474   0.485  30.128  0.00  0.00    +0.046 A 
ATOM     25  C   UNL     1     -15.614   2.667  31.158  0.00  0.00    +0.046 A 
ATOM     27  C   UNL     1     -15.307   1.308  31.242  0.00  0.00    +0.120 A 
BRANCH  27   4
ATOM      4  O   UNL     1     -14.841   0.788  32.409  0.00  0.00    -0.495 OA
ATOM     28  C   UNL     1     -14.421   1.712  33.411  0.00  0.00    +0.277 C 
ENDBRANCH  27   4
ENDBRANCH  15  18
ENDBRANCH  10  12
ENDBRANCH   7  10
TORSDOF 8
ENDMDL
MODEL 6
REMARK VINA RESULT:      -5.7     35.367     36.799
REMARK  Name = 71694098
REMARK  10 active torsions:
REMARK  status: ('A' for Active; 'I' for Inactive)
REMARK    1  A    between atoms: O_3  and  C_16
REMARK    2  A    between atoms: O_3  and  C_26
REMARK    3  A    between atoms: O_4  and  C_27
REMARK    4  A    between atoms: O_4  and  C_28
REMARK    5  A    between atoms: N_5  and  C_7
REMARK    6  A    between atoms: N_5  and  C_11
REMARK    7  A    between atoms: C_7  and  C_10
REMARK    8  A    between atoms: C_10  and  C_12
REMARK    9  A    between atoms: C_11  and  C_13
REMARK   10  A    between atoms: C_15  and  C_18
REMARK                            x       y       z     vdW  Elec       q    Type
REMARK                         _______ _______ _______ _____ _____    ______ ____
ROOT
ATOM      1  O   UNL     1     -14.453  -0.722  29.889  0.00  0.00    -0.376 OA
ATOM      7  C   UNL     1     -15.030   0.984  31.038  0.00  0.00    +0.072 C 
ATOM      8  C   UNL     1     -15.670  -0.332  30.576  0.00  0.00    +0.184 C 
ATOM      9  C   UNL     1     -13.912   0.615  30.054  0.00  0.00    +0.184 C 
ENDROOT
BRANCH   7   5
ATOM      5  N   UNL     1     -15.793   2.100  30.471  0.00  0.00    -0.302 NA
ATOM     29  H   UNL     1     -16.718   1.867  30.117  0.00  0.00    +0.123 HD
BRANCH   5  11
ATOM     11  C   UNL     1     -14.999   2.752  29.436  0.00  0.00    +0.120 C 
BRANCH  11  13
ATOM     13  C   UNL     1     -15.845   3.630  28.552  0.00  0.00    +0.008 A 
ATOM     16  C   UNL     1     -16.428   4.795  29.052  0.00  0.00    +0.124 A 
ATOM     17  C   UNL     1     -16.043   3.267  27.220  0.00  0.00    +0.008 A 
ATOM     19  C   UNL     1     -17.208   5.597  28.220  0.00  0.00    +0.046 A 
ATOM     20  C   UNL     1     -16.823   4.069  26.387  0.00  0.00    +0.001 A 
ATOM     21  C   UNL     1     -17.406   5.234  26.887  0.00  0.00    +0.004 A 
BRANCH  16   3
ATOM      3  O   UNL     1     -16.243   5.164  30.350  0.00  0.00    -0.495 OA
ATOM     26  C   UNL     1     -17.092   6.193  30.858  0.00  0.00    +0.277 C 
ENDBRANCH  16   3
ENDBRANCH  11  13
ENDBRANCH   5  11
ENDBRANCH   7   5
BRANCH   7  10
ATOM     10  C   UNL     1     -14.692   1.172  32.495  0.00  0.00    +0.085 C 
BRANCH  10  12
ATOM      2  O   UNL     1     -15.654   4.490  33.542  0.00  0.00    -0.354 OA
ATOM      6  N   UNL     1     -15.933   3.154  33.280  0.00  0.00    -0.083 NA
ATOM     12  C   UNL     1     -14.771   2.633  32.873  0.00  0.00    +0.086 A 
ATOM     14  C   UNL     1     -13.736   3.582  32.860  0.00  0.00    +0.076 A 
ATOM     15  C   UNL     1     -14.343   4.733  33.288  0.00  0.00    +0.167 A 
BRANCH  15  18
ATOM     18  C   UNL     1     -13.904   6.079  33.516  0.00  0.00    +0.020 A 
ATOM     22  C   UNL     1     -13.763   6.958  32.443  0.00  0.00    +0.015 A 
ATOM     23  C   UNL     1     -13.616   6.508  34.812  0.00  0.00    +0.015 A 
ATOM     24  C   UNL     1     -13.337   8.267  32.665  0.00  0.00    +0.046 A 
ATOM     25  C   UNL     1     -13.189   7.818  35.034  0.00  0.00    +0.046 A 
ATOM     27  C   UNL     1     -13.049   8.697  33.961  0.00  0.00    +0.120 A 
BRANCH  27   4
ATOM      4  O   UNL     1     -12.636   9.975  34.177  0.00  0.00    -0.495 OA
ATOM     28  C   UNL     1     -12.891  10.530  35.467  0.00  0.00    +0.277 C 
ENDBRANCH  27   4
ENDBRANCH  15  18
ENDBRANCH  10  12
ENDBRANCH   7  10
TORSDOF 8
ENDMDL
MODEL 7
REMARK VINA RESULT:      -5.7     16.771     21.557
REMARK  Name = 71694098
REMARK  10 active torsions:
REMARK  status: ('A' for Active; 'I' for Inactive)
REMARK    1  A    between atoms: O_3  and  C_16
REMARK    2  A    between atoms: O_3  and  C_26
REMARK    3  A    between atoms: O_4  and  C_27
REMARK    4  A    between atoms: O_4  and  C_28
REMARK    5  A    between atoms: N_5  and  C_7
REMARK    6  A    between atoms: N_5  and  C_11
REMARK    7  A    between atoms: C_7  and  C_10
REMARK    8  A    between atoms: C_10  and  C_12
REMARK    9  A    between atoms: C_11  and  C_13
REMARK   10  A    between atoms: C_15  and  C_18
REMARK                            x       y       z     vdW  Elec       q    Type
REMARK                         _______ _______ _______ _____ _____    ______ ____
ROOT
ATOM      1  O   UNL     1      12.866   8.002   3.156  0.00  0.00    -0.376 OA
ATOM      7  C   UNL     1      11.375   6.603   3.773  0.00  0.00    +0.072 C 
ATOM      8  C   UNL     1      11.734   8.067   4.060  0.00  0.00    +0.184 C 
ATOM      9  C   UNL     1      12.742   6.558   3.078  0.00  0.00    +0.184 C 
ENDROOT
BRANCH   7   5
ATOM      5  N   UNL     1      11.470   5.844   5.024  0.00  0.00    -0.302 NA
ATOM     29  H   UNL     1      12.244   5.187   5.084  0.00  0.00    +0.123 HD
BRANCH   5  11
ATOM     11  C   UNL     1      10.204   5.166   5.275  0.00  0.00    +0.120 C 
BRANCH  11  13
ATOM     13  C   UNL     1       9.815   5.224   6.729  0.00  0.00    +0.008 A 
ATOM     16  C   UNL     1       9.336   6.407   7.292  0.00  0.00    +0.124 A 
ATOM     17  C   UNL     1       9.940   4.078   7.515  0.00  0.00    +0.008 A 
ATOM     19  C   UNL     1       8.980   6.443   8.640  0.00  0.00    +0.046 A 
ATOM     20  C   UNL     1       9.585   4.114   8.863  0.00  0.00    +0.001 A 
ATOM     21  C   UNL     1       9.105   5.297   9.426  0.00  0.00    +0.004 A 
BRANCH  16   3
ATOM      3  O   UNL     1       9.206   7.534   6.539  0.00  0.00    -0.495 OA
ATOM     26  C   UNL     1       9.782   8.731   7.061  0.00  0.00    +0.277 C 
ENDBRANCH  16   3
ENDBRANCH  11  13
ENDBRANCH   5  11
ENDBRANCH   7   5
BRANCH   7  10
ATOM     10  C   UNL     1      10.137   6.285   2.976  0.00  0.00    +0.085 C 
BRANCH  10  12
ATOM      2  O   UNL     1      11.150   3.609   0.775  0.00  0.00    -0.354 OA
ATOM      6  N   UNL     1      10.956   4.156   2.037  0.00  0.00    -0.083 NA
ATOM     12  C   UNL     1      10.472   5.382   1.812  0.00  0.00    +0.086 A 
ATOM     14  C   UNL     1      10.340   5.660   0.441  0.00  0.00    +0.076 A 
ATOM     15  C   UNL     1      10.780   4.514  -0.168  0.00  0.00    +0.167 A 
BRANCH  15  18
ATOM     18  C   UNL     1      10.923   4.088  -1.529  0.00  0.00    +0.020 A 
ATOM     22  C   UNL     1      11.821   3.071  -1.851  0.00  0.00    +0.015 A 
ATOM     23  C   UNL     1      10.163   4.692  -2.532  0.00  0.00    +0.015 A 
ATOM     24  C   UNL     1      11.959   2.656  -3.176  0.00  0.00    +0.046 A 
ATOM     25  C   UNL     1      10.302   4.278  -3.857  0.00  0.00    +0.046 A 
ATOM     27  C   UNL     1      11.200   3.260  -4.179  0.00  0.00    +0.120 A 
BRANCH  27   4
ATOM      4  O   UNL     1      11.333   2.854  -5.470  0.00  0.00    -0.495 OA
ATOM     28  C   UNL     1      11.290   3.864  -6.477  0.00  0.00    +0.277 C 
ENDBRANCH  27   4
ENDBRANCH  15  18
ENDBRANCH  10  12
ENDBRANCH   7  10
TORSDOF 8
ENDMDL
MODEL 8
REMARK VINA RESULT:      -5.7      1.200      2.076
REMARK  Name = 71694098
REMARK  10 active torsions:
REMARK  status: ('A' for Active; 'I' for Inactive)
REMARK    1  A    between atoms: O_3  and  C_16
REMARK    2  A    between atoms: O_3  and  C_26
REMARK    3  A    between atoms: O_4  and  C_27
REMARK    4  A    between atoms: O_4  and  C_28
REMARK    5  A    between atoms: N_5  and  C_7
REMARK    6  A    between atoms: N_5  and  C_11
REMARK    7  A    between atoms: C_7  and  C_10
REMARK    8  A    between atoms: C_10  and  C_12
REMARK    9  A    between atoms: C_11  and  C_13
REMARK   10  A    between atoms: C_15  and  C_18
REMARK                            x       y       z     vdW  Elec       q    Type
REMARK                         _______ _______ _______ _____ _____    ______ ____
ROOT
ATOM      1  O   UNL     1      22.464   8.363  21.176  0.00  0.00    -0.376 OA
ATOM      7  C   UNL     1      22.012   6.289  21.413  0.00  0.00    +0.072 C 
ATOM      8  C   UNL     1      22.866   7.344  22.128  0.00  0.00    +0.184 C 
ATOM      9  C   UNL     1      21.885   7.350  20.313  0.00  0.00    +0.184 C 
ENDROOT
BRANCH   7   5
ATOM      5  N   UNL     1      22.895   5.224  20.927  0.00  0.00    -0.302 NA
ATOM     29  H   UNL     1      23.226   5.328  19.970  0.00  0.00    +0.123 HD
BRANCH   5  11
ATOM     11  C   UNL     1      22.240   3.934  21.103  0.00  0.00    +0.120 C 
BRANCH  11  13
ATOM     13  C   UNL     1      23.176   2.903  21.677  0.00  0.00    +0.008 A 
ATOM     16  C   UNL     1      24.218   2.381  20.911  0.00  0.00    +0.124 A 
ATOM     17  C   UNL     1      22.992   2.472  22.991  0.00  0.00    +0.008 A 
ATOM     19  C   UNL     1      25.076   1.428  21.458  0.00  0.00    +0.046 A 
ATOM     20  C   UNL     1      23.849   1.518  23.538  0.00  0.00    +0.001 A 
ATOM     21  C   UNL     1      24.892   0.996  22.772  0.00  0.00    +0.004 A 
BRANCH  16   3
ATOM      3  O   UNL     1      24.413   2.793  19.627  0.00  0.00    -0.495 OA
ATOM     26  C   UNL     1      25.648   3.445  19.336  0.00  0.00    +0.277 C 
ENDBRANCH  16   3
ENDBRANCH  11  13
ENDBRANCH   5  11
ENDBRANCH   7   5
BRANCH   7  10
ATOM     10  C   UNL     1      20.764   5.770  22.079  0.00  0.00    +0.085 C 
BRANCH  10  12
ATOM      2  O   UNL     1      18.149   5.909  19.594  0.00  0.00    -0.354 OA
ATOM      6  N   UNL     1      19.328   5.385  20.111  0.00  0.00    -0.083 NA
ATOM     12  C   UNL     1      19.547   6.073  21.235  0.00  0.00    +0.086 A 
ATOM     14  C   UNL     1      18.550   7.033  21.477  0.00  0.00    +0.076 A 
ATOM     15  C   UNL     1      17.695   6.889  20.416  0.00  0.00    +0.167 A 
BRANCH  15  18
ATOM     18  C   UNL     1      16.477   7.526  20.011  0.00  0.00    +0.020 A 
ATOM     22  C   UNL     1      16.223   8.847  20.382  0.00  0.00    +0.015 A 
ATOM     23  C   UNL     1      15.543   6.825  19.247  0.00  0.00    +0.015 A 
ATOM     24  C   UNL     1      15.038   9.467  19.988  0.00  0.00    +0.046 A 
ATOM     25  C   UNL     1      14.357   7.445  18.853  0.00  0.00    +0.046 A 
ATOM     27  C   UNL     1      14.105   8.765  19.223  0.00  0.00    +0.120 A 
BRANCH  27   4
ATOM      4  O   UNL     1      12.950   9.371  18.836  0.00  0.00    -0.495 OA
ATOM     28  C   UNL     1      11.816   8.531  18.620  0.00  0.00    +0.277 C 
ENDBRANCH  27   4
ENDBRANCH  15  18
ENDBRANCH  10  12
ENDBRANCH   7  10
TORSDOF 8
ENDMDL
MODEL 9
REMARK VINA RESULT:      -5.6     35.400     36.696
REMARK  Name = 71694098
REMARK  10 active torsions:
REMARK  status: ('A' for Active; 'I' for Inactive)
REMARK    1  A    between atoms: O_3  and  C_16
REMARK    2  A    between atoms: O_3  and  C_26
REMARK    3  A    between atoms: O_4  and  C_27
REMARK    4  A    between atoms: O_4  and  C_28
REMARK    5  A    between atoms: N_5  and  C_7
REMARK    6  A    between atoms: N_5  and  C_11
REMARK    7  A    between atoms: C_7  and  C_10
REMARK    8  A    between atoms: C_10  and  C_12
REMARK    9  A    between atoms: C_11  and  C_13
REMARK   10  A    between atoms: C_15  and  C_18
REMARK                            x       y       z     vdW  Elec       q    Type
REMARK                         _______ _______ _______ _____ _____    ______ ____
ROOT
ATOM      1  O   UNL     1     -14.922  -1.252  30.226  0.00  0.00    -0.376 OA
ATOM      7  C   UNL     1     -14.675   0.831  30.629  0.00  0.00    +0.072 C 
ATOM      8  C   UNL     1     -15.407  -0.360  31.262  0.00  0.00    +0.184 C 
ATOM      9  C   UNL     1     -14.462  -0.119  29.444  0.00  0.00    +0.184 C 
ENDROOT
BRANCH   7   5
ATOM      5  N   UNL     1     -15.669   1.837  30.241  0.00  0.00    -0.302 NA
ATOM     29  H   UNL     1     -16.632   1.512  30.199  0.00  0.00    +0.123 HD
BRANCH   5  11
ATOM     11  C   UNL     1     -15.278   2.437  28.971  0.00  0.00    +0.120 C 
BRANCH  11  13
ATOM     13  C   UNL     1     -16.007   3.730  28.714  0.00  0.00    +0.008 A 
ATOM     16  C   UNL     1     -16.581   3.989  27.470  0.00  0.00    +0.124 A 
ATOM     17  C   UNL     1     -16.105   4.672  29.738  0.00  0.00    +0.008 A 
ATOM     19  C   UNL     1     -17.254   5.191  27.249  0.00  0.00    +0.046 A 
ATOM     20  C   UNL     1     -16.777   5.874  29.518  0.00  0.00    +0.001 A 
ATOM     21  C   UNL     1     -17.351   6.134  28.273  0.00  0.00    +0.004 A 
BRANCH  16   3
ATOM      3  O   UNL     1     -16.497   3.079  26.460  0.00  0.00    -0.495 OA
ATOM     26  C   UNL     1     -15.927   3.527  25.230  0.00  0.00    +0.277 C 
ENDBRANCH  16   3
ENDBRANCH  11  13
ENDBRANCH   5  11
ENDBRANCH   7   5
BRANCH   7  10
ATOM     10  C   UNL     1     -13.474   1.418  31.325  0.00  0.00    +0.085 C 
BRANCH  10  12
ATOM      2  O   UNL     1     -14.881   3.943  33.487  0.00  0.00    -0.354 OA
ATOM      6  N   UNL     1     -14.778   2.636  33.028  0.00  0.00    -0.083 NA
ATOM     12  C   UNL     1     -13.853   2.680  32.064  0.00  0.00    +0.086 A 
ATOM     14  C   UNL     1     -13.342   3.975  31.874  0.00  0.00    +0.076 A 
ATOM     15  C   UNL     1     -14.021   4.732  32.793  0.00  0.00    +0.167 A 
BRANCH  15  18
ATOM     18  C   UNL     1     -14.013   6.118  33.159  0.00  0.00    +0.020 A 
ATOM     22  C   UNL     1     -13.670   6.494  34.457  0.00  0.00    +0.015 A 
ATOM     23  C   UNL     1     -14.350   7.090  32.216  0.00  0.00    +0.015 A 
ATOM     24  C   UNL     1     -13.661   7.843  34.813  0.00  0.00    +0.046 A 
ATOM     25  C   UNL     1     -14.343   8.439  32.572  0.00  0.00    +0.046 A 
ATOM     27  C   UNL     1     -13.998   8.815  33.871  0.00  0.00    +0.120 A 
BRANCH  27   4
ATOM      4  O   UNL     1     -13.988  10.130  34.217  0.00  0.00    -0.495 OA
ATOM     28  C   UNL     1     -12.716  10.773  34.289  0.00  0.00    +0.277 C 
ENDBRANCH  27   4
ENDBRANCH  15  18
ENDBRANCH  10  12
ENDBRANCH   7  10
TORSDOF 8
ENDMDL
MODEL 10
REMARK VINA RESULT:      -5.6     17.874     22.690
REMARK  Name = 71694098
REMARK  10 active torsions:
REMARK  status: ('A' for Active; 'I' for Inactive)
REMARK    1  A    between atoms: O_3  and  C_16
REMARK    2  A    between atoms: O_3  and  C_26
REMARK    3  A    between atoms: O_4  and  C_27
REMARK    4  A    between atoms: O_4  and  C_28
REMARK    5  A    between atoms: N_5  and  C_7
REMARK    6  A    between atoms: N_5  and  C_11
REMARK    7  A    between atoms: C_7  and  C_10
REMARK    8  A    between atoms: C_10  and  C_12
REMARK    9  A    between atoms: C_11  and  C_13
REMARK   10  A    between atoms: C_15  and  C_18
REMARK                            x       y       z     vdW  Elec       q    Type
REMARK                         _______ _______ _______ _____ _____    ______ ____
ROOT
ATOM      1  O   UNL     1      13.292   7.426   2.752  0.00  0.00    -0.376 OA
ATOM      7  C   UNL     1      11.679   6.026   2.814  0.00  0.00    +0.072 C 
ATOM      8  C   UNL     1      12.202   7.099   1.850  0.00  0.00    +0.184 C 
ATOM      9  C   UNL     1      12.676   6.640   3.805  0.00  0.00    +0.184 C 
ENDROOT
BRANCH   7   5
ATOM      5  N   UNL     1      10.325   6.395   3.234  0.00  0.00    -0.302 NA
ATOM     29  H   UNL     1      10.223   7.331   3.623  0.00  0.00    +0.123 HD
BRANCH   5  11
ATOM     11  C   UNL     1       9.819   5.397   4.170  0.00  0.00    +0.120 C 
BRANCH  11  13
ATOM     13  C   UNL     1       9.485   6.002   5.508  0.00  0.00    +0.008 A 
ATOM     16  C   UNL     1       8.540   7.022   5.613  0.00  0.00    +0.124 A 
ATOM     17  C   UNL     1      10.134   5.531   6.650  0.00  0.00    +0.008 A 
ATOM     19  C   UNL     1       8.243   7.572   6.860  0.00  0.00    +0.046 A 
ATOM     20  C   UNL     1       9.837   6.080   7.897  0.00  0.00    +0.001 A 
ATOM     21  C   UNL     1       8.891   7.100   8.002  0.00  0.00    +0.004 A 
BRANCH  16   3
ATOM      3  O   UNL     1       7.897   7.493   4.509  0.00  0.00    -0.495 OA
ATOM     26  C   UNL     1       7.875   8.908   4.325  0.00  0.00    +0.277 C 
ENDBRANCH  16   3
ENDBRANCH  11  13
ENDBRANCH   5  11
ENDBRANCH   7   5
BRANCH   7  10
ATOM     10  C   UNL     1      11.813   4.571   2.446  0.00  0.00    +0.085 C 
BRANCH  10  12
ATOM      2  O   UNL     1       9.997   4.193  -0.651  0.00  0.00    -0.354 OA
ATOM      6  N   UNL     1      10.064   4.470   0.708  0.00  0.00    -0.083 NA
ATOM     12  C   UNL     1      11.357   4.340   1.023  0.00  0.00    +0.086 A 
ATOM     14  C   UNL     1      12.144   3.988  -0.086  0.00  0.00    +0.076 A 
ATOM     15  C   UNL     1      11.241   3.908  -1.114  0.00  0.00    +0.167 A 
BRANCH  15  18
ATOM     18  C   UNL     1      11.330   3.601  -2.511  0.00  0.00    +0.020 A 
ATOM     22  C   UNL     1      10.194   3.679  -3.317  0.00  0.00    +0.015 A 
ATOM     23  C   UNL     1      12.554   3.223  -3.065  0.00  0.00    +0.015 A 
ATOM     24  C   UNL     1      10.282   3.382  -4.677  0.00  0.00    +0.046 A 
ATOM     25  C   UNL     1      12.642   2.924  -4.425  0.00  0.00    +0.046 A 
ATOM     27  C   UNL     1      11.506   3.004  -5.231  0.00  0.00    +0.120 A 
BRANCH  27   4
ATOM      4  O   UNL     1      11.592   2.716  -6.558  0.00  0.00    -0.495 OA
ATOM     28  C   UNL     1      11.529   3.814  -7.466  0.00  0.00    +0.277 C 
ENDBRANCH  27   4
ENDBRANCH  15  18
ENDBRANCH  10  12
ENDBRANCH   7  10
TORSDOF 8
ENDMDL
