REMARK  Name = 45361631
REMARK  10 active torsions:
REMARK  status: ('A' for Active; 'I' for Inactive)
REMARK    1  A    between atoms: O_1  and  C_12
REMARK    2  A    between atoms: N_5  and  C_16
REMARK    3  A    between atoms: N_6  and  C_26
REMARK    4  A    between atoms: C_9  and  C_19
REMARK    5  A    between atoms: C_11  and  C_21
REMARK    6  A    between atoms: C_15  and  C_20
REMARK    7  A    between atoms: C_20  and  C_22
REMARK    8  A    between atoms: C_20  and  C_23
REMARK    9  A    between atoms: C_24  and  C_25
REMARK   10  A    between atoms: C_26  and  C_29
REMARK                            x       y       z     vdW  Elec       q    Type
REMARK                         _______ _______ _______ _____ _____    ______ ____
ROOT
ATOM      9  C   UNL     1       0.044   0.278   1.511  0.00  0.00    -0.027 C 
ATOM     10  C   UNL     1      -0.169  -0.308   0.075  0.00  0.00    +0.028 C 
ATOM     11  C   UNL     1      -1.672  -0.709  -0.147  0.00  0.00    +0.012 C 
ATOM     12  C   UNL     1       0.873  -1.419  -0.241  0.00  0.00    +0.122 C 
ATOM     13  C   UNL     1       1.505   0.766   1.657  0.00  0.00    +0.007 C 
ATOM     14  C   UNL     1      -0.882   1.502   1.699  0.00  0.00    +0.009 C 
ATOM     15  C   UNL     1       2.328  -0.957   0.006  0.00  0.00    +0.029 C 
ATOM     16  C   UNL     1      -2.599   0.510   0.119  0.00  0.00    +0.076 C 
ATOM     17  C   UNL     1       2.528  -0.330   1.386  0.00  0.00    +0.007 C 
ATOM     18  C   UNL     1      -2.351   1.179   1.470  0.00  0.00    +0.023 C 
ATOM     19  C   UNL     1      -0.247  -0.759   2.625  0.00  0.00    +0.011 C 
ATOM     21  C   UNL     1      -1.959  -1.266  -1.551  0.00  0.00    +0.010 C 
ENDROOT
BRANCH  16   5
ATOM      3  O   UNL     1      -4.756   2.186  -0.767  0.00  0.00    -0.270 OA
ATOM      5  N   UNL     1      -3.999   0.147   0.036  0.00  0.00    -0.308 N 
ATOM     24  C   UNL     1      -4.968   1.031  -0.406  0.00  0.00    +0.247 C 
ATOM     34  H   UNL     1      -4.265  -0.756   0.414  0.00  0.00    +0.149 HD
BRANCH  24  25
ATOM      7  N   UNL     1      -8.731   0.913  -0.276  0.00  0.00    -0.243 NA
ATOM      8  N   UNL     1      -7.898  -1.333  -0.537  0.00  0.00    -0.243 NA
ATOM     25  C   UNL     1      -6.361   0.515  -0.406  0.00  0.00    +0.073 A 
ATOM     27  C   UNL     1      -7.453   1.348  -0.280  0.00  0.00    +0.127 A 
ATOM     28  C   UNL     1      -6.646  -0.830  -0.533  0.00  0.00    +0.127 A 
ATOM     31  C   UNL     1      -8.878  -0.419  -0.407  0.00  0.00    +0.221 A 
ENDBRANCH  24  25
ENDBRANCH  16   5
BRANCH  12   1
ATOM      1  O   UNL     1       0.787  -1.774  -1.622  0.00  0.00    -0.391 OA
ATOM     35  H   UNL     1       0.972  -0.979  -2.151  0.00  0.00    +0.210 HD
ENDBRANCH  12   1
BRANCH  15  20
ATOM     20  C   UNL     1       3.329  -2.103  -0.185  0.00  0.00    +0.077 C 
ATOM     22  C   UNL     1       3.013  -3.242   0.778  0.00  0.00    +0.017 C 
BRANCH  20  23
ATOM      2  O   UNL     1       5.322  -1.609   1.098  0.00  0.00    -0.276 OA
ATOM      6  N   UNL     1       5.308  -1.106  -1.166  0.00  0.00    -0.308 N 
ATOM     23  C   UNL     1       4.752  -1.589   0.009  0.00  0.00    +0.217 C 
ATOM     36  H   UNL     1       4.752  -1.101  -2.017  0.00  0.00    +0.149 HD
BRANCH   6  26
ATOM     26  C   UNL     1       6.645  -0.564  -1.233  0.00  0.00    +0.178 C 
BRANCH  26  29
ATOM      4  O   UNL     1       6.209   1.274   0.297  0.00  0.00    -0.466 OA
ATOM     29  C   UNL     1       6.672   0.906  -0.927  0.00  0.00    +0.122 A 
ATOM     30  C   UNL     1       7.079   2.008  -1.642  0.00  0.00    +0.046 A 
ATOM     32  C   UNL     1       6.852   3.126  -0.804  0.00  0.00    +0.041 A 
ATOM     33  C   UNL     1       6.322   2.626   0.364  0.00  0.00    +0.195 A 
ENDBRANCH  26  29
ENDBRANCH   6  26
ENDBRANCH  20  23
ENDBRANCH  15  20
TORSDOF 7
