MODEL 1
REMARK VINA RESULT:      -6.6      0.000      0.000
REMARK  Name = 75537064
REMARK  4 active torsions:
REMARK  status: ('A' for Active; 'I' for Inactive)
REMARK    1  A    between atoms: N_3  and  C_12
REMARK    2  A    between atoms: N_4  and  C_13
REMARK    3  A    between atoms: C_12  and  C_14
REMARK    4  A    between atoms: C_13  and  C_15
REMARK                            x       y       z     vdW  Elec       q    Type
REMARK                         _______ _______ _______ _____ _____    ______ ____
ROOT
ATOM      1  O   UNL     1      15.587   9.773  20.582  0.00  0.00    -0.252 OA
ATOM      2  N   UNL     1      17.087   7.986  20.853  0.00  0.00    -0.278 N 
ATOM      3  N   UNL     1      19.541   6.621  21.023  0.00  0.00    -0.295 NA
ATOM      4  N   UNL     1      15.277   7.669  19.563  0.00  0.00    -0.279 N 
ATOM      6  C   UNL     1      17.136   6.584  20.496  0.00  0.00    +0.109 C 
ATOM      7  C   UNL     1      18.538   6.205  20.019  0.00  0.00    +0.109 C 
ATOM      8  C   UNL     1      16.039   6.439  19.443  0.00  0.00    +0.133 C 
ATOM      9  C   UNL     1      18.113   8.534  21.715  0.00  0.00    +0.125 C 
ATOM     10  C   UNL     1      19.495   8.082  21.237  0.00  0.00    +0.104 C 
ATOM     11  C   UNL     1      15.938   8.621  20.364  0.00  0.00    +0.305 C 
ENDROOT
BRANCH   3  12
ATOM     12  C   UNL     1      20.880   6.209  20.604  0.00  0.00    +0.119 C 
BRANCH  12  14
ATOM     14  C   UNL     1      21.523   5.288  21.608  0.00  0.00    -0.033 A 
ATOM     16  C   UNL     1      21.649   3.928  21.326  0.00  0.00    +0.005 A 
ATOM     17  C   UNL     1      21.991   5.796  22.820  0.00  0.00    +0.005 A 
ATOM     20  C   UNL     1      22.244   3.076  22.256  0.00  0.00    +0.000 A 
ATOM     21  C   UNL     1      22.586   4.944  23.750  0.00  0.00    +0.000 A 
ATOM     23  C   UNL     1      22.712   3.584  23.468  0.00  0.00    +0.000 A 
ENDBRANCH  12  14
ENDBRANCH   3  12
BRANCH   4  13
ATOM     13  C   UNL     1      14.064   7.896  18.807  0.00  0.00    +0.146 C 
BRANCH  13  15
ATOM      5  N   UNL     1      11.334   6.460  21.001  0.00  0.00    -0.263 NA
ATOM     15  C   UNL     1      12.838   7.812  19.676  0.00  0.00    -0.012 A 
ATOM     18  C   UNL     1      12.083   8.945  19.962  0.00  0.00    +0.008 A 
ATOM     19  C   UNL     1      12.424   6.605  20.215  0.00  0.00    +0.115 A 
ATOM     22  C   UNL     1      10.955   8.836  20.768  0.00  0.00    +0.020 A 
ATOM     24  C   UNL     1      10.626   7.584  21.257  0.00  0.00    +0.111 A 
ENDBRANCH  13  15
ENDBRANCH   4  13
TORSDOF 4
ENDMDL
MODEL 2
REMARK VINA RESULT:      -6.1     30.766     33.864
REMARK  Name = 75537064
REMARK  4 active torsions:
REMARK  status: ('A' for Active; 'I' for Inactive)
REMARK    1  A    between atoms: N_3  and  C_12
REMARK    2  A    between atoms: N_4  and  C_13
REMARK    3  A    between atoms: C_12  and  C_14
REMARK    4  A    between atoms: C_13  and  C_15
REMARK                            x       y       z     vdW  Elec       q    Type
REMARK                         _______ _______ _______ _____ _____    ______ ____
ROOT
ATOM      1  O   UNL     1     -17.108   2.022  22.529  0.00  0.00    -0.252 OA
ATOM      2  N   UNL     1     -16.508   2.445  24.760  0.00  0.00    -0.278 N 
ATOM      3  N   UNL     1     -16.639   2.389  27.569  0.00  0.00    -0.295 NA
ATOM      4  N   UNL     1     -16.414   4.143  23.293  0.00  0.00    -0.279 N 
ATOM      6  C   UNL     1     -15.936   3.543  25.511  0.00  0.00    +0.109 C 
ATOM      7  C   UNL     1     -16.639   3.687  26.861  0.00  0.00    +0.109 C 
ATOM      8  C   UNL     1     -16.091   4.741  24.577  0.00  0.00    +0.133 C 
ATOM      9  C   UNL     1     -16.693   1.163  25.408  0.00  0.00    +0.125 C 
ATOM     10  C   UNL     1     -17.343   1.359  26.779  0.00  0.00    +0.104 C 
ATOM     11  C   UNL     1     -16.721   2.773  23.415  0.00  0.00    +0.305 C 
ENDROOT
BRANCH   3  12
ATOM     12  C   UNL     1     -17.255   2.530  28.889  0.00  0.00    +0.119 C 
BRANCH  12  14
ATOM     14  C   UNL     1     -16.329   2.085  29.990  0.00  0.00    -0.033 A 
ATOM     16  C   UNL     1     -15.855   0.774  30.015  0.00  0.00    +0.005 A 
ATOM     17  C   UNL     1     -15.947   2.985  30.984  0.00  0.00    +0.005 A 
ATOM     20  C   UNL     1     -14.997   0.362  31.035  0.00  0.00    +0.000 A 
ATOM     21  C   UNL     1     -15.089   2.574  32.004  0.00  0.00    +0.000 A 
ATOM     23  C   UNL     1     -14.615   1.262  32.030  0.00  0.00    +0.000 A 
ENDBRANCH  12  14
ENDBRANCH   3  12
BRANCH   4  13
ATOM     13  C   UNL     1     -16.538   4.934  22.088  0.00  0.00    +0.146 C 
BRANCH  13  15
ATOM      5  N   UNL     1     -14.231   7.763  21.086  0.00  0.00    -0.263 NA
ATOM     15  C   UNL     1     -15.277   5.699  21.787  0.00  0.00    -0.012 A 
ATOM     18  C   UNL     1     -14.028   5.101  21.915  0.00  0.00    +0.008 A 
ATOM     19  C   UNL     1     -15.324   7.020  21.373  0.00  0.00    +0.115 A 
ATOM     22  C   UNL     1     -12.881   5.832  21.629  0.00  0.00    +0.020 A 
ATOM     24  C   UNL     1     -13.035   7.147  21.222  0.00  0.00    +0.111 A 
ENDBRANCH  13  15
ENDBRANCH   4  13
TORSDOF 4
ENDMDL
MODEL 3
REMARK VINA RESULT:      -6.0     28.929     31.505
REMARK  Name = 75537064
REMARK  4 active torsions:
REMARK  status: ('A' for Active; 'I' for Inactive)
REMARK    1  A    between atoms: N_3  and  C_12
REMARK    2  A    between atoms: N_4  and  C_13
REMARK    3  A    between atoms: C_12  and  C_14
REMARK    4  A    between atoms: C_13  and  C_15
REMARK                            x       y       z     vdW  Elec       q    Type
REMARK                         _______ _______ _______ _____ _____    ______ ____
ROOT
ATOM      1  O   UNL     1     -12.630  -8.493  13.432  0.00  0.00    -0.252 OA
ATOM      2  N   UNL     1     -10.715  -8.347  14.786  0.00  0.00    -0.278 N 
ATOM      3  N   UNL     1      -8.728  -9.133  16.615  0.00  0.00    -0.295 NA
ATOM      4  N   UNL     1     -12.139  -6.611  14.767  0.00  0.00    -0.279 N 
ATOM      6  C   UNL     1     -10.066  -7.336  15.594  0.00  0.00    +0.109 C 
ATOM      7  C   UNL     1      -9.560  -7.945  16.902  0.00  0.00    +0.109 C 
ATOM      8  C   UNL     1     -11.138  -6.261  15.760  0.00  0.00    +0.133 C 
ATOM      9  C   UNL     1     -10.049  -9.614  14.565  0.00  0.00    +0.125 C 
ATOM     10  C   UNL     1      -9.507 -10.157  15.889  0.00  0.00    +0.104 C 
ATOM     11  C   UNL     1     -11.916  -7.892  14.224  0.00  0.00    +0.305 C 
ENDROOT
BRANCH   3  12
ATOM     12  C   UNL     1      -8.188  -9.687  17.856  0.00  0.00    +0.119 C 
BRANCH  12  14
ATOM     14  C   UNL     1      -6.756 -10.123  17.699  0.00  0.00    -0.033 A 
ATOM     16  C   UNL     1      -6.139 -10.868  18.704  0.00  0.00    +0.005 A 
ATOM     17  C   UNL     1      -6.046  -9.782  16.548  0.00  0.00    +0.005 A 
ATOM     20  C   UNL     1      -4.812 -11.272  18.558  0.00  0.00    +0.000 A 
ATOM     21  C   UNL     1      -4.719 -10.187  16.401  0.00  0.00    +0.000 A 
ATOM     23  C   UNL     1      -4.102 -10.931  17.407  0.00  0.00    +0.000 A 
ENDBRANCH  12  14
ENDBRANCH   3  12
BRANCH   4  13
ATOM     13  C   UNL     1     -13.292  -5.774  14.512  0.00  0.00    +0.146 C 
BRANCH  13  15
ATOM      5  N   UNL     1     -14.007  -4.898  10.900  0.00  0.00    -0.263 NA
ATOM     15  C   UNL     1     -13.205  -5.094  13.172  0.00  0.00    -0.012 A 
ATOM     18  C   UNL     1     -12.290  -4.072  12.945  0.00  0.00    +0.008 A 
ATOM     19  C   UNL     1     -14.034  -5.466  12.126  0.00  0.00    +0.115 A 
ATOM     22  C   UNL     1     -12.233  -3.462  11.696  0.00  0.00    +0.020 A 
ATOM     24  C   UNL     1     -13.104  -3.908  10.717  0.00  0.00    +0.111 A 
ENDBRANCH  13  15
ENDBRANCH   4  13
TORSDOF 4
ENDMDL
MODEL 4
REMARK VINA RESULT:      -5.9     28.984     32.376
REMARK  Name = 75537064
REMARK  4 active torsions:
REMARK  status: ('A' for Active; 'I' for Inactive)
REMARK    1  A    between atoms: N_3  and  C_12
REMARK    2  A    between atoms: N_4  and  C_13
REMARK    3  A    between atoms: C_12  and  C_14
REMARK    4  A    between atoms: C_13  and  C_15
REMARK                            x       y       z     vdW  Elec       q    Type
REMARK                         _______ _______ _______ _____ _____    ______ ____
ROOT
ATOM      1  O   UNL     1       2.705   5.105  -3.712  0.00  0.00    -0.252 OA
ATOM      2  N   UNL     1       1.389   4.086  -5.370  0.00  0.00    -0.278 N 
ATOM      3  N   UNL     1       0.219   2.037  -6.902  0.00  0.00    -0.295 NA
ATOM      4  N   UNL     1       2.623   5.872  -5.941  0.00  0.00    -0.279 N 
ATOM      6  C   UNL     1       1.017   4.361  -6.742  0.00  0.00    +0.109 C 
ATOM      7  C   UNL     1       1.037   3.074  -7.567  0.00  0.00    +0.109 C 
ATOM      8  C   UNL     1       2.022   5.422  -7.184  0.00  0.00    +0.133 C 
ATOM      9  C   UNL     1       0.753   2.990  -4.669  0.00  0.00    +0.125 C 
ATOM     10  C   UNL     1       0.742   1.740  -5.553  0.00  0.00    +0.104 C 
ATOM     11  C   UNL     1       2.288   5.032  -4.861  0.00  0.00    +0.305 C 
ENDROOT
BRANCH   3  12
ATOM     12  C   UNL     1       0.182   0.821  -7.714  0.00  0.00    +0.119 C 
BRANCH  12  14
ATOM     14  C   UNL     1      -1.166   0.153  -7.661  0.00  0.00    -0.033 A 
ATOM     16  C   UNL     1      -1.320  -1.053  -6.976  0.00  0.00    +0.005 A 
ATOM     17  C   UNL     1      -2.260   0.739  -8.296  0.00  0.00    +0.005 A 
ATOM     20  C   UNL     1      -2.568  -1.672  -6.927  0.00  0.00    +0.000 A 
ATOM     21  C   UNL     1      -3.509   0.120  -8.247  0.00  0.00    +0.000 A 
ATOM     23  C   UNL     1      -3.663  -1.086  -7.563  0.00  0.00    +0.000 A 
ENDBRANCH  12  14
ENDBRANCH   3  12
BRANCH   4  13
ATOM     13  C   UNL     1       3.567   6.968  -5.899  0.00  0.00    +0.146 C 
BRANCH  13  15
ATOM      5  N   UNL     1       3.288   9.820  -3.426  0.00  0.00    -0.263 NA
ATOM     15  C   UNL     1       3.014   8.156  -5.158  0.00  0.00    -0.012 A 
ATOM     18  C   UNL     1       1.770   8.687  -5.481  0.00  0.00    +0.008 A 
ATOM     19  C   UNL     1       3.727   8.754  -4.131  0.00  0.00    +0.115 A 
ATOM     22  C   UNL     1       1.285   9.785  -4.779  0.00  0.00    +0.020 A 
ATOM     24  C   UNL     1       2.075  10.309  -3.770  0.00  0.00    +0.111 A 
ENDBRANCH  13  15
ENDBRANCH   4  13
TORSDOF 4
ENDMDL
MODEL 5
REMARK VINA RESULT:      -5.8     27.736     29.753
REMARK  Name = 75537064
REMARK  4 active torsions:
REMARK  status: ('A' for Active; 'I' for Inactive)
REMARK    1  A    between atoms: N_3  and  C_12
REMARK    2  A    between atoms: N_4  and  C_13
REMARK    3  A    between atoms: C_12  and  C_14
REMARK    4  A    between atoms: C_13  and  C_15
REMARK                            x       y       z     vdW  Elec       q    Type
REMARK                         _______ _______ _______ _____ _____    ______ ____
ROOT
ATOM      1  O   UNL     1      -3.872 -11.373  17.825  0.00  0.00    -0.252 OA
ATOM      2  N   UNL     1      -3.912 -11.358  15.476  0.00  0.00    -0.278 N 
ATOM      3  N   UNL     1      -2.995 -11.028  12.838  0.00  0.00    -0.295 NA
ATOM      4  N   UNL     1      -5.671 -10.499  16.575  0.00  0.00    -0.279 N 
ATOM      6  C   UNL     1      -4.866 -11.035  14.437  0.00  0.00    +0.109 C 
ATOM      7  C   UNL     1      -4.180 -10.276  13.302  0.00  0.00    +0.109 C 
ATOM      8  C   UNL     1      -5.950 -10.248  15.172  0.00  0.00    +0.133 C 
ATOM      9  C   UNL     1      -2.647 -11.964  15.114  0.00  0.00    +0.125 C 
ATOM     10  C   UNL     1      -2.024 -11.210  13.936  0.00  0.00    +0.104 C 
ATOM     11  C   UNL     1      -4.417 -11.114  16.760  0.00  0.00    +0.305 C 
ENDROOT
BRANCH   3  12
ATOM     12  C   UNL     1      -2.366 -10.341  11.710  0.00  0.00    +0.119 C 
BRANCH  12  14
ATOM     14  C   UNL     1      -3.250 -10.337  10.492  0.00  0.00    -0.033 A 
ATOM     16  C   UNL     1      -3.738 -11.540   9.980  0.00  0.00    +0.005 A 
ATOM     17  C   UNL     1      -3.582  -9.131   9.875  0.00  0.00    +0.005 A 
ATOM     20  C   UNL     1      -4.557 -11.536   8.851  0.00  0.00    +0.000 A 
ATOM     21  C   UNL     1      -4.402  -9.127   8.747  0.00  0.00    +0.000 A 
ATOM     23  C   UNL     1      -4.888 -10.330   8.235  0.00  0.00    +0.000 A 
ENDBRANCH  12  14
ENDBRANCH   3  12
BRANCH   4  13
ATOM     13  C   UNL     1      -6.540 -10.017  17.627  0.00  0.00    +0.146 C 
BRANCH  13  15
ATOM      5  N   UNL     1      -7.685 -12.529  20.217  0.00  0.00    -0.263 NA
ATOM     15  C   UNL     1      -7.308 -11.138  18.277  0.00  0.00    -0.012 A 
ATOM     18  C   UNL     1      -8.312 -11.811  17.589  0.00  0.00    +0.008 A 
ATOM     19  C   UNL     1      -7.035 -11.532  19.576  0.00  0.00    +0.115 A 
ATOM     22  C   UNL     1      -9.003 -12.842  18.215  0.00  0.00    +0.020 A 
ATOM     24  C   UNL     1      -8.655 -13.160  19.517  0.00  0.00    +0.111 A 
ENDBRANCH  13  15
ENDBRANCH   4  13
TORSDOF 4
ENDMDL
MODEL 6
REMARK VINA RESULT:      -5.7     14.143     15.160
REMARK  Name = 75537064
REMARK  4 active torsions:
REMARK  status: ('A' for Active; 'I' for Inactive)
REMARK    1  A    between atoms: N_3  and  C_12
REMARK    2  A    between atoms: N_4  and  C_13
REMARK    3  A    between atoms: C_12  and  C_14
REMARK    4  A    between atoms: C_13  and  C_15
REMARK                            x       y       z     vdW  Elec       q    Type
REMARK                         _______ _______ _______ _____ _____    ______ ____
ROOT
ATOM      1  O   UNL     1      11.745  10.554   6.832  0.00  0.00    -0.252 OA
ATOM      2  N   UNL     1      13.732   9.342   6.509  0.00  0.00    -0.278 N 
ATOM      3  N   UNL     1      16.280   8.697   5.510  0.00  0.00    -0.295 NA
ATOM      4  N   UNL     1      11.787   8.218   6.507  0.00  0.00    -0.279 N 
ATOM      6  C   UNL     1      14.117   7.949   6.416  0.00  0.00    +0.109 C 
ATOM      7  C   UNL     1      15.156   7.758   5.311  0.00  0.00    +0.109 C 
ATOM      8  C   UNL     1      12.793   7.222   6.184  0.00  0.00    +0.133 C 
ATOM      9  C   UNL     1      14.760  10.360   6.559  0.00  0.00    +0.125 C 
ATOM     10  C   UNL     1      15.809  10.096   5.476  0.00  0.00    +0.104 C 
ATOM     11  C   UNL     1      12.346   9.504   6.644  0.00  0.00    +0.305 C 
ENDROOT
BRANCH   3  12
ATOM     12  C   UNL     1      17.309   8.480   4.493  0.00  0.00    +0.119 C 
BRANCH  12  14
ATOM     14  C   UNL     1      18.662   8.239   5.107  0.00  0.00    -0.033 A 
ATOM     16  C   UNL     1      19.654   7.585   4.375  0.00  0.00    +0.005 A 
ATOM     17  C   UNL     1      18.924   8.668   6.408  0.00  0.00    +0.005 A 
ATOM     20  C   UNL     1      20.907   7.362   4.945  0.00  0.00    +0.000 A 
ATOM     21  C   UNL     1      20.178   8.446   6.978  0.00  0.00    +0.000 A 
ATOM     23  C   UNL     1      21.169   7.791   6.246  0.00  0.00    +0.000 A 
ENDBRANCH  12  14
ENDBRANCH   3  12
BRANCH   4  13
ATOM     13  C   UNL     1      10.375   7.904   6.524  0.00  0.00    +0.146 C 
BRANCH  13  15
ATOM      5  N   UNL     1       9.855   4.166   6.810  0.00  0.00    -0.263 NA
ATOM     15  C   UNL     1      10.109   6.549   7.124  0.00  0.00    -0.012 A 
ATOM     18  C   UNL     1       9.875   6.403   8.487  0.00  0.00    +0.008 A 
ATOM     19  C   UNL     1      10.088   5.410   6.336  0.00  0.00    +0.115 A 
ATOM     22  C   UNL     1       9.632   5.139   9.012  0.00  0.00    +0.020 A 
ATOM     24  C   UNL     1       9.632   4.063   8.141  0.00  0.00    +0.111 A 
ENDBRANCH  13  15
ENDBRANCH   4  13
TORSDOF 4
ENDMDL
MODEL 7
REMARK VINA RESULT:      -5.7     17.472     20.580
REMARK  Name = 75537064
REMARK  4 active torsions:
REMARK  status: ('A' for Active; 'I' for Inactive)
REMARK    1  A    between atoms: N_3  and  C_12
REMARK    2  A    between atoms: N_4  and  C_13
REMARK    3  A    between atoms: C_12  and  C_14
REMARK    4  A    between atoms: C_13  and  C_15
REMARK                            x       y       z     vdW  Elec       q    Type
REMARK                         _______ _______ _______ _____ _____    ______ ____
ROOT
ATOM      1  O   UNL     1      15.020   6.335   1.962  0.00  0.00    -0.252 OA
ATOM      2  N   UNL     1      12.836   5.575   2.378  0.00  0.00    -0.278 N 
ATOM      3  N   UNL     1      10.471   5.038   3.802  0.00  0.00    -0.295 NA
ATOM      4  N   UNL     1      14.216   4.252   1.201  0.00  0.00    -0.279 N 
ATOM      6  C   UNL     1      12.008   4.461   1.968  0.00  0.00    +0.109 C 
ATOM      7  C   UNL     1      11.205   3.930   3.155  0.00  0.00    +0.109 C 
ATOM      8  C   UNL     1      13.005   3.469   1.373  0.00  0.00    +0.133 C 
ATOM      9  C   UNL     1      12.247   6.649   3.151  0.00  0.00    +0.125 C 
ATOM     10  C   UNL     1      11.405   6.073   4.291  0.00  0.00    +0.104 C 
ATOM     11  C   UNL     1      14.134   5.496   1.857  0.00  0.00    +0.305 C 
ENDROOT
BRANCH   3  12
ATOM     12  C   UNL     1       9.651   4.530   4.902  0.00  0.00    +0.119 C 
BRANCH  12  14
ATOM     14  C   UNL     1       9.320   5.609   5.899  0.00  0.00    -0.033 A 
ATOM     16  C   UNL     1       9.846   5.551   7.190  0.00  0.00    +0.005 A 
ATOM     17  C   UNL     1       8.487   6.665   5.531  0.00  0.00    +0.005 A 
ATOM     20  C   UNL     1       9.539   6.551   8.112  0.00  0.00    +0.000 A 
ATOM     21  C   UNL     1       8.181   7.666   6.454  0.00  0.00    +0.000 A 
ATOM     23  C   UNL     1       8.706   7.607   7.745  0.00  0.00    +0.000 A 
ENDBRANCH  12  14
ENDBRANCH   3  12
BRANCH   4  13
ATOM     13  C   UNL     1      15.393   3.713   0.555  0.00  0.00    +0.146 C 
BRANCH  13  15
ATOM      5  N   UNL     1      14.470   4.732  -2.971  0.00  0.00    -0.263 NA
ATOM     15  C   UNL     1      15.527   4.199  -0.863  0.00  0.00    -0.012 A 
ATOM     18  C   UNL     1      16.765   4.555  -1.385  0.00  0.00    +0.008 A 
ATOM     19  C   UNL     1      14.420   4.304  -1.690  0.00  0.00    +0.115 A 
ATOM     22  C   UNL     1      16.858   5.000  -2.699  0.00  0.00    +0.020 A 
ATOM     24  C   UNL     1      15.692   5.070  -3.444  0.00  0.00    +0.111 A 
ENDBRANCH  13  15
ENDBRANCH   4  13
TORSDOF 4
ENDMDL
MODEL 8
REMARK VINA RESULT:      -5.6     26.799     30.328
REMARK  Name = 75537064
REMARK  4 active torsions:
REMARK  status: ('A' for Active; 'I' for Inactive)
REMARK    1  A    between atoms: N_3  and  C_12
REMARK    2  A    between atoms: N_4  and  C_13
REMARK    3  A    between atoms: C_12  and  C_14
REMARK    4  A    between atoms: C_13  and  C_15
REMARK                            x       y       z     vdW  Elec       q    Type
REMARK                         _______ _______ _______ _____ _____    ______ ____
ROOT
ATOM      1  O   UNL     1     -10.659 -11.579  16.514  0.00  0.00    -0.252 OA
ATOM      2  N   UNL     1      -8.396 -11.080  16.128  0.00  0.00    -0.278 N 
ATOM      3  N   UNL     1      -5.606 -11.435  16.046  0.00  0.00    -0.295 NA
ATOM      4  N   UNL     1      -9.684  -9.507  17.080  0.00  0.00    -0.279 N 
ATOM      6  C   UNL     1      -7.538  -9.918  16.225  0.00  0.00    +0.109 C 
ATOM      7  C   UNL     1      -6.180 -10.307  16.811  0.00  0.00    +0.109 C 
ATOM      8  C   UNL     1      -8.347  -8.941  17.075  0.00  0.00    +0.133 C 
ATOM      9  C   UNL     1      -7.881 -12.294  15.528  0.00  0.00    +0.125 C 
ATOM     10  C   UNL     1      -6.496 -12.612  16.098  0.00  0.00    +0.104 C 
ATOM     11  C   UNL     1      -9.701 -10.818  16.563  0.00  0.00    +0.305 C 
ENDROOT
BRANCH   3  12
ATOM     12  C   UNL     1      -4.280 -11.775  16.560  0.00  0.00    +0.119 C 
BRANCH  12  14
ATOM     14  C   UNL     1      -3.184 -11.124  15.757  0.00  0.00    -0.033 A 
ATOM     16  C   UNL     1      -3.335 -10.953  14.381  0.00  0.00    +0.005 A 
ATOM     17  C   UNL     1      -2.019 -10.693  16.391  0.00  0.00    +0.005 A 
ATOM     20  C   UNL     1      -2.320 -10.350  13.639  0.00  0.00    +0.000 A 
ATOM     21  C   UNL     1      -1.004 -10.089  15.648  0.00  0.00    +0.000 A 
ATOM     23  C   UNL     1      -1.155  -9.919  14.272  0.00  0.00    +0.000 A 
ENDBRANCH  12  14
ENDBRANCH   3  12
BRANCH   4  13
ATOM     13  C   UNL     1     -10.803  -8.825  17.693  0.00  0.00    +0.146 C 
BRANCH  13  15
ATOM      5  N   UNL     1     -13.356  -7.622  15.171  0.00  0.00    -0.263 NA
ATOM     15  C   UNL     1     -11.522  -7.936  16.714  0.00  0.00    -0.012 A 
ATOM     18  C   UNL     1     -11.059  -6.655  16.435  0.00  0.00    +0.008 A 
ATOM     19  C   UNL     1     -12.665  -8.369  16.061  0.00  0.00    +0.115 A 
ATOM     22  C   UNL     1     -11.743  -5.857  15.525  0.00  0.00    +0.020 A 
ATOM     24  C   UNL     1     -12.876  -6.382  14.926  0.00  0.00    +0.111 A 
ENDBRANCH  13  15
ENDBRANCH   4  13
TORSDOF 4
ENDMDL
MODEL 9
REMARK VINA RESULT:      -5.6     27.800     30.192
REMARK  Name = 75537064
REMARK  4 active torsions:
REMARK  status: ('A' for Active; 'I' for Inactive)
REMARK    1  A    between atoms: N_3  and  C_12
REMARK    2  A    between atoms: N_4  and  C_13
REMARK    3  A    between atoms: C_12  and  C_14
REMARK    4  A    between atoms: C_13  and  C_15
REMARK                            x       y       z     vdW  Elec       q    Type
REMARK                         _______ _______ _______ _____ _____    ______ ____
ROOT
ATOM      1  O   UNL     1      -1.826 -10.306  14.474  0.00  0.00    -0.252 OA
ATOM      2  N   UNL     1      -3.865 -10.950  15.449  0.00  0.00    -0.278 N 
ATOM      3  N   UNL     1      -5.667 -11.850  17.412  0.00  0.00    -0.295 NA
ATOM      4  N   UNL     1      -3.386 -11.703  13.388  0.00  0.00    -0.279 N 
ATOM      6  C   UNL     1      -5.058 -11.656  15.034  0.00  0.00    +0.109 C 
ATOM      7  C   UNL     1      -5.532 -12.596  16.143  0.00  0.00    +0.109 C 
ATOM      8  C   UNL     1      -4.638 -12.351  13.740  0.00  0.00    +0.133 C 
ATOM      9  C   UNL     1      -3.836 -10.306  16.746  0.00  0.00    +0.125 C 
ATOM     10  C   UNL     1      -4.374 -11.260  17.815  0.00  0.00    +0.104 C 
ATOM     11  C   UNL     1      -2.893 -10.906  14.440  0.00  0.00    +0.305 C 
ENDROOT
BRANCH   3  12
ATOM     12  C   UNL     1      -6.179 -12.726  18.465  0.00  0.00    +0.119 C 
BRANCH  12  14
ATOM     14  C   UNL     1      -7.542 -12.296  18.939  0.00  0.00    -0.033 A 
ATOM     16  C   UNL     1      -7.977 -10.989  18.719  0.00  0.00    +0.005 A 
ATOM     17  C   UNL     1      -8.369 -13.204  19.600  0.00  0.00    +0.005 A 
ATOM     20  C   UNL     1      -9.239 -10.591  19.158  0.00  0.00    +0.000 A 
ATOM     21  C   UNL     1      -9.631 -12.807  20.038  0.00  0.00    +0.000 A 
ATOM     23  C   UNL     1     -10.066 -11.499  19.819  0.00  0.00    +0.000 A 
ENDBRANCH  12  14
ENDBRANCH   3  12
BRANCH   4  13
ATOM     13  C   UNL     1      -2.694 -11.994  12.152  0.00  0.00    +0.146 C 
BRANCH  13  15
ATOM      5  N   UNL     1      -3.489  -9.053   9.905  0.00  0.00    -0.263 NA
ATOM     15  C   UNL     1      -3.243 -11.194  11.000  0.00  0.00    -0.012 A 
ATOM     18  C   UNL     1      -3.987 -11.802   9.996  0.00  0.00    +0.008 A 
ATOM     19  C   UNL     1      -3.024  -9.829  10.910  0.00  0.00    +0.115 A 
ATOM     22  C   UNL     1      -4.481 -11.037   8.945  0.00  0.00    +0.020 A 
ATOM     24  C   UNL     1      -4.207  -9.680   8.946  0.00  0.00    +0.111 A 
ENDBRANCH  13  15
ENDBRANCH   4  13
TORSDOF 4
ENDMDL
MODEL 10
REMARK VINA RESULT:      -5.5     23.997     26.221
REMARK  Name = 75537064
REMARK  4 active torsions:
REMARK  status: ('A' for Active; 'I' for Inactive)
REMARK    1  A    between atoms: N_3  and  C_12
REMARK    2  A    between atoms: N_4  and  C_13
REMARK    3  A    between atoms: C_12  and  C_14
REMARK    4  A    between atoms: C_13  and  C_15
REMARK                            x       y       z     vdW  Elec       q    Type
REMARK                         _______ _______ _______ _____ _____    ______ ____
ROOT
ATOM      1  O   UNL     1      23.345  -5.757  -0.254  0.00  0.00    -0.252 OA
ATOM      2  N   UNL     1      21.049  -5.808  -0.750  0.00  0.00    -0.278 N 
ATOM      3  N   UNL     1      18.665  -5.408  -2.187  0.00  0.00    -0.295 NA
ATOM      4  N   UNL     1      21.678  -5.202   1.319  0.00  0.00    -0.279 N 
ATOM      6  C   UNL     1      19.807  -5.662  -0.021  0.00  0.00    +0.109 C 
ATOM      7  C   UNL     1      18.809  -4.836  -0.832  0.00  0.00    +0.109 C 
ATOM      8  C   UNL     1      20.235  -5.033   1.303  0.00  0.00    +0.133 C 
ATOM      9  C   UNL     1      21.013  -6.221  -2.137  0.00  0.00    +0.125 C 
ATOM     10  C   UNL     1      19.960  -5.411  -2.897  0.00  0.00    +0.104 C 
ATOM     11  C   UNL     1      22.172  -5.612   0.065  0.00  0.00    +0.305 C 
ENDROOT
BRANCH   3  12
ATOM     12  C   UNL     1      17.666  -4.661  -2.951  0.00  0.00    +0.119 C 
BRANCH  12  14
ATOM     14  C   UNL     1      16.439  -5.488  -3.230  0.00  0.00    -0.033 A 
ATOM     16  C   UNL     1      16.528  -6.881  -3.258  0.00  0.00    +0.005 A 
ATOM     17  C   UNL     1      15.214  -4.863  -3.460  0.00  0.00    +0.005 A 
ATOM     20  C   UNL     1      15.392  -7.646  -3.516  0.00  0.00    +0.000 A 
ATOM     21  C   UNL     1      14.077  -5.629  -3.717  0.00  0.00    +0.000 A 
ATOM     23  C   UNL     1      14.167  -7.021  -3.746  0.00  0.00    +0.000 A 
ENDBRANCH  12  14
ENDBRANCH   3  12
BRANCH   4  13
ATOM     13  C   UNL     1      22.480  -4.833   2.465  0.00  0.00    +0.146 C 
BRANCH  13  15
ATOM      5  N   UNL     1      24.726  -7.602   3.737  0.00  0.00    -0.263 NA
ATOM     15  C   UNL     1      22.951  -6.041   3.231  0.00  0.00    -0.012 A 
ATOM     18  C   UNL     1      22.104  -6.707   4.110  0.00  0.00    +0.008 A 
ATOM     19  C   UNL     1      24.241  -6.524   3.081  0.00  0.00    +0.115 A 
ATOM     22  C   UNL     1      22.568  -7.820   4.803  0.00  0.00    +0.020 A 
ATOM     24  C   UNL     1      23.874  -8.223   4.583  0.00  0.00    +0.111 A 
ENDBRANCH  13  15
ENDBRANCH   4  13
TORSDOF 4
ENDMDL
