MODEL 1
REMARK VINA RESULT:      -5.6      0.000      0.000
REMARK  Name = 7049410
REMARK  13 active torsions:
REMARK  status: ('A' for Active; 'I' for Inactive)
REMARK    1  A    between atoms: S_1  and  C_26
REMARK    2  A    between atoms: S_1  and  C_30
REMARK    3  A    between atoms: O_5  and  C_27
REMARK    4  A    between atoms: O_5  and  C_31
REMARK    5  A    between atoms: N_8  and  C_11
REMARK    6  A    between atoms: N_9  and  C_15
REMARK    7  A    between atoms: N_10  and  C_24
REMARK    8  A    between atoms: C_12  and  C_20
REMARK    9  A    between atoms: C_22  and  C_26
REMARK   10  A    between atoms: C_24  and  C_25
REMARK   11  A    between atoms: C_24  and  C_27
REMARK   12  A    between atoms: C_25  and  C_28
REMARK   13  A    between atoms: C_25  and  C_29
REMARK                            x       y       z     vdW  Elec       q    Type
REMARK                         _______ _______ _______ _____ _____    ______ ____
ROOT
ATOM      3  O   UNL     1      11.278   5.818   5.257  0.00  0.00    -0.275 OA
ATOM      7  N   UNL     1      12.684   7.578   5.793  0.00  0.00    -0.287 N 
ATOM     11  C   UNL     1      14.246   9.362   5.930  0.00  0.00    +0.094 C 
ATOM     12  C   UNL     1      12.890   8.040   4.429  0.00  0.00    +0.164 C 
ATOM     13  C   UNL     1      13.545   9.412   4.569  0.00  0.00    +0.055 C 
ATOM     14  C   UNL     1      13.343   8.455   6.760  0.00  0.00    +0.131 C 
ATOM     22  C   UNL     1      11.817   6.538   6.099  0.00  0.00    +0.226 C 
ENDROOT
BRANCH  11   8
ATOM      4  O   UNL     1      16.630  10.839   5.295  0.00  0.00    -0.253 OA
ATOM      8  N   UNL     1      15.583   8.836   5.825  0.00  0.00    -0.295 N 
ATOM      9  N   UNL     1      17.858   8.877   5.474  0.00  0.00    -0.297 N 
ATOM     23  C   UNL     1      16.687   9.629   5.512  0.00  0.00    +0.300 C 
ATOM     32  H   UNL     1      15.722   7.835   5.919  0.00  0.00    +0.151 HD
ATOM     33  H   UNL     1      17.802   7.899   5.739  0.00  0.00    +0.151 HD
BRANCH   9  15
ATOM     15  C   UNL     1      19.154   9.443   5.173  0.00  0.00    +0.074 C 
ATOM     16  C   UNL     1      19.827   8.697   4.017  0.00  0.00    +0.022 C 
ATOM     17  C   UNL     1      20.048   9.463   6.418  0.00  0.00    +0.022 C 
ATOM     18  C   UNL     1      20.304   7.301   4.420  0.00  0.00    +0.002 C 
ATOM     19  C   UNL     1      20.526   8.067   6.817  0.00  0.00    +0.002 C 
ATOM     21  C   UNL     1      21.201   7.348   5.654  0.00  0.00    +0.000 C 
ENDBRANCH   9  15
ENDBRANCH  11   8
BRANCH  12  20
ATOM      2  O   UNL     1      15.000   7.043   3.927  0.00  0.00    -0.274 OA
ATOM     10  N   UNL     1      13.098   6.267   2.833  0.00  0.00    -0.301 N 
ATOM     20  C   UNL     1      13.789   7.071   3.723  0.00  0.00    +0.234 C 
ATOM     34  H   UNL     1      12.085   6.330   2.796  0.00  0.00    +0.150 HD
BRANCH  10  24
ATOM     24  C   UNL     1      13.738   5.265   2.011  0.00  0.00    +0.184 C 
BRANCH  24  25
ATOM     25  C   UNL     1      14.082   5.791   0.601  0.00  0.00    +0.014 C 
ATOM     28  C   UNL     1      13.123   6.906   0.174  0.00  0.00    +0.009 C 
ATOM     29  C   UNL     1      15.532   6.270   0.471  0.00  0.00    +0.009 C 
ENDBRANCH  24  25
BRANCH  24  27
ATOM      6  O   UNL     1      13.374   2.919   1.549  0.00  0.00    -0.249 OA
ATOM     27  C   UNL     1      12.911   3.986   1.938  0.00  0.00    +0.328 C 
BRANCH  27   5
ATOM      5  O   UNL     1      11.625   4.179   2.349  0.00  0.00    -0.467 OA
ATOM     31  C   UNL     1      10.638   4.196   1.313  0.00  0.00    +0.280 C 
ENDBRANCH  27   5
ENDBRANCH  24  27
ENDBRANCH  10  24
ENDBRANCH  12  20
BRANCH  22  26
ATOM     26  C   UNL     1      11.564   6.312   7.568  0.00  0.00    +0.164 C 
BRANCH  26   1
ATOM      1  S   UNL     1       9.790   6.118   7.793  0.00  0.00    -0.155 S 
ATOM     30  C   UNL     1       9.775   4.433   8.454  0.00  0.00    +0.085 C 
ENDBRANCH  26   1
ENDBRANCH  22  26
TORSDOF 9
ENDMDL
MODEL 2
REMARK VINA RESULT:      -5.5      3.076      6.619
REMARK  Name = 7049410
REMARK  13 active torsions:
REMARK  status: ('A' for Active; 'I' for Inactive)
REMARK    1  A    between atoms: S_1  and  C_26
REMARK    2  A    between atoms: S_1  and  C_30
REMARK    3  A    between atoms: O_5  and  C_27
REMARK    4  A    between atoms: O_5  and  C_31
REMARK    5  A    between atoms: N_8  and  C_11
REMARK    6  A    between atoms: N_9  and  C_15
REMARK    7  A    between atoms: N_10  and  C_24
REMARK    8  A    between atoms: C_12  and  C_20
REMARK    9  A    between atoms: C_22  and  C_26
REMARK   10  A    between atoms: C_24  and  C_25
REMARK   11  A    between atoms: C_24  and  C_27
REMARK   12  A    between atoms: C_25  and  C_28
REMARK   13  A    between atoms: C_25  and  C_29
REMARK                            x       y       z     vdW  Elec       q    Type
REMARK                         _______ _______ _______ _____ _____    ______ ____
ROOT
ATOM      3  O   UNL     1       9.336   8.874   7.631  0.00  0.00    -0.275 OA
ATOM      7  N   UNL     1       9.325   6.966   6.320  0.00  0.00    -0.287 N 
ATOM     11  C   UNL     1       9.644   4.883   5.223  0.00  0.00    +0.094 C 
ATOM     12  C   UNL     1      10.064   6.126   7.252  0.00  0.00    +0.164 C 
ATOM     13  C   UNL     1       9.898   4.704   6.722  0.00  0.00    +0.055 C 
ATOM     14  C   UNL     1       8.892   6.208   5.146  0.00  0.00    +0.131 C 
ATOM     22  C   UNL     1       8.951   8.265   6.631  0.00  0.00    +0.226 C 
ENDROOT
BRANCH  11   8
ATOM      4  O   UNL     1       9.978   4.260   2.435  0.00  0.00    -0.253 OA
ATOM      8  N   UNL     1      10.874   4.922   4.472  0.00  0.00    -0.295 N 
ATOM      9  N   UNL     1      12.245   4.720   2.634  0.00  0.00    -0.297 N 
ATOM     23  C   UNL     1      10.944   4.603   3.116  0.00  0.00    +0.300 C 
ATOM     32  H   UNL     1      11.738   5.127   4.963  0.00  0.00    +0.151 HD
ATOM     33  H   UNL     1      12.954   5.079   3.265  0.00  0.00    +0.151 HD
BRANCH   9  15
ATOM     15  C   UNL     1      12.608   4.449   1.261  0.00  0.00    +0.074 C 
ATOM     16  C   UNL     1      13.608   3.292   1.172  0.00  0.00    +0.022 C 
ATOM     17  C   UNL     1      13.154   5.708   0.577  0.00  0.00    +0.022 C 
ATOM     18  C   UNL     1      14.998   3.679   1.678  0.00  0.00    +0.002 C 
ATOM     19  C   UNL     1      14.545   6.091   1.082  0.00  0.00    +0.002 C 
ATOM     21  C   UNL     1      15.524   4.927   0.975  0.00  0.00    +0.000 C 
ENDBRANCH   9  15
ENDBRANCH  11   8
BRANCH  12  20
ATOM      2  O   UNL     1      12.352   5.962   7.908  0.00  0.00    -0.274 OA
ATOM     10  N   UNL     1      11.717   7.663   6.451  0.00  0.00    -0.301 N 
ATOM     20  C   UNL     1      11.501   6.551   7.248  0.00  0.00    +0.234 C 
ATOM     34  H   UNL     1      10.949   8.027   5.895  0.00  0.00    +0.150 HD
BRANCH  10  24
ATOM     24  C   UNL     1      13.013   8.283   6.295  0.00  0.00    +0.184 C 
BRANCH  24  25
ATOM     25  C   UNL     1      12.925   9.824   6.239  0.00  0.00    +0.014 C 
ATOM     28  C   UNL     1      12.147  10.292   5.006  0.00  0.00    +0.009 C 
ATOM     29  C   UNL     1      12.321  10.442   7.504  0.00  0.00    +0.009 C 
ENDBRANCH  24  25
BRANCH  24  27
ATOM      6  O   UNL     1      13.220   7.024   4.241  0.00  0.00    -0.249 OA
ATOM     27  C   UNL     1      13.760   7.727   5.088  0.00  0.00    +0.328 C 
BRANCH  27   5
ATOM      5  O   UNL     1      15.071   8.101   5.076  0.00  0.00    -0.467 OA
ATOM     31  C   UNL     1      15.907   7.408   4.143  0.00  0.00    +0.280 C 
ENDBRANCH  27   5
ENDBRANCH  24  27
ENDBRANCH  10  24
ENDBRANCH  12  20
BRANCH  22  26
ATOM     26  C   UNL     1       8.025   8.930   5.645  0.00  0.00    +0.164 C 
BRANCH  26   1
ATOM      1  S   UNL     1       8.529  10.650   5.496  0.00  0.00    -0.155 S 
ATOM     30  C   UNL     1       8.303  10.854   3.711  0.00  0.00    +0.085 C 
ENDBRANCH  26   1
ENDBRANCH  22  26
TORSDOF 9
ENDMDL
MODEL 3
REMARK VINA RESULT:      -5.4     25.947     29.999
REMARK  Name = 7049410
REMARK  13 active torsions:
REMARK  status: ('A' for Active; 'I' for Inactive)
REMARK    1  A    between atoms: S_1  and  C_26
REMARK    2  A    between atoms: S_1  and  C_30
REMARK    3  A    between atoms: O_5  and  C_27
REMARK    4  A    between atoms: O_5  and  C_31
REMARK    5  A    between atoms: N_8  and  C_11
REMARK    6  A    between atoms: N_9  and  C_15
REMARK    7  A    between atoms: N_10  and  C_24
REMARK    8  A    between atoms: C_12  and  C_20
REMARK    9  A    between atoms: C_22  and  C_26
REMARK   10  A    between atoms: C_24  and  C_25
REMARK   11  A    between atoms: C_24  and  C_27
REMARK   12  A    between atoms: C_25  and  C_28
REMARK   13  A    between atoms: C_25  and  C_29
REMARK                            x       y       z     vdW  Elec       q    Type
REMARK                         _______ _______ _______ _____ _____    ______ ____
ROOT
ATOM      3  O   UNL     1      -7.911 -12.636  17.575  0.00  0.00    -0.275 OA
ATOM      7  N   UNL     1      -5.745 -12.144  16.920  0.00  0.00    -0.287 N 
ATOM     11  C   UNL     1      -3.651 -11.228  16.274  0.00  0.00    +0.094 C 
ATOM     12  C   UNL     1      -5.747 -10.764  17.383  0.00  0.00    +0.164 C 
ATOM     13  C   UNL     1      -4.285 -10.329  17.339  0.00  0.00    +0.055 C 
ATOM     14  C   UNL     1      -4.435 -12.531  16.399  0.00  0.00    +0.131 C 
ATOM     22  C   UNL     1      -6.819 -12.997  17.133  0.00  0.00    +0.226 C 
ENDROOT
BRANCH  11   8
ATOM      4  O   UNL     1      -2.167 -11.999  13.935  0.00  0.00    -0.253 OA
ATOM      8  N   UNL     1      -3.764 -10.659  14.955  0.00  0.00    -0.295 N 
ATOM      9  N   UNL     1      -3.305 -10.383  12.717  0.00  0.00    -0.297 N 
ATOM     23  C   UNL     1      -3.002 -11.097  13.873  0.00  0.00    +0.300 C 
ATOM     32  H   UNL     1      -4.378  -9.862  14.820  0.00  0.00    +0.151 HD
ATOM     33  H   UNL     1      -4.061  -9.708  12.760  0.00  0.00    +0.151 HD
BRANCH   9  15
ATOM     15  C   UNL     1      -2.663 -10.627  11.444  0.00  0.00    +0.074 C 
ATOM     16  C   UNL     1      -2.554  -9.338  10.625  0.00  0.00    +0.022 C 
ATOM     17  C   UNL     1      -3.394 -11.723  10.660  0.00  0.00    +0.022 C 
ATOM     18  C   UNL     1      -3.906  -8.871  10.085  0.00  0.00    +0.002 C 
ATOM     19  C   UNL     1      -4.744 -11.253  10.119  0.00  0.00    +0.002 C 
ATOM     21  C   UNL     1      -4.609  -9.975   9.299  0.00  0.00    +0.000 C 
ENDBRANCH   9  15
ENDBRANCH  11   8
BRANCH  12  20
ATOM      2  O   UNL     1      -6.176  -9.569  15.362  0.00  0.00    -0.274 OA
ATOM     10  N   UNL     1      -7.840  -9.670  16.987  0.00  0.00    -0.301 N 
ATOM     20  C   UNL     1      -6.593  -9.946  16.454  0.00  0.00    +0.234 C 
ATOM     34  H   UNL     1      -8.103 -10.093  17.872  0.00  0.00    +0.150 HD
BRANCH  10  24
ATOM     24  C   UNL     1      -8.836  -8.880  16.299  0.00  0.00    +0.184 C 
BRANCH  24  25
ATOM     25  C   UNL     1      -9.808  -8.179  17.273  0.00  0.00    +0.014 C 
ATOM     28  C   UNL     1     -10.822  -7.313  16.520  0.00  0.00    +0.009 C 
ATOM     29  C   UNL     1     -10.540  -9.153  18.203  0.00  0.00    +0.009 C 
ENDBRANCH  24  25
BRANCH  24  27
ATOM      6  O   UNL     1     -10.211 -10.722  15.549  0.00  0.00    -0.249 OA
ATOM     27  C   UNL     1      -9.591  -9.705  15.262  0.00  0.00    +0.328 C 
BRANCH  27   5
ATOM      5  O   UNL     1      -9.486  -9.177  14.009  0.00  0.00    -0.467 OA
ATOM     31  C   UNL     1      -8.801  -9.988  13.049  0.00  0.00    +0.280 C 
ENDBRANCH  27   5
ENDBRANCH  24  27
ENDBRANCH  10  24
ENDBRANCH  12  20
BRANCH  22  26
ATOM     26  C   UNL     1      -6.583 -14.442  16.773  0.00  0.00    +0.164 C 
BRANCH  26   1
ATOM      1  S   UNL     1      -8.124 -15.098  16.115  0.00  0.00    -0.155 S 
ATOM     30  C   UNL     1      -8.584 -16.171  17.498  0.00  0.00    +0.085 C 
ENDBRANCH  26   1
ENDBRANCH  22  26
TORSDOF 9
ENDMDL
MODEL 4
REMARK VINA RESULT:      -5.2     31.206     34.790
REMARK  Name = 7049410
REMARK  13 active torsions:
REMARK  status: ('A' for Active; 'I' for Inactive)
REMARK    1  A    between atoms: S_1  and  C_26
REMARK    2  A    between atoms: S_1  and  C_30
REMARK    3  A    between atoms: O_5  and  C_27
REMARK    4  A    between atoms: O_5  and  C_31
REMARK    5  A    between atoms: N_8  and  C_11
REMARK    6  A    between atoms: N_9  and  C_15
REMARK    7  A    between atoms: N_10  and  C_24
REMARK    8  A    between atoms: C_12  and  C_20
REMARK    9  A    between atoms: C_22  and  C_26
REMARK   10  A    between atoms: C_24  and  C_25
REMARK   11  A    between atoms: C_24  and  C_27
REMARK   12  A    between atoms: C_25  and  C_28
REMARK   13  A    between atoms: C_25  and  C_29
REMARK                            x       y       z     vdW  Elec       q    Type
REMARK                         _______ _______ _______ _____ _____    ______ ____
ROOT
ATOM      3  O   UNL     1     -16.721   5.508  21.262  0.00  0.00    -0.275 OA
ATOM      7  N   UNL     1     -16.999   7.133  22.888  0.00  0.00    -0.287 N 
ATOM     11  C   UNL     1     -17.000   9.026  24.322  0.00  0.00    +0.094 C 
ATOM     12  C   UNL     1     -16.493   8.243  22.093  0.00  0.00    +0.164 C 
ATOM     13  C   UNL     1     -16.884   9.498  22.871  0.00  0.00    +0.055 C 
ATOM     14  C   UNL     1     -17.486   7.586  24.190  0.00  0.00    +0.131 C 
ATOM     22  C   UNL     1     -17.145   5.856  22.366  0.00  0.00    +0.226 C 
ENDROOT
BRANCH  11   8
ATOM      4  O   UNL     1     -15.812  11.377  25.478  0.00  0.00    -0.253 OA
ATOM      8  N   UNL     1     -15.737   9.104  25.013  0.00  0.00    -0.295 N 
ATOM      9  N   UNL     1     -14.002  10.092  26.158  0.00  0.00    -0.297 N 
ATOM     23  C   UNL     1     -15.236  10.292  25.545  0.00  0.00    +0.300 C 
ATOM     32  H   UNL     1     -15.155   8.273  25.059  0.00  0.00    +0.151 HD
ATOM     33  H   UNL     1     -13.650   9.143  26.219  0.00  0.00    +0.151 HD
BRANCH   9  15
ATOM     15  C   UNL     1     -13.253  11.153  26.793  0.00  0.00    +0.074 C 
ATOM     16  C   UNL     1     -12.251  11.781  25.819  0.00  0.00    +0.022 C 
ATOM     17  C   UNL     1     -12.554  10.650  28.062  0.00  0.00    +0.022 C 
ATOM     18  C   UNL     1     -11.073  10.856  25.514  0.00  0.00    +0.002 C 
ATOM     19  C   UNL     1     -11.375   9.728  27.753  0.00  0.00    +0.002 C 
ATOM     21  C   UNL     1     -10.387  10.378  26.790  0.00  0.00    +0.000 C 
ENDBRANCH   9  15
ENDBRANCH  11   8
BRANCH  12  20
ATOM      2  O   UNL     1     -14.340   7.501  22.807  0.00  0.00    -0.274 OA
ATOM     10  N   UNL     1     -14.509   8.765  20.859  0.00  0.00    -0.301 N 
ATOM     20  C   UNL     1     -15.005   8.111  21.974  0.00  0.00    +0.234 C 
ATOM     34  H   UNL     1     -15.160   9.180  20.201  0.00  0.00    +0.150 HD
BRANCH  10  24
ATOM     24  C   UNL     1     -13.102   8.808  20.529  0.00  0.00    +0.184 C 
BRANCH  24  25
ATOM     25  C   UNL     1     -12.561  10.252  20.444  0.00  0.00    +0.014 C 
ATOM     28  C   UNL     1     -12.473  10.896  21.830  0.00  0.00    +0.009 C 
ATOM     29  C   UNL     1     -11.206  10.349  19.734  0.00  0.00    +0.009 C 
ENDBRANCH  24  25
BRANCH  24  27
ATOM      6  O   UNL     1     -13.393   8.225  18.201  0.00  0.00    -0.249 OA
ATOM     27  C   UNL     1     -12.800   8.026  19.255  0.00  0.00    +0.328 C 
BRANCH  27   5
ATOM      5  O   UNL     1     -11.813   7.104  19.438  0.00  0.00    -0.467 OA
ATOM     31  C   UNL     1     -11.623   6.656  20.784  0.00  0.00    +0.280 C 
ENDBRANCH  27   5
ENDBRANCH  24  27
ENDBRANCH  10  24
ENDBRANCH  12  20
BRANCH  22  26
ATOM     26  C   UNL     1     -17.864   4.870  23.251  0.00  0.00    +0.164 C 
BRANCH  26   1
ATOM      1  S   UNL     1     -16.835   3.399  23.378  0.00  0.00    -0.155 S 
ATOM     30  C   UNL     1     -15.399   4.133  24.200  0.00  0.00    +0.085 C 
ENDBRANCH  26   1
ENDBRANCH  22  26
TORSDOF 9
ENDMDL
MODEL 5
REMARK VINA RESULT:      -5.1     27.057     30.552
REMARK  Name = 7049410
REMARK  13 active torsions:
REMARK  status: ('A' for Active; 'I' for Inactive)
REMARK    1  A    between atoms: S_1  and  C_26
REMARK    2  A    between atoms: S_1  and  C_30
REMARK    3  A    between atoms: O_5  and  C_27
REMARK    4  A    between atoms: O_5  and  C_31
REMARK    5  A    between atoms: N_8  and  C_11
REMARK    6  A    between atoms: N_9  and  C_15
REMARK    7  A    between atoms: N_10  and  C_24
REMARK    8  A    between atoms: C_12  and  C_20
REMARK    9  A    between atoms: C_22  and  C_26
REMARK   10  A    between atoms: C_24  and  C_25
REMARK   11  A    between atoms: C_24  and  C_27
REMARK   12  A    between atoms: C_25  and  C_28
REMARK   13  A    between atoms: C_25  and  C_29
REMARK                            x       y       z     vdW  Elec       q    Type
REMARK                         _______ _______ _______ _____ _____    ______ ____
ROOT
ATOM      3  O   UNL     1     -10.563 -10.477  17.548  0.00  0.00    -0.275 OA
ATOM      7  N   UNL     1      -9.362 -10.095  15.606  0.00  0.00    -0.287 N 
ATOM     11  C   UNL     1      -8.114 -10.134  13.585  0.00  0.00    +0.094 C 
ATOM     12  C   UNL     1      -9.574 -11.413  15.025  0.00  0.00    +0.164 C 
ATOM     13  C   UNL     1      -9.127 -11.282  13.571  0.00  0.00    +0.055 C 
ATOM     14  C   UNL     1      -8.631  -9.219  14.691  0.00  0.00    +0.131 C 
ATOM     22  C   UNL     1      -9.953  -9.710  16.801  0.00  0.00    +0.226 C 
ENDROOT
BRANCH  11   8
ATOM      4  O   UNL     1      -5.721  -9.432  12.154  0.00  0.00    -0.253 OA
ATOM      8  N   UNL     1      -6.778 -10.602  13.857  0.00  0.00    -0.295 N 
ATOM      9  N   UNL     1      -4.502 -10.802  13.578  0.00  0.00    -0.297 N 
ATOM     23  C   UNL     1      -5.670 -10.207  13.108  0.00  0.00    +0.300 C 
ATOM     32  H   UNL     1      -6.645 -11.298  14.583  0.00  0.00    +0.151 HD
ATOM     33  H   UNL     1      -4.563 -11.369  14.417  0.00  0.00    +0.151 HD
BRANCH   9  15
ATOM     15  C   UNL     1      -3.203 -10.570  12.988  0.00  0.00    +0.074 C 
ATOM     16  C   UNL     1      -2.857 -11.662  11.970  0.00  0.00    +0.022 C 
ATOM     17  C   UNL     1      -2.120 -10.454  14.067  0.00  0.00    +0.022 C 
ATOM     18  C   UNL     1      -2.542 -13.002  12.634  0.00  0.00    +0.002 C 
ATOM     19  C   UNL     1      -1.806 -11.796  14.727  0.00  0.00    +0.002 C 
ATOM     21  C   UNL     1      -1.455 -12.863  13.696  0.00  0.00    +0.000 C 
ENDBRANCH   9  15
ENDBRANCH  11   8
BRANCH  12  20
ATOM      2  O   UNL     1      -8.747 -13.603  15.489  0.00  0.00    -0.274 OA
ATOM     10  N   UNL     1      -8.003 -11.819  16.786  0.00  0.00    -0.301 N 
ATOM     20  C   UNL     1      -8.736 -12.408  15.770  0.00  0.00    +0.234 C 
ATOM     34  H   UNL     1      -8.019 -10.809  16.884  0.00  0.00    +0.150 HD
BRANCH  10  24
ATOM     24  C   UNL     1      -7.132 -12.564  17.666  0.00  0.00    +0.184 C 
BRANCH  24  25
ATOM     25  C   UNL     1      -7.336 -12.191  19.151  0.00  0.00    +0.014 C 
ATOM     28  C   UNL     1      -7.400 -10.672  19.338  0.00  0.00    +0.009 C 
ATOM     29  C   UNL     1      -8.571 -12.848  19.777  0.00  0.00    +0.009 C 
ENDBRANCH  24  25
BRANCH  24  27
ATOM      6  O   UNL     1      -4.811 -13.239  17.593  0.00  0.00    -0.249 OA
ATOM     27  C   UNL     1      -5.669 -12.430  17.257  0.00  0.00    +0.328 C 
BRANCH  27   5
ATOM      5  O   UNL     1      -5.448 -11.323  16.493  0.00  0.00    -0.467 OA
ATOM     31  C   UNL     1      -4.536 -10.364  17.038  0.00  0.00    +0.280 C 
ENDBRANCH  27   5
ENDBRANCH  24  27
ENDBRANCH  10  24
ENDBRANCH  12  20
BRANCH  22  26
ATOM     26  C   UNL     1      -9.797  -8.256  17.165  0.00  0.00    +0.164 C 
BRANCH  26   1
ATOM      1  S   UNL     1     -11.321  -7.414  16.713  0.00  0.00    -0.155 S 
ATOM     30  C   UNL     1     -10.633  -6.173  15.589  0.00  0.00    +0.085 C 
ENDBRANCH  26   1
ENDBRANCH  22  26
TORSDOF 9
ENDMDL
MODEL 6
REMARK VINA RESULT:      -5.1     26.061     29.230
REMARK  Name = 7049410
REMARK  13 active torsions:
REMARK  status: ('A' for Active; 'I' for Inactive)
REMARK    1  A    between atoms: S_1  and  C_26
REMARK    2  A    between atoms: S_1  and  C_30
REMARK    3  A    between atoms: O_5  and  C_27
REMARK    4  A    between atoms: O_5  and  C_31
REMARK    5  A    between atoms: N_8  and  C_11
REMARK    6  A    between atoms: N_9  and  C_15
REMARK    7  A    between atoms: N_10  and  C_24
REMARK    8  A    between atoms: C_12  and  C_20
REMARK    9  A    between atoms: C_22  and  C_26
REMARK   10  A    between atoms: C_24  and  C_25
REMARK   11  A    between atoms: C_24  and  C_27
REMARK   12  A    between atoms: C_25  and  C_28
REMARK   13  A    between atoms: C_25  and  C_29
REMARK                            x       y       z     vdW  Elec       q    Type
REMARK                         _______ _______ _______ _____ _____    ______ ____
ROOT
ATOM      3  O   UNL     1      -3.030 -15.152  14.910  0.00  0.00    -0.275 OA
ATOM      7  N   UNL     1      -2.476 -13.102  13.989  0.00  0.00    -0.287 N 
ATOM     11  C   UNL     1      -2.203 -10.840  13.315  0.00  0.00    +0.094 C 
ATOM     12  C   UNL     1      -3.006 -12.289  15.074  0.00  0.00    +0.164 C 
ATOM     13  C   UNL     1      -2.458 -10.886  14.824  0.00  0.00    +0.055 C 
ATOM     14  C   UNL     1      -1.816 -12.277  12.977  0.00  0.00    +0.131 C 
ATOM     22  C   UNL     1      -2.462 -14.488  14.041  0.00  0.00    +0.226 C 
ENDROOT
BRANCH  11   8
ATOM      4  O   UNL     1      -2.257  -9.612  10.715  0.00  0.00    -0.253 OA
ATOM      8  N   UNL     1      -3.371 -10.414  12.587  0.00  0.00    -0.295 N 
ATOM      9  N   UNL     1      -4.572  -9.509  10.844  0.00  0.00    -0.297 N 
ATOM     23  C   UNL     1      -3.305  -9.825  11.324  0.00  0.00    +0.300 C 
ATOM     32  H   UNL     1      -4.278 -10.485  13.036  0.00  0.00    +0.151 HD
ATOM     33  H   UNL     1      -5.374  -9.793  11.397  0.00  0.00    +0.151 HD
BRANCH   9  15
ATOM     15  C   UNL     1      -4.800  -8.887   9.559  0.00  0.00    +0.074 C 
ATOM     16  C   UNL     1      -6.079  -8.044   9.571  0.00  0.00    +0.022 C 
ATOM     17  C   UNL     1      -4.836  -9.935   8.439  0.00  0.00    +0.022 C 
ATOM     18  C   UNL     1      -7.344  -8.901   9.610  0.00  0.00    +0.002 C 
ATOM     19  C   UNL     1      -6.103 -10.788   8.478  0.00  0.00    +0.002 C 
ATOM     21  C   UNL     1      -7.363  -9.928   8.481  0.00  0.00    +0.000 C 
ENDBRANCH   9  15
ENDBRANCH  11   8
BRANCH  12  20
ATOM      2  O   UNL     1      -5.101 -12.506  13.951  0.00  0.00    -0.274 OA
ATOM     10  N   UNL     1      -5.087 -12.081  16.240  0.00  0.00    -0.301 N 
ATOM     20  C   UNL     1      -4.503 -12.315  15.007  0.00  0.00    +0.234 C 
ATOM     34  H   UNL     1      -4.493 -12.004  17.060  0.00  0.00    +0.150 HD
BRANCH  10  24
ATOM     24  C   UNL     1      -6.518 -12.031  16.441  0.00  0.00    +0.184 C 
BRANCH  24  25
ATOM     25  C   UNL     1      -7.095 -10.616  16.220  0.00  0.00    +0.014 C 
ATOM     28  C   UNL     1      -6.006  -9.546  16.339  0.00  0.00    +0.009 C 
ATOM     29  C   UNL     1      -7.834 -10.465  14.886  0.00  0.00    +0.009 C 
ENDBRANCH  24  25
BRANCH  24  27
ATOM      6  O   UNL     1      -8.004 -13.102  18.019  0.00  0.00    -0.249 OA
ATOM     27  C   UNL     1      -6.913 -12.584  17.806  0.00  0.00    +0.328 C 
BRANCH  27   5
ATOM      5  O   UNL     1      -5.924 -12.431  18.730  0.00  0.00    -0.467 OA
ATOM     31  C   UNL     1      -6.132 -11.396  19.697  0.00  0.00    +0.280 C 
ENDBRANCH  27   5
ENDBRANCH  24  27
ENDBRANCH  10  24
ENDBRANCH  12  20
BRANCH  22  26
ATOM     26  C   UNL     1      -1.702 -15.173  12.934  0.00  0.00    +0.164 C 
BRANCH  26   1
ATOM      1  S   UNL     1      -2.834 -16.308  12.116  0.00  0.00    -0.155 S 
ATOM     30  C   UNL     1      -3.441 -15.207  10.813  0.00  0.00    +0.085 C 
ENDBRANCH  26   1
ENDBRANCH  22  26
TORSDOF 9
ENDMDL
MODEL 7
REMARK VINA RESULT:      -5.0      3.248      7.277
REMARK  Name = 7049410
REMARK  13 active torsions:
REMARK  status: ('A' for Active; 'I' for Inactive)
REMARK    1  A    between atoms: S_1  and  C_26
REMARK    2  A    between atoms: S_1  and  C_30
REMARK    3  A    between atoms: O_5  and  C_27
REMARK    4  A    between atoms: O_5  and  C_31
REMARK    5  A    between atoms: N_8  and  C_11
REMARK    6  A    between atoms: N_9  and  C_15
REMARK    7  A    between atoms: N_10  and  C_24
REMARK    8  A    between atoms: C_12  and  C_20
REMARK    9  A    between atoms: C_22  and  C_26
REMARK   10  A    between atoms: C_24  and  C_25
REMARK   11  A    between atoms: C_24  and  C_27
REMARK   12  A    between atoms: C_25  and  C_28
REMARK   13  A    between atoms: C_25  and  C_29
REMARK                            x       y       z     vdW  Elec       q    Type
REMARK                         _______ _______ _______ _____ _____    ______ ____
ROOT
ATOM      3  O   UNL     1      13.534  10.033   7.219  0.00  0.00    -0.275 OA
ATOM      7  N   UNL     1      12.861   9.888   5.009  0.00  0.00    -0.287 N 
ATOM     11  C   UNL     1      11.873   9.465   2.890  0.00  0.00    +0.094 C 
ATOM     12  C   UNL     1      11.530   9.365   5.280  0.00  0.00    +0.164 C 
ATOM     13  C   UNL     1      10.777   9.492   3.958  0.00  0.00    +0.055 C 
ATOM     14  C   UNL     1      13.057  10.135   3.581  0.00  0.00    +0.131 C 
ATOM     22  C   UNL     1      13.732  10.258   6.024  0.00  0.00    +0.226 C 
ENDROOT
BRANCH  11   8
ATOM      4  O   UNL     1      10.184   7.693   1.382  0.00  0.00    -0.253 OA
ATOM      8  N   UNL     1      12.185   8.119   2.478  0.00  0.00    -0.295 N 
ATOM      9  N   UNL     1      11.846   6.075   1.476  0.00  0.00    -0.297 N 
ATOM     23  C   UNL     1      11.302   7.328   1.744  0.00  0.00    +0.300 C 
ATOM     32  H   UNL     1      13.058   7.705   2.788  0.00  0.00    +0.151 HD
ATOM     33  H   UNL     1      12.805   5.903   1.760  0.00  0.00    +0.151 HD
BRANCH   9  15
ATOM     15  C   UNL     1      11.147   5.051   0.732  0.00  0.00    +0.074 C 
ATOM     16  C   UNL     1      11.428   3.660   1.309  0.00  0.00    +0.022 C 
ATOM     17  C   UNL     1      11.501   5.115  -0.759  0.00  0.00    +0.022 C 
ATOM     18  C   UNL     1      12.853   3.184   1.022  0.00  0.00    +0.002 C 
ATOM     19  C   UNL     1      12.924   4.636  -1.043  0.00  0.00    +0.002 C 
ATOM     21  C   UNL     1      13.177   3.247  -0.468  0.00  0.00    +0.000 C 
ENDBRANCH   9  15
ENDBRANCH  11   8
BRANCH  12  20
ATOM      2  O   UNL     1      12.679   7.286   5.517  0.00  0.00    -0.274 OA
ATOM     10  N   UNL     1      10.493   7.463   6.298  0.00  0.00    -0.301 N 
ATOM     20  C   UNL     1      11.653   7.934   5.708  0.00  0.00    +0.234 C 
ATOM     34  H   UNL     1       9.728   8.108   6.467  0.00  0.00    +0.150 HD
BRANCH  10  24
ATOM     24  C   UNL     1      10.345   6.107   6.778  0.00  0.00    +0.184 C 
BRANCH  24  25
ATOM     25  C   UNL     1       9.525   5.226   5.811  0.00  0.00    +0.014 C 
ATOM     28  C   UNL     1       8.240   5.933   5.369  0.00  0.00    +0.009 C 
ATOM     29  C   UNL     1      10.321   4.772   4.583  0.00  0.00    +0.009 C 
ENDBRANCH  24  25
BRANCH  24  27
ATOM      6  O   UNL     1       9.061   6.967   8.638  0.00  0.00    -0.249 OA
ATOM     27  C   UNL     1       9.765   6.070   8.188  0.00  0.00    +0.328 C 
BRANCH  27   5
ATOM      5  O   UNL     1      10.123   4.941   8.863  0.00  0.00    -0.467 OA
ATOM     31  C   UNL     1       9.428   4.705  10.092  0.00  0.00    +0.280 C 
ENDBRANCH  27   5
ENDBRANCH  24  27
ENDBRANCH  10  24
ENDBRANCH  12  20
BRANCH  22  26
ATOM     26  C   UNL     1      14.988  10.963   5.579  0.00  0.00    +0.164 C 
BRANCH  26   1
ATOM      1  S   UNL     1      16.390   9.972   6.117  0.00  0.00    -0.155 S 
ATOM     30  C   UNL     1      16.860   9.262   4.519  0.00  0.00    +0.085 C 
ENDBRANCH  26   1
ENDBRANCH  22  26
TORSDOF 9
ENDMDL
MODEL 8
REMARK VINA RESULT:      -5.0     31.731     35.966
REMARK  Name = 7049410
REMARK  13 active torsions:
REMARK  status: ('A' for Active; 'I' for Inactive)
REMARK    1  A    between atoms: S_1  and  C_26
REMARK    2  A    between atoms: S_1  and  C_30
REMARK    3  A    between atoms: O_5  and  C_27
REMARK    4  A    between atoms: O_5  and  C_31
REMARK    5  A    between atoms: N_8  and  C_11
REMARK    6  A    between atoms: N_9  and  C_15
REMARK    7  A    between atoms: N_10  and  C_24
REMARK    8  A    between atoms: C_12  and  C_20
REMARK    9  A    between atoms: C_22  and  C_26
REMARK   10  A    between atoms: C_24  and  C_25
REMARK   11  A    between atoms: C_24  and  C_27
REMARK   12  A    between atoms: C_25  and  C_28
REMARK   13  A    between atoms: C_25  and  C_29
REMARK                            x       y       z     vdW  Elec       q    Type
REMARK                         _______ _______ _______ _____ _____    ______ ____
ROOT
ATOM      3  O   UNL     1      11.297  -4.821  35.939  0.00  0.00    -0.275 OA
ATOM      7  N   UNL     1       9.588  -5.710  34.655  0.00  0.00    -0.287 N 
ATOM     11  C   UNL     1       7.577  -6.371  33.577  0.00  0.00    +0.094 C 
ATOM     12  C   UNL     1       8.613  -4.667  34.940  0.00  0.00    +0.164 C 
ATOM     13  C   UNL     1       7.492  -4.884  33.928  0.00  0.00    +0.055 C 
ATOM     14  C   UNL     1       9.068  -6.677  33.689  0.00  0.00    +0.131 C 
ATOM     22  C   UNL     1      10.892  -5.652  35.124  0.00  0.00    +0.226 C 
ENDROOT
BRANCH  11   8
ATOM      4  O   UNL     1       5.794  -8.511  32.861  0.00  0.00    -0.253 OA
ATOM      8  N   UNL     1       6.795  -7.180  34.478  0.00  0.00    -0.295 N 
ATOM      9  N   UNL     1       5.316  -8.826  35.110  0.00  0.00    -0.297 N 
ATOM     23  C   UNL     1       5.953  -8.203  34.041  0.00  0.00    +0.300 C 
ATOM     32  H   UNL     1       6.807  -6.956  35.468  0.00  0.00    +0.151 HD
ATOM     33  H   UNL     1       5.573  -8.540  36.049  0.00  0.00    +0.151 HD
BRANCH   9  15
ATOM     15  C   UNL     1       4.385  -9.921  34.948  0.00  0.00    +0.074 C 
ATOM     16  C   UNL     1       3.086  -9.659  35.716  0.00  0.00    +0.022 C 
ATOM     17  C   UNL     1       5.021 -11.251  35.369  0.00  0.00    +0.022 C 
ATOM     18  C   UNL     1       3.268  -9.769  37.230  0.00  0.00    +0.002 C 
ATOM     19  C   UNL     1       5.199 -11.360  36.883  0.00  0.00    +0.002 C 
ATOM     21  C   UNL     1       3.891 -11.105  37.625  0.00  0.00    +0.000 C 
ENDBRANCH   9  15
ENDBRANCH  11   8
BRANCH  12  20
ATOM      2  O   UNL     1       8.143  -5.927  36.912  0.00  0.00    -0.274 OA
ATOM     10  N   UNL     1       7.651  -3.652  36.884  0.00  0.00    -0.301 N 
ATOM     20  C   UNL     1       8.125  -4.837  36.347  0.00  0.00    +0.234 C 
ATOM     34  H   UNL     1       7.748  -2.795  36.349  0.00  0.00    +0.150 HD
BRANCH  10  24
ATOM     24  C   UNL     1       7.103  -3.552  38.218  0.00  0.00    +0.184 C 
BRANCH  24  25
ATOM     25  C   UNL     1       5.559  -3.582  38.225  0.00  0.00    +0.014 C 
ATOM     28  C   UNL     1       4.985  -2.953  36.952  0.00  0.00    +0.009 C 
ATOM     29  C   UNL     1       4.982  -4.988  38.419  0.00  0.00    +0.009 C 
ENDBRANCH  24  25
BRANCH  24  27
ATOM      6  O   UNL     1       8.718  -1.814  38.688  0.00  0.00    -0.249 OA
ATOM     27  C   UNL     1       7.637  -2.328  38.954  0.00  0.00    +0.328 C 
BRANCH  27   5
ATOM      5  O   UNL     1       6.779  -1.893  39.920  0.00  0.00    -0.467 OA
ATOM     31  C   UNL     1       7.254  -0.815  40.733  0.00  0.00    +0.280 C 
ENDBRANCH  27   5
ENDBRANCH  24  27
ENDBRANCH  10  24
ENDBRANCH  12  20
BRANCH  22  26
ATOM     26  C   UNL     1      11.827  -6.701  34.578  0.00  0.00    +0.164 C 
BRANCH  26   1
ATOM      1  S   UNL     1      13.220  -5.851  33.822  0.00  0.00    -0.155 S 
ATOM     30  C   UNL     1      12.356  -5.085  32.427  0.00  0.00    +0.085 C 
ENDBRANCH  26   1
ENDBRANCH  22  26
TORSDOF 9
ENDMDL
MODEL 9
REMARK VINA RESULT:      -4.9     14.803     18.104
REMARK  Name = 7049410
REMARK  13 active torsions:
REMARK  status: ('A' for Active; 'I' for Inactive)
REMARK    1  A    between atoms: S_1  and  C_26
REMARK    2  A    between atoms: S_1  and  C_30
REMARK    3  A    between atoms: O_5  and  C_27
REMARK    4  A    between atoms: O_5  and  C_31
REMARK    5  A    between atoms: N_8  and  C_11
REMARK    6  A    between atoms: N_9  and  C_15
REMARK    7  A    between atoms: N_10  and  C_24
REMARK    8  A    between atoms: C_12  and  C_20
REMARK    9  A    between atoms: C_22  and  C_26
REMARK   10  A    between atoms: C_24  and  C_25
REMARK   11  A    between atoms: C_24  and  C_27
REMARK   12  A    between atoms: C_25  and  C_28
REMARK   13  A    between atoms: C_25  and  C_29
REMARK                            x       y       z     vdW  Elec       q    Type
REMARK                         _______ _______ _______ _____ _____    ______ ____
ROOT
ATOM      3  O   UNL     1      17.399  -4.726  -3.911  0.00  0.00    -0.275 OA
ATOM      7  N   UNL     1      18.564  -6.118  -2.473  0.00  0.00    -0.287 N 
ATOM     11  C   UNL     1      19.660  -7.855  -1.281  0.00  0.00    +0.094 C 
ATOM     12  C   UNL     1      18.801  -7.182  -3.436  0.00  0.00    +0.164 C 
ATOM     13  C   UNL     1      19.846  -8.083  -2.783  0.00  0.00    +0.055 C 
ATOM     14  C   UNL     1      19.219  -6.397  -1.196  0.00  0.00    +0.131 C 
ATOM     22  C   UNL     1      17.942  -4.928  -2.823  0.00  0.00    +0.226 C 
ENDROOT
BRANCH  11   8
ATOM      4  O   UNL     1      20.162 -10.343   0.071  0.00  0.00    -0.253 OA
ATOM      8  N   UNL     1      18.676  -8.746  -0.721  0.00  0.00    -0.295 N 
ATOM      9  N   UNL     1      17.876 -10.609   0.369  0.00  0.00    -0.297 N 
ATOM     23  C   UNL     1      19.010  -9.938  -0.079  0.00  0.00    +0.300 C 
ATOM     32  H   UNL     1      17.693  -8.532  -0.855  0.00  0.00    +0.151 HD
ATOM     33  H   UNL     1      16.978 -10.151   0.256  0.00  0.00    +0.151 HD
BRANCH   9  15
ATOM     15  C   UNL     1      17.928 -11.874   1.069  0.00  0.00    +0.074 C 
ATOM     16  C   UNL     1      16.797 -12.802   0.616  0.00  0.00    +0.022 C 
ATOM     17  C   UNL     1      17.901 -11.663   2.587  0.00  0.00    +0.022 C 
ATOM     18  C   UNL     1      15.428 -12.346   1.122  0.00  0.00    +0.002 C 
ATOM     19  C   UNL     1      16.530 -11.211   3.090  0.00  0.00    +0.002 C 
ATOM     21  C   UNL     1      15.422 -12.155   2.636  0.00  0.00    +0.000 C 
ENDBRANCH   9  15
ENDBRANCH  11   8
BRANCH  12  20
ATOM      2  O   UNL     1      16.862  -8.392  -2.748  0.00  0.00    -0.274 OA
ATOM     10  N   UNL     1      17.194  -7.990  -5.017  0.00  0.00    -0.301 N 
ATOM     20  C   UNL     1      17.514  -7.914  -3.672  0.00  0.00    +0.234 C 
ATOM     34  H   UNL     1      17.772  -7.498  -5.690  0.00  0.00    +0.150 HD
BRANCH  10  24
ATOM     24  C   UNL     1      16.014  -8.664  -5.511  0.00  0.00    +0.184 C 
BRANCH  24  25
ATOM     25  C   UNL     1      16.281  -9.436  -6.821  0.00  0.00    +0.014 C 
ATOM     28  C   UNL     1      16.537  -8.478  -7.989  0.00  0.00    +0.009 C 
ATOM     29  C   UNL     1      17.433 -10.441  -6.707  0.00  0.00    +0.009 C 
ENDBRANCH  24  25
BRANCH  24  27
ATOM      6  O   UNL     1      14.959  -6.488  -5.539  0.00  0.00    -0.249 OA
ATOM     27  C   UNL     1      14.841  -7.702  -5.665  0.00  0.00    +0.328 C 
BRANCH  27   5
ATOM      5  O   UNL     1      13.676  -8.350  -5.951  0.00  0.00    -0.467 OA
ATOM     31  C   UNL     1      12.876  -7.763  -6.983  0.00  0.00    +0.280 C 
ENDBRANCH  27   5
ENDBRANCH  24  27
ENDBRANCH  10  24
ENDBRANCH  12  20
BRANCH  22  26
ATOM     26  C   UNL     1      17.950  -3.853  -1.766  0.00  0.00    +0.164 C 
BRANCH  26   1
ATOM      1  S   UNL     1      18.793  -2.419  -2.451  0.00  0.00    -0.155 S 
ATOM     30  C   UNL     1      20.491  -3.045  -2.407  0.00  0.00    +0.085 C 
ENDBRANCH  26   1
ENDBRANCH  22  26
TORSDOF 9
ENDMDL
MODEL 10
REMARK VINA RESULT:      -4.9     27.218     30.881
REMARK  Name = 7049410
REMARK  13 active torsions:
REMARK  status: ('A' for Active; 'I' for Inactive)
REMARK    1  A    between atoms: S_1  and  C_26
REMARK    2  A    between atoms: S_1  and  C_30
REMARK    3  A    between atoms: O_5  and  C_27
REMARK    4  A    between atoms: O_5  and  C_31
REMARK    5  A    between atoms: N_8  and  C_11
REMARK    6  A    between atoms: N_9  and  C_15
REMARK    7  A    between atoms: N_10  and  C_24
REMARK    8  A    between atoms: C_12  and  C_20
REMARK    9  A    between atoms: C_22  and  C_26
REMARK   10  A    between atoms: C_24  and  C_25
REMARK   11  A    between atoms: C_24  and  C_27
REMARK   12  A    between atoms: C_25  and  C_28
REMARK   13  A    between atoms: C_25  and  C_29
REMARK                            x       y       z     vdW  Elec       q    Type
REMARK                         _______ _______ _______ _____ _____    ______ ____
ROOT
ATOM      3  O   UNL     1     -10.036 -11.570  18.346  0.00  0.00    -0.275 OA
ATOM      7  N   UNL     1      -7.735 -11.770  18.499  0.00  0.00    -0.287 N 
ATOM     11  C   UNL     1      -5.368 -11.570  18.509  0.00  0.00    +0.094 C 
ATOM     12  C   UNL     1      -7.449 -10.343  18.503  0.00  0.00    +0.164 C 
ATOM     13  C   UNL     1      -5.986 -10.232  18.923  0.00  0.00    +0.055 C 
ATOM     14  C   UNL     1      -6.517 -12.559  18.681  0.00  0.00    +0.131 C 
ATOM     22  C   UNL     1      -9.031 -12.265  18.502  0.00  0.00    +0.226 C 
ENDROOT
BRANCH  11   8
ATOM      4  O   UNL     1      -2.624 -11.418  17.663  0.00  0.00    -0.253 OA
ATOM      8  N   UNL     1      -4.885 -11.540  17.152  0.00  0.00    -0.295 N 
ATOM      9  N   UNL     1      -3.334 -11.452  15.453  0.00  0.00    -0.297 N 
ATOM     23  C   UNL     1      -3.529 -11.466  16.831  0.00  0.00    +0.300 C 
ATOM     32  H   UNL     1      -5.560 -11.507  16.395  0.00  0.00    +0.151 HD
ATOM     33  H   UNL     1      -4.147 -11.568  14.857  0.00  0.00    +0.151 HD
BRANCH   9  15
ATOM     15  C   UNL     1      -2.027 -11.378  14.839  0.00  0.00    +0.074 C 
ATOM     16  C   UNL     1      -1.925 -10.173  13.900  0.00  0.00    +0.022 C 
ATOM     17  C   UNL     1      -1.688 -12.683  14.108  0.00  0.00    +0.022 C 
ATOM     18  C   UNL     1      -2.740 -10.358  12.620  0.00  0.00    +0.002 C 
ATOM     19  C   UNL     1      -2.503 -12.864  12.828  0.00  0.00    +0.002 C 
ATOM     21  C   UNL     1      -2.378 -11.656  11.905  0.00  0.00    +0.000 C 
ENDBRANCH   9  15
ENDBRANCH  11   8
BRANCH  12  20
ATOM      2  O   UNL     1      -6.772  -9.797  16.280  0.00  0.00    -0.274 OA
ATOM     10  N   UNL     1      -8.951  -9.319  16.944  0.00  0.00    -0.301 N 
ATOM     20  C   UNL     1      -7.667  -9.805  17.121  0.00  0.00    +0.234 C 
ATOM     34  H   UNL     1      -9.631  -9.439  17.689  0.00  0.00    +0.150 HD
BRANCH  10  24
ATOM     24  C   UNL     1      -9.408  -8.726  15.708  0.00  0.00    +0.184 C 
BRANCH  24  25
ATOM     25  C   UNL     1     -10.725  -7.938  15.884  0.00  0.00    +0.014 C 
ATOM     28  C   UNL     1     -11.361  -8.216  17.249  0.00  0.00    +0.009 C 
ATOM     29  C   UNL     1     -10.558  -6.428  15.681  0.00  0.00    +0.009 C 
ENDBRANCH  24  25
BRANCH  24  27
ATOM      6  O   UNL     1      -9.134  -9.559  13.455  0.00  0.00    -0.249 OA
ATOM     27  C   UNL     1      -9.528  -9.764  14.597  0.00  0.00    +0.328 C 
BRANCH  27   5
ATOM      5  O   UNL     1     -10.117 -10.915  15.029  0.00  0.00    -0.467 OA
ATOM     31  C   UNL     1     -11.354 -11.257  14.395  0.00  0.00    +0.280 C 
ENDBRANCH  27   5
ENDBRANCH  24  27
ENDBRANCH  10  24
ENDBRANCH  12  20
BRANCH  22  26
ATOM     26  C   UNL     1      -9.159 -13.755  18.698  0.00  0.00    +0.164 C 
BRANCH  26   1
ATOM      1  S   UNL     1      -9.375 -14.056  20.458  0.00  0.00    -0.155 S 
ATOM     30  C   UNL     1     -11.176 -13.897  20.550  0.00  0.00    +0.085 C 
ENDBRANCH  26   1
ENDBRANCH  22  26
TORSDOF 9
ENDMDL
