MODEL 1
REMARK VINA RESULT:      -6.2      0.000      0.000
REMARK  Name = 75536855
REMARK  4 active torsions:
REMARK  status: ('A' for Active; 'I' for Inactive)
REMARK    1  A    between atoms: O_2  and  C_8
REMARK    2  A    between atoms: O_2  and  C_14
REMARK    3  A    between atoms: C_13  and  C_15
REMARK    4  A    between atoms: C_18  and  C_21
REMARK                            x       y       z     vdW  Elec       q    Type
REMARK                         _______ _______ _______ _____ _____    ______ ____
ROOT
ATOM      1  O   UNL     1      11.528   7.211  20.338  0.00  0.00    -0.375 OA
ATOM      3  O   UNL     1      11.318  11.920  21.379  0.00  0.00    -0.268 OA
ATOM      4  N   UNL     1      12.678  10.046  21.017  0.00  0.00    -0.290 N 
ATOM      8  C   UNL     1      13.805   7.756  21.024  0.00  0.00    +0.218 C 
ATOM      9  C   UNL     1      13.824   9.231  21.437  0.00  0.00    +0.155 C 
ATOM     10  C   UNL     1      11.879   9.590  19.879  0.00  0.00    +0.136 C 
ATOM     11  C   UNL     1      12.496   7.051  21.371  0.00  0.00    +0.206 C 
ATOM     12  C   UNL     1      10.909   8.492  20.296  0.00  0.00    +0.179 C 
ATOM     13  C   UNL     1      12.287  11.224  21.676  0.00  0.00    +0.267 C 
ENDROOT
BRANCH  13  15
ATOM      6  N   UNL     1      14.248  12.310  22.532  0.00  0.00    -0.247 NA
ATOM      7  N   UNL     1      13.406  11.890  25.173  0.00  0.00    -0.259 NA
ATOM     15  C   UNL     1      13.091  11.683  22.820  0.00  0.00    +0.144 A 
ATOM     17  C   UNL     1      12.678  11.477  24.118  0.00  0.00    +0.143 A 
ATOM     22  C   UNL     1      14.977  12.724  23.588  0.00  0.00    +0.131 A 
ATOM     23  C   UNL     1      14.563  12.518  24.885  0.00  0.00    +0.130 A 
ENDBRANCH  13  15
BRANCH   8   2
ATOM      2  O   UNL     1      14.876   7.120  21.724  0.00  0.00    -0.469 OA
BRANCH   2  14
ATOM      5  N   UNL     1      17.166   6.791  21.575  0.00  0.00    -0.218 NA
ATOM     14  C   UNL     1      15.955   6.741  20.975  0.00  0.00    +0.215 A 
ATOM     16  C   UNL     1      15.756   6.336  19.665  0.00  0.00    +0.067 A 
ATOM     18  C   UNL     1      18.225   6.416  20.824  0.00  0.00    +0.042 A 
ATOM     19  C   UNL     1      16.870   5.959  18.924  0.00  0.00    +0.007 A 
ATOM     20  C   UNL     1      18.132   5.996  19.506  0.00  0.00    +0.023 A 
ATOM     21  C   UNL     1      19.563   6.472  21.481  0.00  0.00    +0.066 C 
ENDBRANCH   2  14
ENDBRANCH   8   2
TORSDOF 3
ENDMDL
MODEL 2
REMARK VINA RESULT:      -6.2      3.117      7.229
REMARK  Name = 75536855
REMARK  4 active torsions:
REMARK  status: ('A' for Active; 'I' for Inactive)
REMARK    1  A    between atoms: O_2  and  C_8
REMARK    2  A    between atoms: O_2  and  C_14
REMARK    3  A    between atoms: C_13  and  C_15
REMARK    4  A    between atoms: C_18  and  C_21
REMARK                            x       y       z     vdW  Elec       q    Type
REMARK                         _______ _______ _______ _____ _____    ______ ____
ROOT
ATOM      1  O   UNL     1      10.936   7.579  22.325  0.00  0.00    -0.375 OA
ATOM      3  O   UNL     1      14.407   7.029  19.015  0.00  0.00    -0.268 OA
ATOM      4  N   UNL     1      13.334   8.474  20.515  0.00  0.00    -0.290 N 
ATOM      8  C   UNL     1      11.676   9.861  21.875  0.00  0.00    +0.218 C 
ATOM      9  C   UNL     1      12.745   9.793  20.780  0.00  0.00    +0.155 C 
ATOM     10  C   UNL     1      13.260   7.456  21.564  0.00  0.00    +0.136 C 
ATOM     11  C   UNL     1      10.579   8.813  21.708  0.00  0.00    +0.206 C 
ATOM     12  C   UNL     1      11.884   6.804  21.599  0.00  0.00    +0.179 C 
ATOM     13  C   UNL     1      13.931   8.129  19.291  0.00  0.00    +0.267 C 
ENDROOT
BRANCH  13  15
ATOM      6  N   UNL     1      13.157   9.012  17.199  0.00  0.00    -0.247 NA
ATOM      7  N   UNL     1      14.978  11.139  17.350  0.00  0.00    -0.259 NA
ATOM     15  C   UNL     1      14.005   9.152  18.237  0.00  0.00    +0.144 A 
ATOM     17  C   UNL     1      14.899  10.198  18.310  0.00  0.00    +0.143 A 
ATOM     22  C   UNL     1      13.235   9.954  16.238  0.00  0.00    +0.131 A 
ATOM     23  C   UNL     1      14.130  10.999  16.312  0.00  0.00    +0.130 A 
ENDBRANCH  13  15
BRANCH   8   2
ATOM      2  O   UNL     1      11.092  11.162  21.799  0.00  0.00    -0.469 OA
BRANCH   2  14
ATOM      5  N   UNL     1      10.512  13.113  22.909  0.00  0.00    -0.218 NA
ATOM     14  C   UNL     1      10.940  11.832  22.982  0.00  0.00    +0.215 A 
ATOM     16  C   UNL     1      11.229  11.177  24.167  0.00  0.00    +0.067 A 
ATOM     18  C   UNL     1      10.367  13.765  24.084  0.00  0.00    +0.042 A 
ATOM     19  C   UNL     1      11.068  11.881  25.356  0.00  0.00    +0.007 A 
ATOM     20  C   UNL     1      10.630  13.200  25.323  0.00  0.00    +0.023 A 
ATOM     21  C   UNL     1       9.898  15.179  24.010  0.00  0.00    +0.066 C 
ENDBRANCH   2  14
ENDBRANCH   8   2
TORSDOF 3
ENDMDL
MODEL 3
REMARK VINA RESULT:      -6.2      2.932      4.768
REMARK  Name = 75536855
REMARK  4 active torsions:
REMARK  status: ('A' for Active; 'I' for Inactive)
REMARK    1  A    between atoms: O_2  and  C_8
REMARK    2  A    between atoms: O_2  and  C_14
REMARK    3  A    between atoms: C_13  and  C_15
REMARK    4  A    between atoms: C_18  and  C_21
REMARK                            x       y       z     vdW  Elec       q    Type
REMARK                         _______ _______ _______ _____ _____    ______ ____
ROOT
ATOM      1  O   UNL     1      10.262   7.657  22.058  0.00  0.00    -0.375 OA
ATOM      3  O   UNL     1      13.336  11.096  23.480  0.00  0.00    -0.268 OA
ATOM      4  N   UNL     1      12.385   9.932  21.683  0.00  0.00    -0.290 N 
ATOM      8  C   UNL     1      11.515   8.189  20.033  0.00  0.00    +0.218 C 
ATOM      9  C   UNL     1      12.568   9.237  20.403  0.00  0.00    +0.155 C 
ATOM     10  C   UNL     1      11.045   9.967  22.269  0.00  0.00    +0.136 C 
ATOM     11  C   UNL     1      11.252   7.182  21.151  0.00  0.00    +0.206 C 
ATOM     12  C   UNL     1      10.717   8.653  22.967  0.00  0.00    +0.179 C 
ATOM     13  C   UNL     1      13.439  10.533  22.391  0.00  0.00    +0.267 C 
ENDROOT
BRANCH  13  15
ATOM      6  N   UNL     1      15.546   9.424  22.096  0.00  0.00    -0.247 NA
ATOM      7  N   UNL     1      16.476  11.494  20.449  0.00  0.00    -0.259 NA
ATOM     15  C   UNL     1      14.786  10.498  21.801  0.00  0.00    +0.144 A 
ATOM     17  C   UNL     1      15.244  11.514  20.992  0.00  0.00    +0.143 A 
ATOM     22  C   UNL     1      16.780   9.404  21.552  0.00  0.00    +0.131 A 
ATOM     23  C   UNL     1      17.236  10.421  20.743  0.00  0.00    +0.130 A 
ENDBRANCH  13  15
BRANCH   8   2
ATOM      2  O   UNL     1      12.011   7.493  18.888  0.00  0.00    -0.469 OA
BRANCH   2  14
ATOM      5  N   UNL     1      13.190   8.596  17.224  0.00  0.00    -0.218 NA
ATOM     14  C   UNL     1      11.997   8.178  17.704  0.00  0.00    +0.215 A 
ATOM     16  C   UNL     1      10.785   8.403  17.073  0.00  0.00    +0.067 A 
ATOM     18  C   UNL     1      13.163   9.273  16.054  0.00  0.00    +0.042 A 
ATOM     19  C   UNL     1      10.797   9.104  15.872  0.00  0.00    +0.007 A 
ATOM     20  C   UNL     1      12.004   9.550  15.346  0.00  0.00    +0.023 A 
ATOM     21  C   UNL     1      14.476   9.739  15.521  0.00  0.00    +0.066 C 
ENDBRANCH   2  14
ENDBRANCH   8   2
TORSDOF 3
ENDMDL
MODEL 4
REMARK VINA RESULT:      -6.1      3.866      6.676
REMARK  Name = 75536855
REMARK  4 active torsions:
REMARK  status: ('A' for Active; 'I' for Inactive)
REMARK    1  A    between atoms: O_2  and  C_8
REMARK    2  A    between atoms: O_2  and  C_14
REMARK    3  A    between atoms: C_13  and  C_15
REMARK    4  A    between atoms: C_18  and  C_21
REMARK                            x       y       z     vdW  Elec       q    Type
REMARK                         _______ _______ _______ _____ _____    ______ ____
ROOT
ATOM      1  O   UNL     1      10.950   8.507  18.412  0.00  0.00    -0.375 OA
ATOM      3  O   UNL     1      14.036   7.503  21.985  0.00  0.00    -0.268 OA
ATOM      4  N   UNL     1      13.704   8.533  19.907  0.00  0.00    -0.290 N 
ATOM      8  C   UNL     1      13.123   9.127  17.493  0.00  0.00    +0.218 C 
ATOM      9  C   UNL     1      14.185   8.783  18.542  0.00  0.00    +0.155 C 
ATOM     10  C   UNL     1      12.403   9.077  20.297  0.00  0.00    +0.136 C 
ATOM     11  C   UNL     1      11.957   8.142  17.473  0.00  0.00    +0.206 C 
ATOM     12  C   UNL     1      11.266   8.213  19.768  0.00  0.00    +0.179 C 
ATOM     13  C   UNL     1      14.415   7.765  20.844  0.00  0.00    +0.267 C 
ENDROOT
BRANCH  13  15
ATOM      6  N   UNL     1      15.724   6.317  19.449  0.00  0.00    -0.247 NA
ATOM      7  N   UNL     1      18.086   7.110  20.733  0.00  0.00    -0.259 NA
ATOM     15  C   UNL     1      15.723   7.217  20.452  0.00  0.00    +0.144 A 
ATOM     17  C   UNL     1      16.884   7.606  21.082  0.00  0.00    +0.143 A 
ATOM     22  C   UNL     1      16.927   5.820  19.099  0.00  0.00    +0.131 A 
ATOM     23  C   UNL     1      18.088   6.210  19.730  0.00  0.00    +0.130 A 
ENDBRANCH  13  15
BRANCH   8   2
ATOM      2  O   UNL     1      13.777   9.100  16.223  0.00  0.00    -0.469 OA
BRANCH   2  14
ATOM      5  N   UNL     1      13.106  10.703  14.688  0.00  0.00    -0.218 NA
ATOM     14  C   UNL     1      13.999  10.309  15.624  0.00  0.00    +0.215 A 
ATOM     16  C   UNL     1      15.108  11.050  15.999  0.00  0.00    +0.067 A 
ATOM     18  C   UNL     1      13.338  11.900  14.104  0.00  0.00    +0.042 A 
ATOM     19  C   UNL     1      15.313  12.275  15.374  0.00  0.00    +0.007 A 
ATOM     20  C   UNL     1      14.416  12.716  14.407  0.00  0.00    +0.023 A 
ATOM     21  C   UNL     1      12.357  12.338  13.069  0.00  0.00    +0.066 C 
ENDBRANCH   2  14
ENDBRANCH   8   2
TORSDOF 3
ENDMDL
MODEL 5
REMARK VINA RESULT:      -5.8      2.310      2.801
REMARK  Name = 75536855
REMARK  4 active torsions:
REMARK  status: ('A' for Active; 'I' for Inactive)
REMARK    1  A    between atoms: O_2  and  C_8
REMARK    2  A    between atoms: O_2  and  C_14
REMARK    3  A    between atoms: C_13  and  C_15
REMARK    4  A    between atoms: C_18  and  C_21
REMARK                            x       y       z     vdW  Elec       q    Type
REMARK                         _______ _______ _______ _____ _____    ______ ____
ROOT
ATOM      1  O   UNL     1      13.235   8.154  16.448  0.00  0.00    -0.375 OA
ATOM      3  O   UNL     1      13.168  12.604  18.318  0.00  0.00    -0.268 OA
ATOM      4  N   UNL     1      14.132  10.469  18.361  0.00  0.00    -0.290 N 
ATOM      8  C   UNL     1      14.620   7.965  18.447  0.00  0.00    +0.218 C 
ATOM      9  C   UNL     1      14.608   9.326  19.149  0.00  0.00    +0.155 C 
ATOM     10  C   UNL     1      14.169  10.371  16.902  0.00  0.00    +0.136 C 
ATOM     11  C   UNL     1      13.295   7.627  17.770  0.00  0.00    +0.206 C 
ATOM     12  C   UNL     1      12.995   9.556  16.377  0.00  0.00    +0.179 C 
ATOM     13  C   UNL     1      13.607  11.637  18.938  0.00  0.00    +0.267 C 
ENDROOT
BRANCH  13  15
ATOM      6  N   UNL     1      12.468  11.253  21.015  0.00  0.00    -0.247 NA
ATOM      7  N   UNL     1      14.584  12.394  22.459  0.00  0.00    -0.259 NA
ATOM     15  C   UNL     1      13.569  11.735  20.406  0.00  0.00    +0.144 A 
ATOM     17  C   UNL     1      14.608  12.296  21.116  0.00  0.00    +0.143 A 
ATOM     22  C   UNL     1      12.444  11.350  22.360  0.00  0.00    +0.131 A 
ATOM     23  C   UNL     1      13.483  11.911  23.069  0.00  0.00    +0.130 A 
ENDBRANCH  13  15
BRANCH   8   2
ATOM      2  O   UNL     1      14.892   6.986  19.452  0.00  0.00    -0.469 OA
BRANCH   2  14
ATOM      5  N   UNL     1      16.813   7.445  20.666  0.00  0.00    -0.218 NA
ATOM     14  C   UNL     1      16.209   6.716  19.701  0.00  0.00    +0.215 A 
ATOM     16  C   UNL     1      16.843   5.729  18.964  0.00  0.00    +0.067 A 
ATOM     18  C   UNL     1      18.115   7.169  20.902  0.00  0.00    +0.042 A 
ATOM     19  C   UNL     1      18.183   5.474  19.234  0.00  0.00    +0.007 A 
ATOM     20  C   UNL     1      18.838   6.203  20.220  0.00  0.00    +0.023 A 
ATOM     21  C   UNL     1      18.787   7.973  21.964  0.00  0.00    +0.066 C 
ENDBRANCH   2  14
ENDBRANCH   8   2
TORSDOF 3
ENDMDL
MODEL 6
REMARK VINA RESULT:      -5.7      2.570      5.589
REMARK  Name = 75536855
REMARK  4 active torsions:
REMARK  status: ('A' for Active; 'I' for Inactive)
REMARK    1  A    between atoms: O_2  and  C_8
REMARK    2  A    between atoms: O_2  and  C_14
REMARK    3  A    between atoms: C_13  and  C_15
REMARK    4  A    between atoms: C_18  and  C_21
REMARK                            x       y       z     vdW  Elec       q    Type
REMARK                         _______ _______ _______ _____ _____    ______ ____
ROOT
ATOM      1  O   UNL     1      16.861   5.599  18.962  0.00  0.00    -0.375 OA
ATOM      3  O   UNL     1      18.981   8.821  21.866  0.00  0.00    -0.268 OA
ATOM      4  N   UNL     1      16.971   7.922  21.063  0.00  0.00    -0.290 N 
ATOM      8  C   UNL     1      15.026   7.047  19.661  0.00  0.00    +0.218 C 
ATOM      9  C   UNL     1      15.617   8.149  20.545  0.00  0.00    +0.155 C 
ATOM     10  C   UNL     1      17.467   6.547  21.136  0.00  0.00    +0.136 C 
ATOM     11  C   UNL     1      15.960   6.616  18.533  0.00  0.00    +0.206 C 
ATOM     12  C   UNL     1      17.937   6.061  19.772  0.00  0.00    +0.179 C 
ATOM     13  C   UNL     1      17.830   8.962  21.457  0.00  0.00    +0.267 C 
ENDROOT
BRANCH  13  15
ATOM      6  N   UNL     1      16.375  10.690  22.268  0.00  0.00    -0.247 NA
ATOM      7  N   UNL     1      17.368  12.503  20.374  0.00  0.00    -0.259 NA
ATOM     15  C   UNL     1      17.332  10.345  21.383  0.00  0.00    +0.144 A 
ATOM     17  C   UNL     1      17.819  11.236  20.452  0.00  0.00    +0.143 A 
ATOM     22  C   UNL     1      15.925  11.958  22.189  0.00  0.00    +0.131 A 
ATOM     23  C   UNL     1      16.413  12.849  21.259  0.00  0.00    +0.130 A 
ENDBRANCH  13  15
BRANCH   8   2
ATOM      2  O   UNL     1      13.825   7.574  19.094  0.00  0.00    -0.469 OA
BRANCH   2  14
ATOM      5  N   UNL     1      12.357   6.402  20.454  0.00  0.00    -0.218 NA
ATOM     14  C   UNL     1      12.721   7.582  19.901  0.00  0.00    +0.215 A 
ATOM     16  C   UNL     1      12.045   8.774  20.103  0.00  0.00    +0.067 A 
ATOM     18  C   UNL     1      11.264   6.423  21.249  0.00  0.00    +0.042 A 
ATOM     19  C   UNL     1      10.924   8.755  20.926  0.00  0.00    +0.007 A 
ATOM     20  C   UNL     1      10.520   7.562  21.513  0.00  0.00    +0.023 A 
ATOM     21  C   UNL     1      10.857   5.125  21.860  0.00  0.00    +0.066 C 
ENDBRANCH   2  14
ENDBRANCH   8   2
TORSDOF 3
ENDMDL
MODEL 7
REMARK VINA RESULT:      -5.7     26.922     29.884
REMARK  Name = 75536855
REMARK  4 active torsions:
REMARK  status: ('A' for Active; 'I' for Inactive)
REMARK    1  A    between atoms: O_2  and  C_8
REMARK    2  A    between atoms: O_2  and  C_14
REMARK    3  A    between atoms: C_13  and  C_15
REMARK    4  A    between atoms: C_18  and  C_21
REMARK                            x       y       z     vdW  Elec       q    Type
REMARK                         _______ _______ _______ _____ _____    ______ ____
ROOT
ATOM      1  O   UNL     1      -8.431 -11.245  19.122  0.00  0.00    -0.375 OA
ATOM      3  O   UNL     1      -3.651 -11.901  18.952  0.00  0.00    -0.268 OA
ATOM      4  N   UNL     1      -5.498 -10.692  18.165  0.00  0.00    -0.290 N 
ATOM      8  C   UNL     1      -7.730  -9.913  17.202  0.00  0.00    +0.218 C 
ATOM      9  C   UNL     1      -6.221 -10.109  17.028  0.00  0.00    +0.155 C 
ATOM     10  C   UNL     1      -6.100 -10.597  19.495  0.00  0.00    +0.136 C 
ATOM     11  C   UNL     1      -8.445 -11.166  17.699  0.00  0.00    +0.206 C 
ATOM     12  C   UNL     1      -7.186 -11.648  19.682  0.00  0.00    +0.179 C 
ATOM     13  C   UNL     1      -4.274 -11.370  18.034  0.00  0.00    +0.267 C 
ENDROOT
BRANCH  13  15
ATOM      6  N   UNL     1      -4.120 -12.455  15.899  0.00  0.00    -0.247 NA
ATOM      7  N   UNL     1      -2.126 -10.670  15.065  0.00  0.00    -0.259 NA
ATOM     15  C   UNL     1      -3.669 -11.467  16.696  0.00  0.00    +0.144 A 
ATOM     17  C   UNL     1      -2.689 -10.590  16.286  0.00  0.00    +0.143 A 
ATOM     22  C   UNL     1      -3.557 -12.535  14.677  0.00  0.00    +0.131 A 
ATOM     23  C   UNL     1      -2.577 -11.658  14.267  0.00  0.00    +0.130 A 
ENDBRANCH  13  15
BRANCH   8   2
ATOM      2  O   UNL     1      -8.249  -9.560  15.918  0.00  0.00    -0.469 OA
BRANCH   2  14
ATOM      5  N   UNL     1     -10.161  -8.861  14.810  0.00  0.00    -0.218 NA
ATOM     14  C   UNL     1      -9.375  -8.784  15.907  0.00  0.00    +0.215 A 
ATOM     16  C   UNL     1      -9.644  -7.975  16.999  0.00  0.00    +0.067 A 
ATOM     18  C   UNL     1     -11.270  -8.088  14.811  0.00  0.00    +0.042 A 
ATOM     19  C   UNL     1     -10.794  -7.194  16.963  0.00  0.00    +0.007 A 
ATOM     20  C   UNL     1     -11.628  -7.246  15.852  0.00  0.00    +0.023 A 
ATOM     21  C   UNL     1     -12.140  -8.167  13.601  0.00  0.00    +0.066 C 
ENDBRANCH   2  14
ENDBRANCH   8   2
TORSDOF 3
ENDMDL
MODEL 8
REMARK VINA RESULT:      -5.7     15.559     18.224
REMARK  Name = 75536855
REMARK  4 active torsions:
REMARK  status: ('A' for Active; 'I' for Inactive)
REMARK    1  A    between atoms: O_2  and  C_8
REMARK    2  A    between atoms: O_2  and  C_14
REMARK    3  A    between atoms: C_13  and  C_15
REMARK    4  A    between atoms: C_18  and  C_21
REMARK                            x       y       z     vdW  Elec       q    Type
REMARK                         _______ _______ _______ _____ _____    ______ ____
ROOT
ATOM      1  O   UNL     1      15.010   9.215   5.897  0.00  0.00    -0.375 OA
ATOM      3  O   UNL     1      14.390   7.853   1.308  0.00  0.00    -0.268 OA
ATOM      4  N   UNL     1      13.576   7.787   3.504  0.00  0.00    -0.290 N 
ATOM      8  C   UNL     1      13.240   7.541   6.022  0.00  0.00    +0.218 C 
ATOM      9  C   UNL     1      13.014   7.000   4.608  0.00  0.00    +0.155 C 
ATOM     10  C   UNL     1      13.862   9.203   3.735  0.00  0.00    +0.136 C 
ATOM     11  C   UNL     1      14.699   7.887   6.307  0.00  0.00    +0.206 C 
ATOM     12  C   UNL     1      15.171   9.382   4.492  0.00  0.00    +0.179 C 
ATOM     13  C   UNL     1      13.889   7.239   2.248  0.00  0.00    +0.267 C 
ENDROOT
BRANCH  13  15
ATOM      6  N   UNL     1      12.302   5.469   1.925  0.00  0.00    -0.247 NA
ATOM      7  N   UNL     1      14.362   3.580   1.693  0.00  0.00    -0.259 NA
ATOM     15  C   UNL     1      13.602   5.815   2.016  0.00  0.00    +0.144 A 
ATOM     17  C   UNL     1      14.613   4.887   1.902  0.00  0.00    +0.143 A 
ATOM     22  C   UNL     1      12.051   4.161   1.715  0.00  0.00    +0.131 A 
ATOM     23  C   UNL     1      13.063   3.233   1.600  0.00  0.00    +0.130 A 
ENDBRANCH  13  15
BRANCH   8   2
ATOM      2  O   UNL     1      12.820   6.518   6.926  0.00  0.00    -0.469 OA
BRANCH   2  14
ATOM      5  N   UNL     1      11.080   5.568   8.129  0.00  0.00    -0.218 NA
ATOM     14  C   UNL     1      11.541   6.611   7.403  0.00  0.00    +0.215 A 
ATOM     16  C   UNL     1      10.800   7.747   7.120  0.00  0.00    +0.067 A 
ATOM     18  C   UNL     1       9.815   5.672   8.593  0.00  0.00    +0.042 A 
ATOM     19  C   UNL     1       9.502   7.816   7.614  0.00  0.00    +0.007 A 
ATOM     20  C   UNL     1       8.992   6.764   8.365  0.00  0.00    +0.023 A 
ATOM     21  C   UNL     1       9.300   4.522   9.393  0.00  0.00    +0.066 C 
ENDBRANCH   2  14
ENDBRANCH   8   2
TORSDOF 3
ENDMDL
MODEL 9
REMARK VINA RESULT:      -5.7      3.804      5.117
REMARK  Name = 75536855
REMARK  4 active torsions:
REMARK  status: ('A' for Active; 'I' for Inactive)
REMARK    1  A    between atoms: O_2  and  C_8
REMARK    2  A    between atoms: O_2  and  C_14
REMARK    3  A    between atoms: C_13  and  C_15
REMARK    4  A    between atoms: C_18  and  C_21
REMARK                            x       y       z     vdW  Elec       q    Type
REMARK                         _______ _______ _______ _____ _____    ______ ____
ROOT
ATOM      1  O   UNL     1      11.406   8.455  19.824  0.00  0.00    -0.375 OA
ATOM      3  O   UNL     1      12.214   9.473  15.176  0.00  0.00    -0.268 OA
ATOM      4  N   UNL     1      13.135   8.868  17.243  0.00  0.00    -0.290 N 
ATOM      8  C   UNL     1      13.833   8.675  19.691  0.00  0.00    +0.218 C 
ATOM      9  C   UNL     1      14.184   9.063  18.252  0.00  0.00    +0.155 C 
ATOM     10  C   UNL     1      12.063   7.914  17.529  0.00  0.00    +0.136 C 
ATOM     11  C   UNL     1      12.515   9.279  20.172  0.00  0.00    +0.206 C 
ATOM     12  C   UNL     1      11.020   8.524  18.456  0.00  0.00    +0.179 C 
ATOM     13  C   UNL     1      13.089   9.581  16.033  0.00  0.00    +0.267 C 
ENDROOT
BRANCH  13  15
ATOM      6  N   UNL     1      15.042  10.194  14.781  0.00  0.00    -0.247 NA
ATOM      7  N   UNL     1      15.258  12.613  16.182  0.00  0.00    -0.259 NA
ATOM     15  C   UNL     1      14.167  10.540  15.746  0.00  0.00    +0.144 A 
ATOM     17  C   UNL     1      14.274  11.729  16.434  0.00  0.00    +0.143 A 
ATOM     22  C   UNL     1      16.026  11.080  14.528  0.00  0.00    +0.131 A 
ATOM     23  C   UNL     1      16.133  12.268  15.216  0.00  0.00    +0.130 A 
ENDBRANCH  13  15
BRANCH   8   2
ATOM      2  O   UNL     1      14.894   9.157  20.518  0.00  0.00    -0.469 OA
BRANCH   2  14
ATOM      5  N   UNL     1      17.129   8.920  21.086  0.00  0.00    -0.218 NA
ATOM     14  C   UNL     1      15.988   8.346  20.641  0.00  0.00    +0.215 A 
ATOM     16  C   UNL     1      15.873   7.006  20.307  0.00  0.00    +0.067 A 
ATOM     18  C   UNL     1      18.204   8.108  21.201  0.00  0.00    +0.042 A 
ATOM     19  C   UNL     1      17.001   6.204  20.439  0.00  0.00    +0.007 A 
ATOM     20  C   UNL     1      18.192   6.757  20.893  0.00  0.00    +0.023 A 
ATOM     21  C   UNL     1      19.466   8.737  21.689  0.00  0.00    +0.066 C 
ENDBRANCH   2  14
ENDBRANCH   8   2
TORSDOF 3
ENDMDL
MODEL 10
REMARK VINA RESULT:      -5.4      3.107      4.256
REMARK  Name = 75536855
REMARK  4 active torsions:
REMARK  status: ('A' for Active; 'I' for Inactive)
REMARK    1  A    between atoms: O_2  and  C_8
REMARK    2  A    between atoms: O_2  and  C_14
REMARK    3  A    between atoms: C_13  and  C_15
REMARK    4  A    between atoms: C_18  and  C_21
REMARK                            x       y       z     vdW  Elec       q    Type
REMARK                         _______ _______ _______ _____ _____    ______ ____
ROOT
ATOM      1  O   UNL     1      12.960   6.590  20.469  0.00  0.00    -0.375 OA
ATOM      3  O   UNL     1      10.069   9.540  22.967  0.00  0.00    -0.268 OA
ATOM      4  N   UNL     1      11.507   9.286  21.135  0.00  0.00    -0.290 N 
ATOM      8  C   UNL     1      13.444   8.796  19.546  0.00  0.00    +0.218 C 
ATOM      9  C   UNL     1      12.611   9.817  20.326  0.00  0.00    +0.155 C 
ATOM     10  C   UNL     1      10.965   7.971  20.793  0.00  0.00    +0.136 C 
ATOM     11  C   UNL     1      13.929   7.632  20.408  0.00  0.00    +0.206 C 
ATOM     12  C   UNL     1      11.854   6.855  21.326  0.00  0.00    +0.179 C 
ATOM     13  C   UNL     1      10.970   9.961  22.244  0.00  0.00    +0.267 C 
ENDROOT
BRANCH  13  15
ATOM      6  N   UNL     1      10.972  12.344  21.957  0.00  0.00    -0.247 NA
ATOM      7  N   UNL     1      13.043  12.631  23.825  0.00  0.00    -0.259 NA
ATOM     15  C   UNL     1      11.516  11.284  22.587  0.00  0.00    +0.144 A 
ATOM     17  C   UNL     1      12.534  11.426  23.505  0.00  0.00    +0.143 A 
ATOM     22  C   UNL     1      11.481  13.550  22.278  0.00  0.00    +0.131 A 
ATOM     23  C   UNL     1      12.499  13.691  23.196  0.00  0.00    +0.130 A 
ENDBRANCH  13  15
BRANCH   8   2
ATOM      2  O   UNL     1      14.578   9.497  19.031  0.00  0.00    -0.469 OA
BRANCH   2  14
ATOM      5  N   UNL     1      15.177  11.144  17.513  0.00  0.00    -0.218 NA
ATOM     14  C   UNL     1      14.445  10.039  17.783  0.00  0.00    +0.215 A 
ATOM     16  C   UNL     1      13.583   9.440  16.878  0.00  0.00    +0.067 A 
ATOM     18  C   UNL     1      15.036  11.671  16.277  0.00  0.00    +0.042 A 
ATOM     19  C   UNL     1      13.464  10.012  15.617  0.00  0.00    +0.007 A 
ATOM     20  C   UNL     1      14.201  11.148  15.302  0.00  0.00    +0.023 A 
ATOM     21  C   UNL     1      15.839  12.891  15.975  0.00  0.00    +0.066 C 
ENDBRANCH   2  14
ENDBRANCH   8   2
TORSDOF 3
ENDMDL
