REMARK  Name = 38029028
REMARK  11 active torsions:
REMARK  status: ('A' for Active; 'I' for Inactive)
REMARK    1  A    between atoms: O_3  and  C_29
REMARK    2  A    between atoms: O_3  and  C_37
REMARK    3  A    between atoms: N_4  and  C_16
REMARK    4  A    between atoms: C_8  and  C_12
REMARK    5  A    between atoms: C_9  and  C_16
REMARK    6  A    between atoms: C_11  and  C_15
REMARK    7  A    between atoms: C_12  and  C_17
REMARK    8  A    between atoms: C_12  and  C_18
REMARK    9  A    between atoms: C_13  and  C_19
REMARK   10  A    between atoms: C_15  and  C_20
REMARK   11  A    between atoms: C_25  and  C_27
REMARK                            x       y       z     vdW  Elec       q    Type
REMARK                         _______ _______ _______ _____ _____    ______ ____
ROOT
ATOM      8  C   UNL     1      -3.068  -0.910  -1.122  0.00  0.00    +0.000 C 
ATOM      9  C   UNL     1      -4.315  -0.081  -0.726  0.00  0.00    +0.032 C 
ATOM     10  C   UNL     1      -3.073  -2.265  -0.397  0.00  0.00    +0.012 C 
ATOM     11  C   UNL     1      -3.086  -2.105   1.135  0.00  0.00    +0.023 C 
ATOM     13  C   UNL     1      -4.119  -1.093   1.587  0.00  0.00    -0.073 C 
ATOM     14  C   UNL     1      -4.667  -0.204   0.738  0.00  0.00    -0.022 C 
ATOM     19  C   UNL     1      -4.542  -1.153   3.028  0.00  0.00    +0.039 C 
ENDROOT
BRANCH   8  12
ATOM     12  C   UNL     1      -2.990  -1.133  -2.636  0.00  0.00    -0.013 C 
ATOM     17  C   UNL     1      -1.548  -1.390  -3.063  0.00  0.00    +0.007 C 
ATOM     18  C   UNL     1      -3.892  -2.291  -3.050  0.00  0.00    +0.007 C 
ENDBRANCH   8  12
BRANCH  11  15
ATOM     15  C   UNL     1      -1.694  -1.744   1.665  0.00  0.00    +0.103 C 
BRANCH  15  20
ATOM      1  O   UNL     1      -1.039  -3.932   1.014  0.00  0.00    -0.276 OA
ATOM      5  N   UNL     1       0.616  -2.300   1.003  0.00  0.00    -0.298 N 
ATOM      6  N   UNL     1       3.292  -1.402   0.361  0.00  0.00    -0.312 N 
ATOM      7  N   UNL     1       5.332  -0.384   0.976  0.00  0.00    -0.240 NA
ATOM     20  C   UNL     1      -0.686  -2.764   1.197  0.00  0.00    +0.216 C 
ATOM     21  C   UNL     1       1.651  -3.228   0.555  0.00  0.00    +0.126 C 
ATOM     22  C   UNL     1       1.031  -0.911   1.210  0.00  0.00    +0.126 C 
ATOM     23  C   UNL     1       2.687  -2.542  -0.334  0.00  0.00    +0.125 C 
ATOM     24  C   UNL     1       2.535  -0.772   1.445  0.00  0.00    +0.125 C 
ATOM     26  C   UNL     1       4.567  -0.957   0.020  0.00  0.00    +0.121 A 
ATOM     28  C   UNL     1       4.970  -1.134  -1.294  0.00  0.00    +0.043 A 
ATOM     31  C   UNL     1       6.240  -0.694  -1.650  0.00  0.00    +0.005 A 
ATOM     33  C   UNL     1       6.560   0.031   0.593  0.00  0.00    +0.113 A 
ATOM     35  C   UNL     1       7.057  -0.100  -0.694  0.00  0.00    +0.020 A 
ENDBRANCH  15  20
ENDBRANCH  11  15
BRANCH   9  16
ATOM     16  C   UNL     1      -4.131   1.399  -1.084  0.00  0.00    +0.112 C 
BRANCH  16   4
ATOM      2  O   UNL     1      -1.723   2.606  -2.076  0.00  0.00    -0.270 OA
ATOM      4  N   UNL     1      -3.086   1.983  -0.304  0.00  0.00    -0.311 N 
ATOM     25  C   UNL     1      -1.944   2.551  -0.870  0.00  0.00    +0.248 C 
ATOM     38  H   UNL     1      -3.196   1.967   0.704  0.00  0.00    +0.149 HD
BRANCH  25  27
ATOM     27  C   UNL     1      -0.938   3.094   0.079  0.00  0.00    +0.078 A 
ATOM     29  C   UNL     1       0.419   3.104  -0.246  0.00  0.00    +0.132 A 
ATOM     30  C   UNL     1      -1.365   3.595   1.308  0.00  0.00    +0.017 A 
ATOM     32  C   UNL     1       1.348   3.617   0.659  0.00  0.00    +0.046 A 
ATOM     34  C   UNL     1      -0.435   4.108   2.213  0.00  0.00    +0.001 A 
ATOM     36  C   UNL     1       0.921   4.119   1.889  0.00  0.00    +0.004 A 
BRANCH  29   3
ATOM      3  O   UNL     1       0.856   2.616  -1.441  0.00  0.00    -0.494 OA
ATOM     37  C   UNL     1       2.260   2.668  -1.686  0.00  0.00    +0.277 C 
ENDBRANCH  29   3
ENDBRANCH  25  27
ENDBRANCH  16   4
ENDBRANCH   9  16
TORSDOF 7
