MODEL 1
REMARK VINA RESULT:      -6.6      0.000      0.000
REMARK  Name = 11941407
REMARK  7 active torsions:
REMARK  status: ('A' for Active; 'I' for Inactive)
REMARK    1  A    between atoms: S_1  and  C_21
REMARK    2  A    between atoms: S_1  and  C_28
REMARK    3  A    between atoms: S_2  and  C_29
REMARK    4  A    between atoms: S_2  and  C_30
REMARK    5  A    between atoms: N_7  and  C_9
REMARK    6  A    between atoms: C_17  and  C_21
REMARK    7  A    between atoms: C_20  and  C_23
REMARK                            x       y       z     vdW  Elec       q    Type
REMARK                         _______ _______ _______ _____ _____    ______ ____
ROOT
ATOM      3  O   UNL     1      -0.660 -11.064  15.257  0.00  0.00    -0.273 OA
ATOM      4  O   UNL     1      -5.728  -9.756  14.660  0.00  0.00    -0.270 OA
ATOM      6  N   UNL     1      -3.771 -10.867  14.190  0.00  0.00    -0.284 N 
ATOM      8  N   UNL     1      -2.366 -11.094  16.765  0.00  0.00    -0.283 N 
ATOM      9  C   UNL     1      -2.119 -12.180  13.120  0.00  0.00    +0.104 C 
ATOM     10  C   UNL     1      -2.784 -11.892  14.474  0.00  0.00    +0.183 C 
ATOM     11  C   UNL     1      -2.294 -10.870  12.351  0.00  0.00    +0.043 C 
ATOM     12  C   UNL     1      -3.643 -10.358  12.831  0.00  0.00    +0.111 C 
ATOM     13  C   UNL     1      -1.847 -11.284  15.501  0.00  0.00    +0.240 C 
ATOM     14  C   UNL     1      -4.822 -10.513  15.008  0.00  0.00    +0.249 C 
ATOM     15  C   UNL     1      -4.846 -11.056  16.391  0.00  0.00    +0.059 A 
ATOM     16  C   UNL     1      -3.705 -11.224  17.195  0.00  0.00    +0.046 A 
ATOM     18  C   UNL     1      -6.121 -11.242  16.953  0.00  0.00    +0.023 A 
ATOM     19  C   UNL     1      -3.876 -11.511  18.560  0.00  0.00    +0.024 A 
ATOM     20  C   UNL     1      -6.268 -11.573  18.300  0.00  0.00    -0.017 A 
ATOM     22  C   UNL     1      -5.145 -11.696  19.107  0.00  0.00    +0.010 A 
ATOM     32  H   UNL     1      -1.681 -10.915  17.495  0.00  0.00    +0.155 HD
ENDROOT
BRANCH  20  23
ATOM     23  C   UNL     1      -7.588 -11.766  18.859  0.00  0.00    -0.018 A 
ATOM     24  C   UNL     1      -8.561 -10.778  18.708  0.00  0.00    +0.009 A 
ATOM     25  C   UNL     1      -7.889 -12.940  19.550  0.00  0.00    +0.009 A 
ATOM     26  C   UNL     1      -9.834 -10.963  19.246  0.00  0.00    +0.015 A 
ATOM     27  C   UNL     1      -9.162 -13.125  20.090  0.00  0.00    +0.015 A 
ATOM     29  C   UNL     1     -10.135 -12.137  19.938  0.00  0.00    +0.008 A 
BRANCH  29   2
ATOM      2  S   UNL     1     -11.761 -12.373  20.628  0.00  0.00    -0.129 S 
ATOM     30  C   UNL     1     -11.493 -13.793  21.725  0.00  0.00    +0.090 C 
ENDBRANCH  29   2
ENDBRANCH  20  23
BRANCH   9   7
ATOM      5  O   UNL     1      -1.333 -14.965  13.118  0.00  0.00    -0.275 OA
ATOM      7  N   UNL     1      -2.778 -13.275  12.444  0.00  0.00    -0.309 N 
ATOM     17  C   UNL     1      -2.325 -14.582  12.500  0.00  0.00    +0.223 C 
ATOM     31  H   UNL     1      -3.573 -13.052  11.852  0.00  0.00    +0.149 HD
BRANCH  17  21
ATOM     21  C   UNL     1      -3.176 -15.536  11.694  0.00  0.00    +0.164 C 
BRANCH  21   1
ATOM      1  S   UNL     1      -3.640 -16.936  12.741  0.00  0.00    -0.155 S 
ATOM     28  C   UNL     1      -4.677 -16.051  13.929  0.00  0.00    +0.085 C 
ENDBRANCH  21   1
ENDBRANCH  17  21
ENDBRANCH   9   7
TORSDOF 5
ENDMDL
MODEL 2
REMARK VINA RESULT:      -6.4      3.995      8.879
REMARK  Name = 11941407
REMARK  7 active torsions:
REMARK  status: ('A' for Active; 'I' for Inactive)
REMARK    1  A    between atoms: S_1  and  C_21
REMARK    2  A    between atoms: S_1  and  C_28
REMARK    3  A    between atoms: S_2  and  C_29
REMARK    4  A    between atoms: S_2  and  C_30
REMARK    5  A    between atoms: N_7  and  C_9
REMARK    6  A    between atoms: C_17  and  C_21
REMARK    7  A    between atoms: C_20  and  C_23
REMARK                            x       y       z     vdW  Elec       q    Type
REMARK                         _______ _______ _______ _____ _____    ______ ____
ROOT
ATOM      3  O   UNL     1      -1.970 -10.716  16.705  0.00  0.00    -0.273 OA
ATOM      4  O   UNL     1      -4.628 -13.805  13.366  0.00  0.00    -0.270 OA
ATOM      6  N   UNL     1      -4.346 -12.401  15.166  0.00  0.00    -0.284 N 
ATOM      8  N   UNL     1      -2.108 -10.637  14.433  0.00  0.00    -0.283 N 
ATOM      9  C   UNL     1      -4.710 -11.187  17.163  0.00  0.00    +0.104 C 
ATOM     10  C   UNL     1      -4.147 -11.083  15.738  0.00  0.00    +0.183 C 
ATOM     11  C   UNL     1      -4.558 -12.671  17.499  0.00  0.00    +0.043 C 
ATOM     12  C   UNL     1      -4.798 -13.360  16.164  0.00  0.00    +0.111 C 
ATOM     13  C   UNL     1      -2.651 -10.836  15.686  0.00  0.00    +0.240 C 
ATOM     14  C   UNL     1      -4.294 -12.712  13.824  0.00  0.00    +0.249 C 
ATOM     15  C   UNL     1      -3.783 -11.679  12.885  0.00  0.00    +0.059 A 
ATOM     16  C   UNL     1      -2.720 -10.806  13.172  0.00  0.00    +0.046 A 
ATOM     18  C   UNL     1      -4.310 -11.722  11.583  0.00  0.00    +0.023 A 
ATOM     19  C   UNL     1      -2.168 -10.045  12.126  0.00  0.00    +0.024 A 
ATOM     20  C   UNL     1      -3.779 -10.925  10.569  0.00  0.00    -0.017 A 
ATOM     22  C   UNL     1      -2.699 -10.094  10.838  0.00  0.00    +0.010 A 
ATOM     32  H   UNL     1      -1.170 -10.243  14.422  0.00  0.00    +0.155 HD
ENDROOT
BRANCH  20  23
ATOM     23  C   UNL     1      -4.338 -10.979   9.236  0.00  0.00    -0.018 A 
ATOM     24  C   UNL     1      -4.957  -9.853   8.693  0.00  0.00    +0.009 A 
ATOM     25  C   UNL     1      -4.256 -12.157   8.492  0.00  0.00    +0.009 A 
ATOM     26  C   UNL     1      -5.495  -9.905   7.407  0.00  0.00    +0.015 A 
ATOM     27  C   UNL     1      -4.795 -12.208   7.206  0.00  0.00    +0.015 A 
ATOM     29  C   UNL     1      -5.415 -11.082   6.664  0.00  0.00    +0.008 A 
BRANCH  29   2
ATOM      2  S   UNL     1      -6.103 -11.148   5.021  0.00  0.00    -0.129 S 
ATOM     30  C   UNL     1      -6.987  -9.566   4.928  0.00  0.00    +0.090 C 
ENDBRANCH  29   2
ENDBRANCH  20  23
BRANCH   9   7
ATOM      5  O   UNL     1      -6.219 -10.316  19.474  0.00  0.00    -0.275 OA
ATOM      7  N   UNL     1      -6.097 -10.782  17.201  0.00  0.00    -0.309 N 
ATOM     17  C   UNL     1      -6.737 -10.379  18.361  0.00  0.00    +0.223 C 
ATOM     31  H   UNL     1      -6.634 -10.859  16.341  0.00  0.00    +0.149 HD
BRANCH  17  21
ATOM     21  C   UNL     1      -8.189 -10.025  18.140  0.00  0.00    +0.164 C 
BRANCH  21   1
ATOM      1  S   UNL     1      -8.347  -9.158  16.560  0.00  0.00    -0.155 S 
ATOM     28  C   UNL     1      -9.682  -8.023  17.008  0.00  0.00    +0.085 C 
ENDBRANCH  21   1
ENDBRANCH  17  21
ENDBRANCH   9   7
TORSDOF 5
ENDMDL
MODEL 3
REMARK VINA RESULT:      -6.3      6.687     10.037
REMARK  Name = 11941407
REMARK  7 active torsions:
REMARK  status: ('A' for Active; 'I' for Inactive)
REMARK    1  A    between atoms: S_1  and  C_21
REMARK    2  A    between atoms: S_1  and  C_28
REMARK    3  A    between atoms: S_2  and  C_29
REMARK    4  A    between atoms: S_2  and  C_30
REMARK    5  A    between atoms: N_7  and  C_9
REMARK    6  A    between atoms: C_17  and  C_21
REMARK    7  A    between atoms: C_20  and  C_23
REMARK                            x       y       z     vdW  Elec       q    Type
REMARK                         _______ _______ _______ _____ _____    ______ ____
ROOT
ATOM      3  O   UNL     1     -13.633  -7.222  16.302  0.00  0.00    -0.273 OA
ATOM      4  O   UNL     1     -10.669 -10.307  13.228  0.00  0.00    -0.270 OA
ATOM      6  N   UNL     1     -11.904  -8.447  13.780  0.00  0.00    -0.284 N 
ATOM      8  N   UNL     1     -11.583  -8.135  16.688  0.00  0.00    -0.283 N 
ATOM      9  C   UNL     1     -13.119  -6.422  13.650  0.00  0.00    +0.104 C 
ATOM     10  C   UNL     1     -12.067  -7.182  14.471  0.00  0.00    +0.183 C 
ATOM     11  C   UNL     1     -13.931  -7.538  12.992  0.00  0.00    +0.043 C 
ATOM     12  C   UNL     1     -12.895  -8.619  12.727  0.00  0.00    +0.111 C 
ATOM     13  C   UNL     1     -12.523  -7.538  15.874  0.00  0.00    +0.240 C 
ATOM     14  C   UNL     1     -10.856  -9.326  13.948  0.00  0.00    +0.249 C 
ATOM     15  C   UNL     1      -9.916  -9.088  15.075  0.00  0.00    +0.059 A 
ATOM     16  C   UNL     1     -10.303  -8.624  16.343  0.00  0.00    +0.046 A 
ATOM     18  C   UNL     1      -8.595  -9.524  14.872  0.00  0.00    +0.023 A 
ATOM     19  C   UNL     1      -9.372  -8.672  17.395  0.00  0.00    +0.024 A 
ATOM     20  C   UNL     1      -7.672  -9.520  15.917  0.00  0.00    -0.017 A 
ATOM     22  C   UNL     1      -8.064  -9.105  17.183  0.00  0.00    +0.010 A 
ATOM     32  H   UNL     1     -11.812  -8.152  17.679  0.00  0.00    +0.155 HD
ENDROOT
BRANCH  20  23
ATOM     23  C   UNL     1      -6.315  -9.967  15.689  0.00  0.00    -0.018 A 
ATOM     24  C   UNL     1      -5.866 -10.198  14.388  0.00  0.00    +0.009 A 
ATOM     25  C   UNL     1      -5.455 -10.168  16.769  0.00  0.00    +0.009 A 
ATOM     26  C   UNL     1      -4.559 -10.629  14.167  0.00  0.00    +0.015 A 
ATOM     27  C   UNL     1      -4.146 -10.600  16.548  0.00  0.00    +0.015 A 
ATOM     29  C   UNL     1      -3.698 -10.830  15.247  0.00  0.00    +0.008 A 
BRANCH  29   2
ATOM      2  S   UNL     1      -2.028 -11.382  14.964  0.00  0.00    -0.129 S 
ATOM     30  C   UNL     1      -1.064  -9.983  15.602  0.00  0.00    +0.090 C 
ENDBRANCH  29   2
ENDBRANCH  20  23
BRANCH   9   7
ATOM      5  O   UNL     1     -13.553  -3.592  13.228  0.00  0.00    -0.275 OA
ATOM      7  N   UNL     1     -12.490  -5.579  12.659  0.00  0.00    -0.309 N 
ATOM     17  C   UNL     1     -12.763  -4.227  12.531  0.00  0.00    +0.223 C 
ATOM     31  H   UNL     1     -11.867  -6.023  11.990  0.00  0.00    +0.149 HD
BRANCH  17  21
ATOM     21  C   UNL     1     -11.991  -3.574  11.409  0.00  0.00    +0.164 C 
BRANCH  21   1
ATOM      1  S   UNL     1     -11.922  -4.712  10.004  0.00  0.00    -0.155 S 
ATOM     28  C   UNL     1     -10.564  -3.936   9.096  0.00  0.00    +0.085 C 
ENDBRANCH  21   1
ENDBRANCH  17  21
ENDBRANCH   9   7
TORSDOF 5
ENDMDL
MODEL 4
REMARK VINA RESULT:      -6.3      4.908      9.078
REMARK  Name = 11941407
REMARK  7 active torsions:
REMARK  status: ('A' for Active; 'I' for Inactive)
REMARK    1  A    between atoms: S_1  and  C_21
REMARK    2  A    between atoms: S_1  and  C_28
REMARK    3  A    between atoms: S_2  and  C_29
REMARK    4  A    between atoms: S_2  and  C_30
REMARK    5  A    between atoms: N_7  and  C_9
REMARK    6  A    between atoms: C_17  and  C_21
REMARK    7  A    between atoms: C_20  and  C_23
REMARK                            x       y       z     vdW  Elec       q    Type
REMARK                         _______ _______ _______ _____ _____    ______ ____
ROOT
ATOM      3  O   UNL     1      -1.709 -10.879  14.573  0.00  0.00    -0.273 OA
ATOM      4  O   UNL     1      -5.557 -12.962  11.638  0.00  0.00    -0.270 OA
ATOM      6  N   UNL     1      -4.619 -11.991  13.500  0.00  0.00    -0.284 N 
ATOM      8  N   UNL     1      -2.421 -10.321  12.483  0.00  0.00    -0.283 N 
ATOM      9  C   UNL     1      -4.274 -11.188  15.698  0.00  0.00    +0.104 C 
ATOM     10  C   UNL     1      -4.093 -10.842  14.213  0.00  0.00    +0.183 C 
ATOM     11  C   UNL     1      -4.253 -12.717  15.713  0.00  0.00    +0.043 C 
ATOM     12  C   UNL     1      -4.927 -13.091  14.402  0.00  0.00    +0.111 C 
ATOM     13  C   UNL     1      -2.642 -10.725  13.783  0.00  0.00    +0.240 C 
ATOM     14  C   UNL     1      -4.962 -12.021  12.165  0.00  0.00    +0.249 C 
ATOM     15  C   UNL     1      -4.572 -10.866  11.315  0.00  0.00    +0.059 A 
ATOM     16  C   UNL     1      -3.358 -10.169  11.437  0.00  0.00    +0.046 A 
ATOM     18  C   UNL     1      -5.421 -10.593  10.228  0.00  0.00    +0.023 A 
ATOM     19  C   UNL     1      -2.995  -9.261  10.427  0.00  0.00    +0.024 A 
ATOM     20  C   UNL     1      -5.064  -9.653   9.261  0.00  0.00    -0.017 A 
ATOM     22  C   UNL     1      -3.844  -8.996   9.354  0.00  0.00    +0.010 A 
ATOM     32  H   UNL     1      -1.472 -10.017  12.276  0.00  0.00    +0.155 HD
ENDROOT
BRANCH  20  23
ATOM     23  C   UNL     1      -5.952  -9.381   8.152  0.00  0.00    -0.018 A 
ATOM     24  C   UNL     1      -5.685  -9.925   6.895  0.00  0.00    +0.009 A 
ATOM     25  C   UNL     1      -7.075  -8.575   8.339  0.00  0.00    +0.009 A 
ATOM     26  C   UNL     1      -6.541  -9.663   5.826  0.00  0.00    +0.015 A 
ATOM     27  C   UNL     1      -7.931  -8.312   7.268  0.00  0.00    +0.015 A 
ATOM     29  C   UNL     1      -7.663  -8.857   6.012  0.00  0.00    +0.008 A 
BRANCH  29   2
ATOM      2  S   UNL     1      -8.756  -8.521   4.645  0.00  0.00    -0.129 S 
ATOM     30  C   UNL     1      -9.888  -7.301   5.368  0.00  0.00    +0.090 C 
ENDBRANCH  29   2
ENDBRANCH  20  23
BRANCH   9   7
ATOM      5  O   UNL     1      -4.965 -10.616  18.450  0.00  0.00    -0.275 OA
ATOM      7  N   UNL     1      -5.531 -10.678  16.197  0.00  0.00    -0.309 N 
ATOM     17  C   UNL     1      -5.771 -10.434  17.539  0.00  0.00    +0.223 C 
ATOM     31  H   UNL     1      -6.287 -10.555  15.529  0.00  0.00    +0.149 HD
BRANCH  17  21
ATOM     21  C   UNL     1      -7.167  -9.922  17.804  0.00  0.00    +0.164 C 
BRANCH  21   1
ATOM      1  S   UNL     1      -7.984  -9.599  16.222  0.00  0.00    -0.155 S 
ATOM     28  C   UNL     1      -9.254  -8.452  16.805  0.00  0.00    +0.085 C 
ENDBRANCH  21   1
ENDBRANCH  17  21
ENDBRANCH   9   7
TORSDOF 5
ENDMDL
MODEL 5
REMARK VINA RESULT:      -6.0     27.372     28.878
REMARK  Name = 11941407
REMARK  7 active torsions:
REMARK  status: ('A' for Active; 'I' for Inactive)
REMARK    1  A    between atoms: S_1  and  C_21
REMARK    2  A    between atoms: S_1  and  C_28
REMARK    3  A    between atoms: S_2  and  C_29
REMARK    4  A    between atoms: S_2  and  C_30
REMARK    5  A    between atoms: N_7  and  C_9
REMARK    6  A    between atoms: C_17  and  C_21
REMARK    7  A    between atoms: C_20  and  C_23
REMARK                            x       y       z     vdW  Elec       q    Type
REMARK                         _______ _______ _______ _____ _____    ______ ____
ROOT
ATOM      3  O   UNL     1      14.193   3.014   1.471  0.00  0.00    -0.273 OA
ATOM      4  O   UNL     1      12.881   8.030   0.538  0.00  0.00    -0.270 OA
ATOM      6  N   UNL     1      13.288   5.828   0.016  0.00  0.00    -0.284 N 
ATOM      8  N   UNL     1      12.593   4.312   2.440  0.00  0.00    -0.283 N 
ATOM      9  C   UNL     1      13.684   3.826  -1.179  0.00  0.00    +0.104 C 
ATOM     10  C   UNL     1      12.908   4.428   0.001  0.00  0.00    +0.183 C 
ATOM     11  C   UNL     1      14.909   4.733  -1.300  0.00  0.00    +0.043 C 
ATOM     12  C   UNL     1      14.371   6.103  -0.918  0.00  0.00    +0.111 C 
ATOM     13  C   UNL     1      13.323   3.878   1.354  0.00  0.00    +0.240 C 
ATOM     14  C   UNL     1      12.624   6.835   0.683  0.00  0.00    +0.249 C 
ATOM     15  C   UNL     1      11.557   6.453   1.644  0.00  0.00    +0.059 A 
ATOM     16  C   UNL     1      11.621   5.336   2.495  0.00  0.00    +0.046 A 
ATOM     18  C   UNL     1      10.514   7.383   1.802  0.00  0.00    +0.023 A 
ATOM     19  C   UNL     1      10.674   5.215   3.526  0.00  0.00    +0.024 A 
ATOM     20  C   UNL     1       9.556   7.220   2.801  0.00  0.00    -0.017 A 
ATOM     22  C   UNL     1       9.643   6.142   3.673  0.00  0.00    +0.010 A 
ATOM     32  H   UNL     1      12.714   3.770   3.292  0.00  0.00    +0.155 HD
ENDROOT
BRANCH  20  23
ATOM     23  C   UNL     1       8.486   8.184   2.945  0.00  0.00    -0.018 A 
ATOM     24  C   UNL     1       8.029   8.533   4.216  0.00  0.00    +0.009 A 
ATOM     25  C   UNL     1       7.914   8.765   1.814  0.00  0.00    +0.009 A 
ATOM     26  C   UNL     1       6.999   9.463   4.355  0.00  0.00    +0.015 A 
ATOM     27  C   UNL     1       6.882   9.695   1.953  0.00  0.00    +0.015 A 
ATOM     29  C   UNL     1       6.425  10.043   3.225  0.00  0.00    +0.008 A 
BRANCH  29   2
ATOM      2  S   UNL     1       5.107  11.230   3.403  0.00  0.00    -0.129 S 
ATOM     30  C   UNL     1       3.888  10.610   2.209  0.00  0.00    +0.090 C 
ENDBRANCH  29   2
ENDBRANCH  20  23
BRANCH   9   7
ATOM      5  O   UNL     1      12.043   1.695  -2.247  0.00  0.00    -0.275 OA
ATOM      7  N   UNL     1      12.891   3.854  -2.387  0.00  0.00    -0.309 N 
ATOM     17  C   UNL     1      12.133   2.779  -2.820  0.00  0.00    +0.223 C 
ATOM     31  H   UNL     1      12.949   4.685  -2.968  0.00  0.00    +0.149 HD
BRANCH  17  21
ATOM     21  C   UNL     1      11.411   3.053  -4.119  0.00  0.00    +0.164 C 
BRANCH  21   1
ATOM      1  S   UNL     1       9.648   2.714  -3.892  0.00  0.00    -0.155 S 
ATOM     28  C   UNL     1       9.083   4.408  -3.607  0.00  0.00    +0.085 C 
ENDBRANCH  21   1
ENDBRANCH  17  21
ENDBRANCH   9   7
TORSDOF 5
ENDMDL
MODEL 6
REMARK VINA RESULT:      -5.9      7.632      9.614
REMARK  Name = 11941407
REMARK  7 active torsions:
REMARK  status: ('A' for Active; 'I' for Inactive)
REMARK    1  A    between atoms: S_1  and  C_21
REMARK    2  A    between atoms: S_1  and  C_28
REMARK    3  A    between atoms: S_2  and  C_29
REMARK    4  A    between atoms: S_2  and  C_30
REMARK    5  A    between atoms: N_7  and  C_9
REMARK    6  A    between atoms: C_17  and  C_21
REMARK    7  A    between atoms: C_20  and  C_23
REMARK                            x       y       z     vdW  Elec       q    Type
REMARK                         _______ _______ _______ _____ _____    ______ ____
ROOT
ATOM      3  O   UNL     1     -12.732  -3.195  12.392  0.00  0.00    -0.273 OA
ATOM      4  O   UNL     1     -13.832  -8.313  12.980  0.00  0.00    -0.270 OA
ATOM      6  N   UNL     1     -13.007  -6.444  11.924  0.00  0.00    -0.284 N 
ATOM      8  N   UNL     1     -12.201  -4.621  14.087  0.00  0.00    -0.283 N 
ATOM      9  C   UNL     1     -12.127  -4.975  10.293  0.00  0.00    +0.104 C 
ATOM     10  C   UNL     1     -12.007  -5.406  11.762  0.00  0.00    +0.183 C 
ATOM     11  C   UNL     1     -13.579  -5.301   9.943  0.00  0.00    +0.043 C 
ATOM     12  C   UNL     1     -13.862  -6.558  10.751  0.00  0.00    +0.111 C 
ATOM     13  C   UNL     1     -12.382  -4.320  12.753  0.00  0.00    +0.240 C 
ATOM     14  C   UNL     1     -13.068  -7.348  12.963  0.00  0.00    +0.249 C 
ATOM     15  C   UNL     1     -12.181  -7.128  14.135  0.00  0.00    +0.059 A 
ATOM     16  C   UNL     1     -11.879  -5.865  14.672  0.00  0.00    +0.046 A 
ATOM     18  C   UNL     1     -11.775  -8.286  14.821  0.00  0.00    +0.023 A 
ATOM     19  C   UNL     1     -11.234  -5.797  15.920  0.00  0.00    +0.024 A 
ATOM     20  C   UNL     1     -11.094  -8.197  16.034  0.00  0.00    -0.017 A 
ATOM     22  C   UNL     1     -10.834  -6.951  16.590  0.00  0.00    +0.010 A 
ATOM     32  H   UNL     1     -12.224  -3.825  14.720  0.00  0.00    +0.155 HD
ENDROOT
BRANCH  20  23
ATOM     23  C   UNL     1     -10.679  -9.400  16.723  0.00  0.00    -0.018 A 
ATOM     24  C   UNL     1     -10.560  -9.401  18.113  0.00  0.00    +0.009 A 
ATOM     25  C   UNL     1     -10.399 -10.558  15.998  0.00  0.00    +0.009 A 
ATOM     26  C   UNL     1     -10.161 -10.560  18.778  0.00  0.00    +0.015 A 
ATOM     27  C   UNL     1      -9.999 -11.718  16.663  0.00  0.00    +0.015 A 
ATOM     29  C   UNL     1      -9.880 -11.718  18.054  0.00  0.00    +0.008 A 
BRANCH  29   2
ATOM      2  S   UNL     1      -9.368 -13.199  18.903  0.00  0.00    -0.129 S 
ATOM     30  C   UNL     1      -7.838 -12.651  19.711  0.00  0.00    +0.090 C 
ENDBRANCH  29   2
ENDBRANCH  20  23
BRANCH   9   7
ATOM      5  O   UNL     1      -9.848  -3.941   8.839  0.00  0.00    -0.275 OA
ATOM      7  N   UNL     1     -11.209  -5.719   9.460  0.00  0.00    -0.309 N 
ATOM     17  C   UNL     1     -10.141  -5.135   8.799  0.00  0.00    +0.223 C 
ATOM     31  H   UNL     1     -11.403  -6.705   9.311  0.00  0.00    +0.149 HD
BRANCH  17  21
ATOM     21  C   UNL     1      -9.344  -6.122   7.980  0.00  0.00    +0.164 C 
BRANCH  21   1
ATOM      1  S   UNL     1      -9.234  -7.684   8.886  0.00  0.00    -0.155 S 
ATOM     28  C   UNL     1      -7.460  -7.977   8.702  0.00  0.00    +0.085 C 
ENDBRANCH  21   1
ENDBRANCH  17  21
ENDBRANCH   9   7
TORSDOF 5
ENDMDL
MODEL 7
REMARK VINA RESULT:      -5.9     27.012     31.082
REMARK  Name = 11941407
REMARK  7 active torsions:
REMARK  status: ('A' for Active; 'I' for Inactive)
REMARK    1  A    between atoms: S_1  and  C_21
REMARK    2  A    between atoms: S_1  and  C_28
REMARK    3  A    between atoms: S_2  and  C_29
REMARK    4  A    between atoms: S_2  and  C_30
REMARK    5  A    between atoms: N_7  and  C_9
REMARK    6  A    between atoms: C_17  and  C_21
REMARK    7  A    between atoms: C_20  and  C_23
REMARK                            x       y       z     vdW  Elec       q    Type
REMARK                         _______ _______ _______ _____ _____    ______ ____
ROOT
ATOM      3  O   UNL     1      10.330  10.033   6.970  0.00  0.00    -0.273 OA
ATOM      4  O   UNL     1      13.925   6.230   7.577  0.00  0.00    -0.270 OA
ATOM      6  N   UNL     1      12.053   7.238   6.700  0.00  0.00    -0.284 N 
ATOM      8  N   UNL     1      12.600  10.126   6.813  0.00  0.00    -0.283 N 
ATOM      9  C   UNL     1      10.023   7.619   5.548  0.00  0.00    +0.104 C 
ATOM     10  C   UNL     1      11.414   8.206   5.830  0.00  0.00    +0.183 C 
ATOM     11  C   UNL     1       9.747   6.751   6.776  0.00  0.00    +0.043 C 
ATOM     12  C   UNL     1      11.121   6.208   7.139  0.00  0.00    +0.111 C 
ATOM     13  C   UNL     1      11.384   9.505   6.615  0.00  0.00    +0.240 C 
ATOM     14  C   UNL     1      13.403   7.163   6.966  0.00  0.00    +0.249 C 
ATOM     15  C   UNL     1      14.270   8.280   6.510  0.00  0.00    +0.059 A 
ATOM     16  C   UNL     1      13.895   9.634   6.538  0.00  0.00    +0.046 A 
ATOM     18  C   UNL     1      15.597   7.937   6.196  0.00  0.00    +0.023 A 
ATOM     19  C   UNL     1      14.878  10.614   6.316  0.00  0.00    +0.024 A 
ATOM     20  C   UNL     1      16.547   8.923   5.931  0.00  0.00    -0.017 A 
ATOM     22  C   UNL     1      16.191  10.263   6.003  0.00  0.00    +0.010 A 
ATOM     32  H   UNL     1      12.549  11.094   7.123  0.00  0.00    +0.155 HD
ENDROOT
BRANCH  20  23
ATOM     23  C   UNL     1      17.907   8.550   5.605  0.00  0.00    -0.018 A 
ATOM     24  C   UNL     1      18.888   8.554   6.596  0.00  0.00    +0.009 A 
ATOM     25  C   UNL     1      18.236   8.187   4.299  0.00  0.00    +0.009 A 
ATOM     26  C   UNL     1      20.198   8.195   6.282  0.00  0.00    +0.015 A 
ATOM     27  C   UNL     1      19.548   7.829   3.984  0.00  0.00    +0.015 A 
ATOM     29  C   UNL     1      20.529   7.832   4.977  0.00  0.00    +0.008 A 
BRANCH  29   2
ATOM      2  S   UNL     1      22.204   7.375   4.575  0.00  0.00    -0.129 S 
ATOM     30  C   UNL     1      23.131   8.825   5.151  0.00  0.00    +0.090 C 
ENDBRANCH  29   2
ENDBRANCH  20  23
BRANCH   9   7
ATOM      5  O   UNL     1       9.679   8.563   2.834  0.00  0.00    -0.275 OA
ATOM      7  N   UNL     1      10.032   6.828   4.339  0.00  0.00    -0.309 N 
ATOM     17  C   UNL     1       9.858   7.371   3.077  0.00  0.00    +0.223 C 
ATOM     31  H   UNL     1      10.109   5.820   4.437  0.00  0.00    +0.149 HD
BRANCH  17  21
ATOM     21  C   UNL     1       9.889   6.333   1.979  0.00  0.00    +0.164 C 
BRANCH  21   1
ATOM      1  S   UNL     1      11.587   5.739   1.783  0.00  0.00    -0.155 S 
ATOM     28  C   UNL     1      11.352   4.051   2.387  0.00  0.00    +0.085 C 
ENDBRANCH  21   1
ENDBRANCH  17  21
ENDBRANCH   9   7
TORSDOF 5
ENDMDL
MODEL 8
REMARK VINA RESULT:      -5.9     26.496     29.183
REMARK  Name = 11941407
REMARK  7 active torsions:
REMARK  status: ('A' for Active; 'I' for Inactive)
REMARK    1  A    between atoms: S_1  and  C_21
REMARK    2  A    between atoms: S_1  and  C_28
REMARK    3  A    between atoms: S_2  and  C_29
REMARK    4  A    between atoms: S_2  and  C_30
REMARK    5  A    between atoms: N_7  and  C_9
REMARK    6  A    between atoms: C_17  and  C_21
REMARK    7  A    between atoms: C_20  and  C_23
REMARK                            x       y       z     vdW  Elec       q    Type
REMARK                         _______ _______ _______ _____ _____    ______ ____
ROOT
ATOM      3  O   UNL     1      10.549   5.579   7.928  0.00  0.00    -0.273 OA
ATOM      4  O   UNL     1       8.013   7.810   3.886  0.00  0.00    -0.270 OA
ATOM      6  N   UNL     1       9.435   7.725   5.691  0.00  0.00    -0.284 N 
ATOM      8  N   UNL     1      10.473   4.972   5.735  0.00  0.00    -0.283 N 
ATOM      9  C   UNL     1      10.864   8.342   7.472  0.00  0.00    +0.104 C 
ATOM     10  C   UNL     1      10.696   7.356   6.307  0.00  0.00    +0.183 C 
ATOM     11  C   UNL     1       9.426   8.721   7.828  0.00  0.00    +0.043 C 
ATOM     12  C   UNL     1       8.717   8.714   6.482  0.00  0.00    +0.111 C 
ATOM     13  C   UNL     1      10.530   5.912   6.743  0.00  0.00    +0.240 C 
ATOM     14  C   UNL     1       9.011   7.345   4.436  0.00  0.00    +0.249 C 
ATOM     15  C   UNL     1       9.790   6.301   3.720  0.00  0.00    +0.059 A 
ATOM     16  C   UNL     1      10.369   5.181   4.342  0.00  0.00    +0.046 A 
ATOM     18  C   UNL     1       9.780   6.384   2.317  0.00  0.00    +0.023 A 
ATOM     19  C   UNL     1      10.866   4.141   3.537  0.00  0.00    +0.024 A 
ATOM     20  C   UNL     1      10.321   5.363   1.536  0.00  0.00    -0.017 A 
ATOM     22  C   UNL     1      10.853   4.235   2.146  0.00  0.00    +0.010 A 
ATOM     32  H   UNL     1      10.601   4.008   6.030  0.00  0.00    +0.155 HD
ENDROOT
BRANCH  20  23
ATOM     23  C   UNL     1      10.306   5.469   0.093  0.00  0.00    -0.018 A 
ATOM     24  C   UNL     1       9.744   6.589  -0.519  0.00  0.00    +0.009 A 
ATOM     25  C   UNL     1      10.856   4.451  -0.687  0.00  0.00    +0.009 A 
ATOM     26  C   UNL     1       9.730   6.692  -1.910  0.00  0.00    +0.015 A 
ATOM     27  C   UNL     1      10.842   4.553  -2.079  0.00  0.00    +0.015 A 
ATOM     29  C   UNL     1      10.279   5.674  -2.690  0.00  0.00    +0.008 A 
BRANCH  29   2
ATOM      2  S   UNL     1      10.260   5.804  -4.467  0.00  0.00    -0.129 S 
ATOM     30  C   UNL     1      11.336   4.425  -4.950  0.00  0.00    +0.090 C 
ENDBRANCH  29   2
ENDBRANCH  20  23
BRANCH   9   7
ATOM      5  O   UNL     1      13.716   8.488   7.001  0.00  0.00    -0.275 OA
ATOM      7  N   UNL     1      11.625   9.500   7.063  0.00  0.00    -0.309 N 
ATOM     17  C   UNL     1      12.995   9.474   6.862  0.00  0.00    +0.223 C 
ATOM     31  H   UNL     1      11.130  10.384   6.983  0.00  0.00    +0.149 HD
BRANCH  17  21
ATOM     21  C   UNL     1      13.556  10.817   6.456  0.00  0.00    +0.164 C 
BRANCH  21   1
ATOM      1  S   UNL     1      15.353  10.790   6.666  0.00  0.00    -0.155 S 
ATOM     28  C   UNL     1      15.826  10.705   4.922  0.00  0.00    +0.085 C 
ENDBRANCH  21   1
ENDBRANCH  17  21
ENDBRANCH   9   7
TORSDOF 5
ENDMDL
MODEL 9
REMARK VINA RESULT:      -5.8     19.095     22.211
REMARK  Name = 11941407
REMARK  7 active torsions:
REMARK  status: ('A' for Active; 'I' for Inactive)
REMARK    1  A    between atoms: S_1  and  C_21
REMARK    2  A    between atoms: S_1  and  C_28
REMARK    3  A    between atoms: S_2  and  C_29
REMARK    4  A    between atoms: S_2  and  C_30
REMARK    5  A    between atoms: N_7  and  C_9
REMARK    6  A    between atoms: C_17  and  C_21
REMARK    7  A    between atoms: C_20  and  C_23
REMARK                            x       y       z     vdW  Elec       q    Type
REMARK                         _______ _______ _______ _____ _____    ______ ____
ROOT
ATOM      3  O   UNL     1       7.631  -5.750  34.613  0.00  0.00    -0.273 OA
ATOM      4  O   UNL     1       9.099 -10.802  34.329  0.00  0.00    -0.270 OA
ATOM      6  N   UNL     1       7.991  -8.975  35.181  0.00  0.00    -0.284 N 
ATOM      8  N   UNL     1       7.504  -7.215  32.875  0.00  0.00    -0.283 N 
ATOM      9  C   UNL     1       6.744  -7.547  36.594  0.00  0.00    +0.104 C 
ATOM     10  C   UNL     1       6.924  -7.994  35.136  0.00  0.00    +0.183 C 
ATOM     11  C   UNL     1       8.121  -7.787  37.213  0.00  0.00    +0.043 C 
ATOM     12  C   UNL     1       8.618  -9.031  36.494  0.00  0.00    +0.111 C 
ATOM     13  C   UNL     1       7.417  -6.895  34.214  0.00  0.00    +0.240 C 
ATOM     14  C   UNL     1       8.294  -9.881  34.187  0.00  0.00    +0.249 C 
ATOM     15  C   UNL     1       7.631  -9.720  32.867  0.00  0.00    +0.059 A 
ATOM     16  C   UNL     1       7.366  -8.479  32.261  0.00  0.00    +0.046 A 
ATOM     18  C   UNL     1       7.423 -10.904  32.138  0.00  0.00    +0.023 A 
ATOM     19  C   UNL     1       6.961  -8.457  30.915  0.00  0.00    +0.024 A 
ATOM     20  C   UNL     1       6.976 -10.862  30.818  0.00  0.00    -0.017 A 
ATOM     22  C   UNL     1       6.757  -9.637  30.201  0.00  0.00    +0.010 A 
ATOM     32  H   UNL     1       7.602  -6.424  32.243  0.00  0.00    +0.155 HD
ENDROOT
BRANCH  20  23
ATOM     23  C   UNL     1       6.763 -12.091  30.085  0.00  0.00    -0.018 A 
ATOM     24  C   UNL     1       5.634 -12.869  30.342  0.00  0.00    +0.009 A 
ATOM     25  C   UNL     1       7.685 -12.497  29.120  0.00  0.00    +0.009 A 
ATOM     26  C   UNL     1       5.428 -14.054  29.635  0.00  0.00    +0.015 A 
ATOM     27  C   UNL     1       7.479 -13.683  28.414  0.00  0.00    +0.015 A 
ATOM     29  C   UNL     1       6.350 -14.461  28.671  0.00  0.00    +0.008 A 
BRANCH  29   2
ATOM      2  S   UNL     1       6.088 -15.975  27.769  0.00  0.00    -0.129 S 
ATOM     30  C   UNL     1       4.565 -16.601  28.534  0.00  0.00    +0.090 C 
ENDBRANCH  29   2
ENDBRANCH  20  23
BRANCH   9   7
ATOM      5  O   UNL     1       4.447  -6.573  38.062  0.00  0.00    -0.275 OA
ATOM      7  N   UNL     1       5.729  -8.336  37.255  0.00  0.00    -0.309 N 
ATOM     17  C   UNL     1       4.661  -7.778  37.937  0.00  0.00    +0.223 C 
ATOM     31  H   UNL     1       5.849  -9.345  37.264  0.00  0.00    +0.149 HD
BRANCH  17  21
ATOM     21  C   UNL     1       3.751  -8.814  38.555  0.00  0.00    +0.164 C 
BRANCH  21   1
ATOM      1  S   UNL     1       3.549 -10.186  37.393  0.00  0.00    -0.155 S 
ATOM     28  C   UNL     1       1.978  -9.681  36.652  0.00  0.00    +0.085 C 
ENDBRANCH  21   1
ENDBRANCH  17  21
ENDBRANCH   9   7
TORSDOF 5
ENDMDL
MODEL 10
REMARK VINA RESULT:      -5.8      4.942      6.540
REMARK  Name = 11941407
REMARK  7 active torsions:
REMARK  status: ('A' for Active; 'I' for Inactive)
REMARK    1  A    between atoms: S_1  and  C_21
REMARK    2  A    between atoms: S_1  and  C_28
REMARK    3  A    between atoms: S_2  and  C_29
REMARK    4  A    between atoms: S_2  and  C_30
REMARK    5  A    between atoms: N_7  and  C_9
REMARK    6  A    between atoms: C_17  and  C_21
REMARK    7  A    between atoms: C_20  and  C_23
REMARK                            x       y       z     vdW  Elec       q    Type
REMARK                         _______ _______ _______ _____ _____    ______ ____
ROOT
ATOM      3  O   UNL     1      -6.396 -14.081  16.754  0.00  0.00    -0.273 OA
ATOM      4  O   UNL     1      -7.605  -9.136  18.109  0.00  0.00    -0.270 OA
ATOM      6  N   UNL     1      -6.285 -10.833  17.294  0.00  0.00    -0.284 N 
ATOM      8  N   UNL     1      -8.154 -12.779  16.122  0.00  0.00    -0.283 N 
ATOM      9  C   UNL     1      -4.429 -12.077  16.517  0.00  0.00    +0.104 C 
ATOM     10  C   UNL     1      -5.911 -11.773  16.254  0.00  0.00    +0.183 C 
ATOM     11  C   UNL     1      -4.276 -11.833  18.019  0.00  0.00    +0.043 C 
ATOM     12  C   UNL     1      -5.230 -10.680  18.286  0.00  0.00    +0.111 C 
ATOM     13  C   UNL     1      -6.825 -12.971  16.439  0.00  0.00    +0.240 C 
ATOM     14  C   UNL     1      -7.408 -10.035  17.291  0.00  0.00    +0.249 C 
ATOM     15  C   UNL     1      -8.447 -10.292  16.260  0.00  0.00    +0.059 A 
ATOM     16  C   UNL     1      -8.820 -11.572  15.815  0.00  0.00    +0.046 A 
ATOM     18  C   UNL     1      -9.195  -9.174  15.852  0.00  0.00    +0.023 A 
ATOM     19  C   UNL     1      -9.976 -11.704  15.025  0.00  0.00    +0.024 A 
ATOM     20  C   UNL     1     -10.311  -9.320  15.029  0.00  0.00    -0.017 A 
ATOM     22  C   UNL     1     -10.709 -10.588  14.625  0.00  0.00    +0.010 A 
ATOM     32  H   UNL     1      -8.704 -13.628  16.019  0.00  0.00    +0.155 HD
ENDROOT
BRANCH  20  23
ATOM     23  C   UNL     1     -11.065  -8.157  14.615  0.00  0.00    -0.018 A 
ATOM     24  C   UNL     1     -11.024  -6.991  15.380  0.00  0.00    +0.009 A 
ATOM     25  C   UNL     1     -11.833  -8.201  13.452  0.00  0.00    +0.009 A 
ATOM     26  C   UNL     1     -11.750  -5.869  14.982  0.00  0.00    +0.015 A 
ATOM     27  C   UNL     1     -12.561  -7.078  13.053  0.00  0.00    +0.015 A 
ATOM     29  C   UNL     1     -12.519  -5.913  13.819  0.00  0.00    +0.008 A 
BRANCH  29   2
ATOM      2  S   UNL     1     -13.448  -4.480  13.311  0.00  0.00    -0.129 S 
ATOM     30  C   UNL     1     -12.270  -3.647  12.209  0.00  0.00    +0.090 C 
ENDBRANCH  29   2
ENDBRANCH  20  23
BRANCH   9   7
ATOM      5  O   UNL     1      -2.481 -12.822  14.510  0.00  0.00    -0.275 OA
ATOM      7  N   UNL     1      -3.577 -11.193  15.754  0.00  0.00    -0.309 N 
ATOM     17  C   UNL     1      -2.670 -11.644  14.810  0.00  0.00    +0.223 C 
ATOM     31  H   UNL     1      -3.612 -10.202  15.973  0.00  0.00    +0.149 HD
BRANCH  17  21
ATOM     21  C   UNL     1      -1.887 -10.525  14.164  0.00  0.00    +0.164 C 
BRANCH  21   1
ATOM      1  S   UNL     1      -2.060 -10.649  12.367  0.00  0.00    -0.155 S 
ATOM     28  C   UNL     1      -3.827 -10.288  12.242  0.00  0.00    +0.085 C 
ENDBRANCH  21   1
ENDBRANCH  17  21
ENDBRANCH   9   7
TORSDOF 5
ENDMDL
