MODEL 1
REMARK VINA RESULT:      -6.9      0.000      0.000
REMARK  Name = 71693201
REMARK  14 active torsions:
REMARK  status: ('A' for Active; 'I' for Inactive)
REMARK    1  A    between atoms: O_2  and  C_25
REMARK    2  A    between atoms: O_2  and  C_30
REMARK    3  A    between atoms: O_3  and  C_31
REMARK    4  A    between atoms: N_5  and  C_15
REMARK    5  A    between atoms: C_8  and  C_12
REMARK    6  A    between atoms: C_9  and  C_15
REMARK    7  A    between atoms: C_11  and  C_16
REMARK    8  A    between atoms: C_12  and  C_17
REMARK    9  A    between atoms: C_12  and  C_18
REMARK   10  A    between atoms: C_13  and  C_19
REMARK   11  A    between atoms: C_16  and  C_20
REMARK   12  A    between atoms: C_21  and  C_25
REMARK   13  A    between atoms: C_24  and  C_29
REMARK   14  A    between atoms: C_30  and  C_31
REMARK                            x       y       z     vdW  Elec       q    Type
REMARK                         _______ _______ _______ _____ _____    ______ ____
ROOT
ATOM      8  C   UNL     1      14.478   9.124  20.548  0.00  0.00    +0.000 C 
ATOM      9  C   UNL     1      14.621   7.673  20.023  0.00  0.00    +0.032 C 
ATOM     10  C   UNL     1      13.850   9.127  21.950  0.00  0.00    +0.012 C 
ATOM     11  C   UNL     1      12.460   8.461  21.968  0.00  0.00    +0.022 C 
ATOM     13  C   UNL     1      12.460   7.138  21.228  0.00  0.00    -0.073 C 
ATOM     14  C   UNL     1      13.441   6.798  20.374  0.00  0.00    -0.022 C 
ATOM     19  C   UNL     1      11.328   6.195  21.529  0.00  0.00    +0.039 C 
ENDROOT
BRANCH   8  12
ATOM     12  C   UNL     1      15.824   9.852  20.583  0.00  0.00    -0.013 C 
ATOM     17  C   UNL     1      15.670  11.227  21.226  0.00  0.00    +0.007 C 
ATOM     18  C   UNL     1      16.861   9.019  21.327  0.00  0.00    +0.007 C 
ENDBRANCH   8  12
BRANCH   9  15
ATOM     15  C   UNL     1      14.838   7.654  18.505  0.00  0.00    +0.112 C 
BRANCH  15   5
ATOM      1  O   UNL     1      14.289   7.825  15.671  0.00  0.00    -0.273 OA
ATOM      5  N   UNL     1      13.944   8.558  17.853  0.00  0.00    -0.313 N 
ATOM     21  C   UNL     1      13.737   8.572  16.474  0.00  0.00    +0.239 C 
ATOM     32  H   UNL     1      13.386   9.178  18.434  0.00  0.00    +0.149 HD
BRANCH  21  25
ATOM     25  C   UNL     1      12.737   9.630  16.056  0.00  0.00    +0.256 C 
BRANCH  25   2
ATOM      2  O   UNL     1      13.236  10.388  14.974  0.00  0.00    -0.359 OA
BRANCH   2  30
ATOM     30  C   UNL     1      14.332  11.211  15.362  0.00  0.00    +0.280 C 
BRANCH  30  31
ATOM      4  O   UNL     1      16.012  12.130  13.867  0.00  0.00    -0.248 OA
ATOM     31  C   UNL     1      15.401  11.167  14.306  0.00  0.00    +0.331 C 
BRANCH  31   3
ATOM      3  O   UNL     1      15.602   9.890  13.895  0.00  0.00    -0.479 OA
ATOM     34  H   UNL     1      15.470   9.790  12.929  0.00  0.00    +0.295 HD
ENDBRANCH  31   3
ENDBRANCH  30  31
ENDBRANCH   2  30
ENDBRANCH  25   2
ENDBRANCH  21  25
ENDBRANCH  15   5
ENDBRANCH   9  15
BRANCH  11  16
ATOM     16  C   UNL     1      11.390   9.403  21.406  0.00  0.00    +0.082 C 
BRANCH  16  20
ATOM      6  N   UNL     1      11.143  10.477  23.651  0.00  0.00    -0.342 N 
ATOM      7  N   UNL     1      11.054  11.849  21.905  0.00  0.00    -0.232 NA
ATOM     20  C   UNL     1      11.193  10.601  22.291  0.00  0.00    +0.109 A 
ATOM     22  C   UNL     1      10.957  11.730  24.178  0.00  0.00    +0.066 A 
ATOM     23  C   UNL     1      10.905  12.568  23.070  0.00  0.00    +0.092 A 
ATOM     24  C   UNL     1      10.720  13.948  23.261  0.00  0.00    -0.023 A 
ATOM     26  C   UNL     1      10.835  12.187  25.491  0.00  0.00    +0.028 A 
ATOM     27  C   UNL     1      10.595  14.430  24.570  0.00  0.00    +0.005 A 
ATOM     28  C   UNL     1      10.651  13.562  25.664  0.00  0.00    +0.002 A 
ATOM     29  C   UNL     1      10.653  14.914  22.124  0.00  0.00    +0.046 C 
ATOM     33  H   UNL     1      11.227   9.618  24.178  0.00  0.00    +0.167 HD
ENDBRANCH  16  20
ENDBRANCH  11  16
TORSDOF 10
ENDMDL
MODEL 2
REMARK VINA RESULT:      -6.3      6.043     10.355
REMARK  Name = 71693201
REMARK  14 active torsions:
REMARK  status: ('A' for Active; 'I' for Inactive)
REMARK    1  A    between atoms: O_2  and  C_25
REMARK    2  A    between atoms: O_2  and  C_30
REMARK    3  A    between atoms: O_3  and  C_31
REMARK    4  A    between atoms: N_5  and  C_15
REMARK    5  A    between atoms: C_8  and  C_12
REMARK    6  A    between atoms: C_9  and  C_15
REMARK    7  A    between atoms: C_11  and  C_16
REMARK    8  A    between atoms: C_12  and  C_17
REMARK    9  A    between atoms: C_12  and  C_18
REMARK   10  A    between atoms: C_13  and  C_19
REMARK   11  A    between atoms: C_16  and  C_20
REMARK   12  A    between atoms: C_21  and  C_25
REMARK   13  A    between atoms: C_24  and  C_29
REMARK   14  A    between atoms: C_30  and  C_31
REMARK                            x       y       z     vdW  Elec       q    Type
REMARK                         _______ _______ _______ _____ _____    ______ ____
ROOT
ATOM      8  C   UNL     1      18.197   8.532  21.717  0.00  0.00    +0.000 C 
ATOM      9  C   UNL     1      17.090   7.927  20.818  0.00  0.00    +0.032 C 
ATOM     10  C   UNL     1      19.581   8.305  21.090  0.00  0.00    +0.012 C 
ATOM     11  C   UNL     1      19.886   6.809  20.878  0.00  0.00    +0.022 C 
ATOM     13  C   UNL     1      18.722   6.083  20.233  0.00  0.00    -0.073 C 
ATOM     14  C   UNL     1      17.483   6.604  20.204  0.00  0.00    -0.022 C 
ATOM     19  C   UNL     1      19.027   4.762  19.582  0.00  0.00    +0.039 C 
ENDROOT
BRANCH   8  12
ATOM     12  C   UNL     1      17.978  10.028  21.961  0.00  0.00    -0.013 C 
ATOM     17  C   UNL     1      19.217  10.651  22.597  0.00  0.00    +0.007 C 
ATOM     18  C   UNL     1      17.627  10.734  20.656  0.00  0.00    +0.007 C 
ENDBRANCH   8  12
BRANCH   9  15
ATOM     15  C   UNL     1      15.778   7.760  21.595  0.00  0.00    +0.112 C 
BRANCH  15   5
ATOM      1  O   UNL     1      14.453   9.292  19.531  0.00  0.00    -0.273 OA
ATOM      5  N   UNL     1      14.730   7.317  20.730  0.00  0.00    -0.313 N 
ATOM     21  C   UNL     1      14.144   8.125  19.757  0.00  0.00    +0.239 C 
ATOM     32  H   UNL     1      14.443   6.344  20.790  0.00  0.00    +0.149 HD
BRANCH  21  25
ATOM     25  C   UNL     1      13.062   7.400  18.985  0.00  0.00    +0.256 C 
BRANCH  25   2
ATOM      2  O   UNL     1      12.022   6.992  19.849  0.00  0.00    -0.359 OA
BRANCH   2  30
ATOM     30  C   UNL     1      11.271   8.101  20.337  0.00  0.00    +0.280 C 
BRANCH  30  31
ATOM      4  O   UNL     1      10.144   7.527  22.412  0.00  0.00    -0.248 OA
ATOM     31  C   UNL     1      11.112   7.991  21.828  0.00  0.00    +0.331 C 
BRANCH  31   3
ATOM      3  O   UNL     1      12.210   8.484  22.454  0.00  0.00    -0.479 OA
ATOM     34  H   UNL     1      12.764   9.024  21.851  0.00  0.00    +0.295 HD
ENDBRANCH  31   3
ENDBRANCH  30  31
ENDBRANCH   2  30
ENDBRANCH  25   2
ENDBRANCH  21  25
ENDBRANCH  15   5
ENDBRANCH   9  15
BRANCH  11  16
ATOM     16  C   UNL     1      20.292   6.137  22.194  0.00  0.00    +0.082 C 
BRANCH  16  20
ATOM      6  N   UNL     1      22.253   5.270  20.906  0.00  0.00    -0.342 N 
ATOM      7  N   UNL     1      21.766   4.181  22.782  0.00  0.00    -0.232 NA
ATOM     20  C   UNL     1      21.429   5.177  21.992  0.00  0.00    +0.109 A 
ATOM     22  C   UNL     1      23.184   4.268  20.999  0.00  0.00    +0.066 A 
ATOM     23  C   UNL     1      22.860   3.603  22.178  0.00  0.00    +0.092 A 
ATOM     24  C   UNL     1      23.633   2.500  22.578  0.00  0.00    -0.023 A 
ATOM     26  C   UNL     1      24.250   3.897  20.179  0.00  0.00    +0.028 A 
ATOM     27  C   UNL     1      24.709   2.110  21.769  0.00  0.00    +0.005 A 
ATOM     28  C   UNL     1      25.010   2.798  20.591  0.00  0.00    +0.002 A 
ATOM     29  C   UNL     1      23.352   1.732  23.827  0.00  0.00    +0.046 C 
ATOM     33  H   UNL     1      22.189   5.955  20.164  0.00  0.00    +0.167 HD
ENDBRANCH  16  20
ENDBRANCH  11  16
TORSDOF 10
ENDMDL
MODEL 3
REMARK VINA RESULT:      -6.3     27.756     29.870
REMARK  Name = 71693201
REMARK  14 active torsions:
REMARK  status: ('A' for Active; 'I' for Inactive)
REMARK    1  A    between atoms: O_2  and  C_25
REMARK    2  A    between atoms: O_2  and  C_30
REMARK    3  A    between atoms: O_3  and  C_31
REMARK    4  A    between atoms: N_5  and  C_15
REMARK    5  A    between atoms: C_8  and  C_12
REMARK    6  A    between atoms: C_9  and  C_15
REMARK    7  A    between atoms: C_11  and  C_16
REMARK    8  A    between atoms: C_12  and  C_17
REMARK    9  A    between atoms: C_12  and  C_18
REMARK   10  A    between atoms: C_13  and  C_19
REMARK   11  A    between atoms: C_16  and  C_20
REMARK   12  A    between atoms: C_21  and  C_25
REMARK   13  A    between atoms: C_24  and  C_29
REMARK   14  A    between atoms: C_30  and  C_31
REMARK                            x       y       z     vdW  Elec       q    Type
REMARK                         _______ _______ _______ _____ _____    ______ ____
ROOT
ATOM      8  C   UNL     1      -9.386  -9.264  16.641  0.00  0.00    +0.000 C 
ATOM      9  C   UNL     1      -9.888 -10.639  17.149  0.00  0.00    +0.032 C 
ATOM     10  C   UNL     1      -9.191  -9.295  15.117  0.00  0.00    +0.012 C 
ATOM     11  C   UNL     1      -8.184 -10.376  14.679  0.00  0.00    +0.022 C 
ATOM     13  C   UNL     1      -8.456 -11.705  15.355  0.00  0.00    -0.073 C 
ATOM     14  C   UNL     1      -9.231 -11.805  16.449  0.00  0.00    -0.022 C 
ATOM     19  C   UNL     1      -7.853 -12.925  14.714  0.00  0.00    +0.039 C 
ENDROOT
BRANCH   8  12
ATOM     12  C   UNL     1     -10.346  -8.133  17.018  0.00  0.00    -0.013 C 
ATOM     17  C   UNL     1     -10.188  -6.958  16.057  0.00  0.00    +0.007 C 
ATOM     18  C   UNL     1     -11.785  -8.636  17.026  0.00  0.00    +0.007 C 
ENDBRANCH   8  12
BRANCH   9  15
ATOM     15  C   UNL     1      -9.688 -10.775  18.664  0.00  0.00    +0.112 C 
BRANCH  15   5
ATOM      1  O   UNL     1      -7.565 -12.584  19.426  0.00  0.00    -0.273 OA
ATOM      5  N   UNL     1      -8.351 -10.429  19.032  0.00  0.00    -0.313 N 
ATOM     21  C   UNL     1      -7.386 -11.370  19.387  0.00  0.00    +0.239 C 
ATOM     32  H   UNL     1      -8.078  -9.452  18.971  0.00  0.00    +0.149 HD
BRANCH  21  25
ATOM     25  C   UNL     1      -6.058 -10.727  19.729  0.00  0.00    +0.256 C 
BRANCH  25   2
ATOM      2  O   UNL     1      -5.339 -10.413  18.556  0.00  0.00    -0.359 OA
BRANCH   2  30
ATOM     30  C   UNL     1      -4.346 -11.393  18.263  0.00  0.00    +0.280 C 
BRANCH  30  31
ATOM      4  O   UNL     1      -4.368 -12.401  16.052  0.00  0.00    -0.248 OA
ATOM     31  C   UNL     1      -4.112 -11.452  16.779  0.00  0.00    +0.331 C 
BRANCH  31   3
ATOM      3  O   UNL     1      -3.569 -10.288  16.343  0.00  0.00    -0.479 OA
ATOM     34  H   UNL     1      -3.367 -10.315  15.384  0.00  0.00    +0.295 HD
ENDBRANCH  31   3
ENDBRANCH  30  31
ENDBRANCH   2  30
ENDBRANCH  25   2
ENDBRANCH  21  25
ENDBRANCH  15   5
ENDBRANCH   9  15
BRANCH  11  16
ATOM     16  C   UNL     1      -6.742  -9.920  14.928  0.00  0.00    +0.082 C 
BRANCH  16  20
ATOM      6  N   UNL     1      -6.486  -9.034  12.603  0.00  0.00    -0.342 N 
ATOM      7  N   UNL     1      -4.813 -10.291  13.352  0.00  0.00    -0.232 NA
ATOM     20  C   UNL     1      -5.984  -9.770  13.639  0.00  0.00    +0.109 A 
ATOM     22  C   UNL     1      -5.577  -9.083  11.577  0.00  0.00    +0.066 A 
ATOM     23  C   UNL     1      -4.542  -9.873  12.068  0.00  0.00    +0.092 A 
ATOM     24  C   UNL     1      -3.427 -10.129  11.252  0.00  0.00    -0.023 A 
ATOM     26  C   UNL     1      -5.571  -8.521  10.300  0.00  0.00    +0.028 A 
ATOM     27  C   UNL     1      -3.400  -9.575   9.966  0.00  0.00    +0.005 A 
ATOM     28  C   UNL     1      -4.455  -8.786   9.500  0.00  0.00    +0.002 A 
ATOM     29  C   UNL     1      -2.276 -10.966  11.704  0.00  0.00    +0.046 C 
ATOM     33  H   UNL     1      -7.368  -8.540  12.591  0.00  0.00    +0.167 HD
ENDBRANCH  16  20
ENDBRANCH  11  16
TORSDOF 10
ENDMDL
MODEL 4
REMARK VINA RESULT:      -6.2     26.939     29.827
REMARK  Name = 71693201
REMARK  14 active torsions:
REMARK  status: ('A' for Active; 'I' for Inactive)
REMARK    1  A    between atoms: O_2  and  C_25
REMARK    2  A    between atoms: O_2  and  C_30
REMARK    3  A    between atoms: O_3  and  C_31
REMARK    4  A    between atoms: N_5  and  C_15
REMARK    5  A    between atoms: C_8  and  C_12
REMARK    6  A    between atoms: C_9  and  C_15
REMARK    7  A    between atoms: C_11  and  C_16
REMARK    8  A    between atoms: C_12  and  C_17
REMARK    9  A    between atoms: C_12  and  C_18
REMARK   10  A    between atoms: C_13  and  C_19
REMARK   11  A    between atoms: C_16  and  C_20
REMARK   12  A    between atoms: C_21  and  C_25
REMARK   13  A    between atoms: C_24  and  C_29
REMARK   14  A    between atoms: C_30  and  C_31
REMARK                            x       y       z     vdW  Elec       q    Type
REMARK                         _______ _______ _______ _____ _____    ______ ____
ROOT
ATOM      8  C   UNL     1      -3.036 -12.409  13.513  0.00  0.00    +0.000 C 
ATOM      9  C   UNL     1      -1.860 -11.469  13.881  0.00  0.00    +0.032 C 
ATOM     10  C   UNL     1      -3.065 -12.664  11.999  0.00  0.00    +0.012 C 
ATOM     11  C   UNL     1      -3.209 -11.361  11.190  0.00  0.00    +0.022 C 
ATOM     13  C   UNL     1      -2.257 -10.287  11.678  0.00  0.00    -0.073 C 
ATOM     14  C   UNL     1      -1.653 -10.360  12.877  0.00  0.00    -0.022 C 
ATOM     19  C   UNL     1      -1.980  -9.149  10.734  0.00  0.00    +0.039 C 
ENDROOT
BRANCH   8  12
ATOM     12  C   UNL     1      -2.955 -13.742  14.262  0.00  0.00    -0.013 C 
ATOM     17  C   UNL     1      -4.277 -14.496  14.153  0.00  0.00    +0.007 C 
ATOM     18  C   UNL     1      -1.805 -14.586  13.724  0.00  0.00    +0.007 C 
ENDBRANCH   8  12
BRANCH   9  15
ATOM     15  C   UNL     1      -2.051 -10.866  15.278  0.00  0.00    +0.112 C 
BRANCH  15   5
ATOM      1  O   UNL     1      -4.027 -11.414  17.317  0.00  0.00    -0.273 OA
ATOM      5  N   UNL     1      -3.347 -10.277  15.403  0.00  0.00    -0.313 N 
ATOM     21  C   UNL     1      -4.241 -10.600  16.423  0.00  0.00    +0.239 C 
ATOM     32  H   UNL     1      -3.600  -9.540  14.750  0.00  0.00    +0.149 HD
BRANCH  21  25
ATOM     25  C   UNL     1      -5.538  -9.825  16.314  0.00  0.00    +0.256 C 
BRANCH  25   2
ATOM      2  O   UNL     1      -6.622 -10.599  16.782  0.00  0.00    -0.359 OA
BRANCH   2  30
ATOM     30  C   UNL     1      -7.278  -9.982  17.887  0.00  0.00    +0.280 C 
BRANCH  30  31
ATOM      4  O   UNL     1      -7.200 -11.974  19.275  0.00  0.00    -0.248 OA
ATOM     31  C   UNL     1      -7.020 -10.773  19.139  0.00  0.00    +0.331 C 
BRANCH  31   3
ATOM      3  O   UNL     1      -6.550  -9.961  20.118  0.00  0.00    -0.479 OA
ATOM     34  H   UNL     1      -5.570  -9.953  20.148  0.00  0.00    +0.295 HD
ENDBRANCH  31   3
ENDBRANCH  30  31
ENDBRANCH   2  30
ENDBRANCH  25   2
ENDBRANCH  21  25
ENDBRANCH  15   5
ENDBRANCH   9  15
BRANCH  11  16
ATOM     16  C   UNL     1      -4.657 -10.859  11.206  0.00  0.00    +0.082 C 
BRANCH  16  20
ATOM      6  N   UNL     1      -6.155  -9.669   9.595  0.00  0.00    -0.342 N 
ATOM      7  N   UNL     1      -4.726 -11.119   8.702  0.00  0.00    -0.232 NA
ATOM     20  C   UNL     1      -5.155 -10.574   9.818  0.00  0.00    +0.109 A 
ATOM     22  C   UNL     1      -6.387  -9.627   8.243  0.00  0.00    +0.066 A 
ATOM     23  C   UNL     1      -5.483 -10.540   7.708  0.00  0.00    +0.092 A 
ATOM     24  C   UNL     1      -5.457 -10.745   6.318  0.00  0.00    -0.023 A 
ATOM     26  C   UNL     1      -7.282  -8.891   7.467  0.00  0.00    +0.028 A 
ATOM     27  C   UNL     1      -6.347 -10.016   5.519  0.00  0.00    +0.005 A 
ATOM     28  C   UNL     1      -7.243  -9.106   6.086  0.00  0.00    +0.002 A 
ATOM     29  C   UNL     1      -4.518 -11.706   5.666  0.00  0.00    +0.046 C 
ATOM     33  H   UNL     1      -6.638  -9.126  10.297  0.00  0.00    +0.167 HD
ENDBRANCH  16  20
ENDBRANCH  11  16
TORSDOF 10
ENDMDL
MODEL 5
REMARK VINA RESULT:      -6.1     26.704     28.878
REMARK  Name = 71693201
REMARK  14 active torsions:
REMARK  status: ('A' for Active; 'I' for Inactive)
REMARK    1  A    between atoms: O_2  and  C_25
REMARK    2  A    between atoms: O_2  and  C_30
REMARK    3  A    between atoms: O_3  and  C_31
REMARK    4  A    between atoms: N_5  and  C_15
REMARK    5  A    between atoms: C_8  and  C_12
REMARK    6  A    between atoms: C_9  and  C_15
REMARK    7  A    between atoms: C_11  and  C_16
REMARK    8  A    between atoms: C_12  and  C_17
REMARK    9  A    between atoms: C_12  and  C_18
REMARK   10  A    between atoms: C_13  and  C_19
REMARK   11  A    between atoms: C_16  and  C_20
REMARK   12  A    between atoms: C_21  and  C_25
REMARK   13  A    between atoms: C_24  and  C_29
REMARK   14  A    between atoms: C_30  and  C_31
REMARK                            x       y       z     vdW  Elec       q    Type
REMARK                         _______ _______ _______ _____ _____    ______ ____
ROOT
ATOM      8  C   UNL     1      -5.749 -10.663  17.803  0.00  0.00    +0.000 C 
ATOM      9  C   UNL     1      -5.108 -10.991  16.431  0.00  0.00    +0.032 C 
ATOM     10  C   UNL     1      -7.255 -10.960  17.776  0.00  0.00    +0.012 C 
ATOM     11  C   UNL     1      -7.990 -10.153  16.688  0.00  0.00    +0.022 C 
ATOM     13  C   UNL     1      -7.263 -10.210  15.359  0.00  0.00    -0.073 C 
ATOM     14  C   UNL     1      -5.980 -10.600  15.262  0.00  0.00    -0.022 C 
ATOM     19  C   UNL     1      -8.062  -9.852  14.136  0.00  0.00    +0.039 C 
ENDROOT
BRANCH   8  12
ATOM     12  C   UNL     1      -5.087 -11.444  18.942  0.00  0.00    -0.013 C 
ATOM     17  C   UNL     1      -5.954 -11.394  20.196  0.00  0.00    +0.007 C 
ATOM     18  C   UNL     1      -4.829 -12.885  18.519  0.00  0.00    +0.007 C 
ENDBRANCH   8  12
BRANCH   9  15
ATOM     15  C   UNL     1      -3.734 -10.324  16.289  0.00  0.00    +0.112 C 
BRANCH  15   5
ATOM      1  O   UNL     1      -1.081 -10.869  15.276  0.00  0.00    -0.273 OA
ATOM      5  N   UNL     1      -3.314 -10.314  14.924  0.00  0.00    -0.313 N 
ATOM     21  C   UNL     1      -2.008 -10.590  14.520  0.00  0.00    +0.239 C 
ATOM     32  H   UNL     1      -4.020 -10.158  14.209  0.00  0.00    +0.149 HD
BRANCH  21  25
ATOM     25  C   UNL     1      -1.843 -10.510  13.017  0.00  0.00    +0.256 C 
BRANCH  25   2
ATOM      2  O   UNL     1      -3.094 -10.325  12.387  0.00  0.00    -0.359 OA
BRANCH   2  30
ATOM     30  C   UNL     1      -2.960 -10.166  10.977  0.00  0.00    +0.280 C 
BRANCH  30  31
ATOM      4  O   UNL     1      -4.061  -8.730   9.357  0.00  0.00    -0.248 OA
ATOM     31  C   UNL     1      -4.030  -9.243  10.465  0.00  0.00    +0.331 C 
BRANCH  31   3
ATOM      3  O   UNL     1      -4.978  -9.050  11.417  0.00  0.00    -0.479 OA
ATOM     34  H   UNL     1      -4.684  -9.369  12.296  0.00  0.00    +0.295 HD
ENDBRANCH  31   3
ENDBRANCH  30  31
ENDBRANCH   2  30
ENDBRANCH  25   2
ENDBRANCH  21  25
ENDBRANCH  15   5
ENDBRANCH   9  15
BRANCH  11  16
ATOM     16  C   UNL     1      -8.210  -8.703  17.131  0.00  0.00    +0.082 C 
BRANCH  16  20
ATOM      6  N   UNL     1      -9.701  -7.077  15.952  0.00  0.00    -0.342 N 
ATOM      7  N   UNL     1     -10.726  -8.741  17.011  0.00  0.00    -0.232 NA
ATOM     20  C   UNL     1      -9.564  -8.202  16.716  0.00  0.00    +0.109 A 
ATOM     22  C   UNL     1     -11.041  -6.876  15.740  0.00  0.00    +0.066 A 
ATOM     23  C   UNL     1     -11.659  -7.927  16.410  0.00  0.00    +0.092 A 
ATOM     24  C   UNL     1     -13.061  -8.022  16.392  0.00  0.00    -0.023 A 
ATOM     26  C   UNL     1     -11.744  -5.895  15.040  0.00  0.00    +0.028 A 
ATOM     27  C   UNL     1     -13.788  -7.048  15.695  0.00  0.00    +0.005 A 
ATOM     28  C   UNL     1     -13.138  -6.004  15.032  0.00  0.00    +0.002 A 
ATOM     29  C   UNL     1     -13.801  -9.118  17.086  0.00  0.00    +0.046 C 
ATOM     33  H   UNL     1      -8.951  -6.495  15.604  0.00  0.00    +0.167 HD
ENDBRANCH  16  20
ENDBRANCH  11  16
TORSDOF 10
ENDMDL
MODEL 6
REMARK VINA RESULT:      -6.0     27.798     31.038
REMARK  Name = 71693201
REMARK  14 active torsions:
REMARK  status: ('A' for Active; 'I' for Inactive)
REMARK    1  A    between atoms: O_2  and  C_25
REMARK    2  A    between atoms: O_2  and  C_30
REMARK    3  A    between atoms: O_3  and  C_31
REMARK    4  A    between atoms: N_5  and  C_15
REMARK    5  A    between atoms: C_8  and  C_12
REMARK    6  A    between atoms: C_9  and  C_15
REMARK    7  A    between atoms: C_11  and  C_16
REMARK    8  A    between atoms: C_12  and  C_17
REMARK    9  A    between atoms: C_12  and  C_18
REMARK   10  A    between atoms: C_13  and  C_19
REMARK   11  A    between atoms: C_16  and  C_20
REMARK   12  A    between atoms: C_21  and  C_25
REMARK   13  A    between atoms: C_24  and  C_29
REMARK   14  A    between atoms: C_30  and  C_31
REMARK                            x       y       z     vdW  Elec       q    Type
REMARK                         _______ _______ _______ _____ _____    ______ ____
ROOT
ATOM      8  C   UNL     1     -12.892   8.055  32.860  0.00  0.00    +0.000 C 
ATOM      9  C   UNL     1     -12.963   8.339  34.382  0.00  0.00    +0.032 C 
ATOM     10  C   UNL     1     -14.084   7.193  32.419  0.00  0.00    +0.012 C 
ATOM     11  C   UNL     1     -14.138   5.846  33.166  0.00  0.00    +0.022 C 
ATOM     13  C   UNL     1     -13.944   6.022  34.659  0.00  0.00    -0.073 C 
ATOM     14  C   UNL     1     -13.431   7.148  35.185  0.00  0.00    -0.022 C 
ATOM     19  C   UNL     1     -14.398   4.890  35.538  0.00  0.00    +0.039 C 
ENDROOT
BRANCH   8  12
ATOM     12  C   UNL     1     -12.856   9.348  32.041  0.00  0.00    -0.013 C 
ATOM     17  C   UNL     1     -11.624   9.375  31.141  0.00  0.00    +0.007 C 
ATOM     18  C   UNL     1     -14.131   9.492  31.218  0.00  0.00    +0.007 C 
ENDBRANCH   8  12
BRANCH   9  15
ATOM     15  C   UNL     1     -11.609   8.817  34.919  0.00  0.00    +0.112 C 
BRANCH  15   5
ATOM      1  O   UNL     1      -9.106   8.862  36.368  0.00  0.00    -0.273 OA
ATOM      5  N   UNL     1     -11.349   8.261  36.209  0.00  0.00    -0.313 N 
ATOM     21  C   UNL     1     -10.107   8.327  36.839  0.00  0.00    +0.239 C 
ATOM     32  H   UNL     1     -12.129   7.851  36.716  0.00  0.00    +0.149 HD
BRANCH  21  25
ATOM     25  C   UNL     1     -10.116   7.657  38.197  0.00  0.00    +0.256 C 
BRANCH  25   2
ATOM      2  O   UNL     1     -10.662   8.518  39.174  0.00  0.00    -0.359 OA
BRANCH   2  30
ATOM     30  C   UNL     1      -9.792   8.672  40.292  0.00  0.00    +0.280 C 
BRANCH  30  31
ATOM      4  O   UNL     1      -9.178   6.717  41.597  0.00  0.00    -0.248 OA
ATOM     31  C   UNL     1     -10.011   7.548  41.266  0.00  0.00    +0.331 C 
BRANCH  31   3
ATOM      3  O   UNL     1     -11.281   7.579  41.740  0.00  0.00    -0.479 OA
ATOM     34  H   UNL     1     -11.865   8.140  41.188  0.00  0.00    +0.295 HD
ENDBRANCH  31   3
ENDBRANCH  30  31
ENDBRANCH   2  30
ENDBRANCH  25   2
ENDBRANCH  21  25
ENDBRANCH  15   5
ENDBRANCH   9  15
BRANCH  11  16
ATOM     16  C   UNL     1     -13.117   4.857  32.593  0.00  0.00    +0.082 C 
BRANCH  16  20
ATOM      6  N   UNL     1     -13.856   2.473  32.424  0.00  0.00    -0.342 N 
ATOM      7  N   UNL     1     -14.380   3.776  30.701  0.00  0.00    -0.232 NA
ATOM     20  C   UNL     1     -13.794   3.724  31.876  0.00  0.00    +0.109 A 
ATOM     22  C   UNL     1     -14.528   1.664  31.544  0.00  0.00    +0.066 A 
ATOM     23  C   UNL     1     -14.845   2.499  30.478  0.00  0.00    +0.092 A 
ATOM     24  C   UNL     1     -15.549   1.974  29.381  0.00  0.00    -0.023 A 
ATOM     26  C   UNL     1     -14.875   0.313  31.589  0.00  0.00    +0.028 A 
ATOM     27  C   UNL     1     -15.908   0.621  29.404  0.00  0.00    +0.005 A 
ATOM     28  C   UNL     1     -15.575  -0.194  30.489  0.00  0.00    +0.002 A 
ATOM     29  C   UNL     1     -15.926   2.803  28.197  0.00  0.00    +0.046 C 
ATOM     33  H   UNL     1     -13.477   2.193  33.319  0.00  0.00    +0.167 HD
ENDBRANCH  16  20
ENDBRANCH  11  16
TORSDOF 10
ENDMDL
MODEL 7
REMARK VINA RESULT:      -5.8      6.902     10.194
REMARK  Name = 71693201
REMARK  14 active torsions:
REMARK  status: ('A' for Active; 'I' for Inactive)
REMARK    1  A    between atoms: O_2  and  C_25
REMARK    2  A    between atoms: O_2  and  C_30
REMARK    3  A    between atoms: O_3  and  C_31
REMARK    4  A    between atoms: N_5  and  C_15
REMARK    5  A    between atoms: C_8  and  C_12
REMARK    6  A    between atoms: C_9  and  C_15
REMARK    7  A    between atoms: C_11  and  C_16
REMARK    8  A    between atoms: C_12  and  C_17
REMARK    9  A    between atoms: C_12  and  C_18
REMARK   10  A    between atoms: C_13  and  C_19
REMARK   11  A    between atoms: C_16  and  C_20
REMARK   12  A    between atoms: C_21  and  C_25
REMARK   13  A    between atoms: C_24  and  C_29
REMARK   14  A    between atoms: C_30  and  C_31
REMARK                            x       y       z     vdW  Elec       q    Type
REMARK                         _______ _______ _______ _____ _____    ______ ____
ROOT
ATOM      8  C   UNL     1      20.522   5.806  21.666  0.00  0.00    +0.000 C 
ATOM      9  C   UNL     1      21.068   7.000  22.488  0.00  0.00    +0.032 C 
ATOM     10  C   UNL     1      19.734   6.309  20.447  0.00  0.00    +0.012 C 
ATOM     11  C   UNL     1      18.549   7.209  20.850  0.00  0.00    +0.022 C 
ATOM     13  C   UNL     1      18.955   8.251  21.872  0.00  0.00    -0.073 C 
ATOM     14  C   UNL     1      20.091   8.148  22.585  0.00  0.00    -0.022 C 
ATOM     19  C   UNL     1      18.046   9.439  22.023  0.00  0.00    +0.039 C 
ENDROOT
BRANCH   8  12
ATOM     12  C   UNL     1      21.644   4.871  21.207  0.00  0.00    -0.013 C 
ATOM     17  C   UNL     1      22.913   5.666  20.912  0.00  0.00    +0.007 C 
ATOM     18  C   UNL     1      21.909   3.801  22.260  0.00  0.00    +0.007 C 
ENDBRANCH   8  12
BRANCH   9  15
ATOM     15  C   UNL     1      21.478   6.559  23.899  0.00  0.00    +0.112 C 
BRANCH  15   5
ATOM      1  O   UNL     1      19.962   6.081  26.314  0.00  0.00    -0.273 OA
ATOM      5  N   UNL     1      21.076   7.527  24.870  0.00  0.00    -0.313 N 
ATOM     21  C   UNL     1      20.343   7.209  26.013  0.00  0.00    +0.239 C 
ATOM     32  H   UNL     1      21.397   8.483  24.750  0.00  0.00    +0.149 HD
BRANCH  21  25
ATOM     25  C   UNL     1      20.057   8.426  26.867  0.00  0.00    +0.256 C 
BRANCH  25   2
ATOM      2  O   UNL     1      20.680   8.307  28.129  0.00  0.00    -0.359 OA
BRANCH   2  30
ATOM     30  C   UNL     1      19.742   8.005  29.158  0.00  0.00    +0.280 C 
BRANCH  30  31
ATOM      4  O   UNL     1      20.860   6.493  30.697  0.00  0.00    -0.248 OA
ATOM     31  C   UNL     1      20.077   6.676  29.777  0.00  0.00    +0.331 C 
BRANCH  31   3
ATOM      3  O   UNL     1      19.379   5.686  29.167  0.00  0.00    -0.479 OA
ATOM     34  H   UNL     1      19.952   5.132  28.597  0.00  0.00    +0.295 HD
ENDBRANCH  31   3
ENDBRANCH  30  31
ENDBRANCH   2  30
ENDBRANCH  25   2
ENDBRANCH  21  25
ENDBRANCH  15   5
ENDBRANCH   9  15
BRANCH  11  16
ATOM     16  C   UNL     1      17.370   6.372  21.358  0.00  0.00    +0.082 C 
BRANCH  16  20
ATOM      6  N   UNL     1      16.150   7.162  19.322  0.00  0.00    -0.342 N 
ATOM      7  N   UNL     1      14.878   6.542  21.036  0.00  0.00    -0.232 NA
ATOM     20  C   UNL     1      16.110   6.682  20.601  0.00  0.00    +0.109 A 
ATOM     22  C   UNL     1      14.857   7.345  18.904  0.00  0.00    +0.066 A 
ATOM     23  C   UNL     1      14.082   6.952  19.989  0.00  0.00    +0.092 A 
ATOM     24  C   UNL     1      12.682   7.016  19.892  0.00  0.00    -0.023 A 
ATOM     26  C   UNL     1      14.316   7.807  17.703  0.00  0.00    +0.028 A 
ATOM     27  C   UNL     1      12.116   7.477  18.696  0.00  0.00    +0.005 A 
ATOM     28  C   UNL     1      12.921   7.866  17.623  0.00  0.00    +0.002 A 
ATOM     29  C   UNL     1      11.779   6.613  21.012  0.00  0.00    +0.046 C 
ATOM     33  H   UNL     1      16.983   7.349  18.780  0.00  0.00    +0.167 HD
ENDBRANCH  16  20
ENDBRANCH  11  16
TORSDOF 10
ENDMDL
MODEL 8
REMARK VINA RESULT:      -5.7      5.749     10.046
REMARK  Name = 71693201
REMARK  14 active torsions:
REMARK  status: ('A' for Active; 'I' for Inactive)
REMARK    1  A    between atoms: O_2  and  C_25
REMARK    2  A    between atoms: O_2  and  C_30
REMARK    3  A    between atoms: O_3  and  C_31
REMARK    4  A    between atoms: N_5  and  C_15
REMARK    5  A    between atoms: C_8  and  C_12
REMARK    6  A    between atoms: C_9  and  C_15
REMARK    7  A    between atoms: C_11  and  C_16
REMARK    8  A    between atoms: C_12  and  C_17
REMARK    9  A    between atoms: C_12  and  C_18
REMARK   10  A    between atoms: C_13  and  C_19
REMARK   11  A    between atoms: C_16  and  C_20
REMARK   12  A    between atoms: C_21  and  C_25
REMARK   13  A    between atoms: C_24  and  C_29
REMARK   14  A    between atoms: C_30  and  C_31
REMARK                            x       y       z     vdW  Elec       q    Type
REMARK                         _______ _______ _______ _____ _____    ______ ____
ROOT
ATOM      8  C   UNL     1      17.817   7.431  20.508  0.00  0.00    +0.000 C 
ATOM      9  C   UNL     1      17.581   8.689  21.382  0.00  0.00    +0.032 C 
ATOM     10  C   UNL     1      18.427   6.300  21.350  0.00  0.00    +0.012 C 
ATOM     11  C   UNL     1      19.767   6.709  21.992  0.00  0.00    +0.022 C 
ATOM     13  C   UNL     1      19.684   8.073  22.648  0.00  0.00    -0.073 C 
ATOM     14  C   UNL     1      18.692   8.938  22.373  0.00  0.00    -0.022 C 
ATOM     19  C   UNL     1      20.745   8.400  23.663  0.00  0.00    +0.039 C 
ENDROOT
BRANCH   8  12
ATOM     12  C   UNL     1      16.524   6.946  19.847  0.00  0.00    -0.013 C 
ATOM     17  C   UNL     1      16.821   5.827  18.854  0.00  0.00    +0.007 C 
ATOM     18  C   UNL     1      15.528   6.481  20.904  0.00  0.00    +0.007 C 
ENDBRANCH   8  12
BRANCH   9  15
ATOM     15  C   UNL     1      17.381   9.936  20.513  0.00  0.00    +0.112 C 
BRANCH  15   5
ATOM      1  O   UNL     1      15.283  11.890  20.890  0.00  0.00    -0.273 OA
ATOM      5  N   UNL     1      16.084   9.935  19.914  0.00  0.00    -0.313 N 
ATOM     21  C   UNL     1      15.128  10.921  20.151  0.00  0.00    +0.239 C 
ATOM     32  H   UNL     1      15.875   9.210  19.233  0.00  0.00    +0.149 HD
BRANCH  21  25
ATOM     25  C   UNL     1      13.845  10.672  19.386  0.00  0.00    +0.256 C 
BRANCH  25   2
ATOM      2  O   UNL     1      13.982   9.554  18.534  0.00  0.00    -0.359 OA
BRANCH   2  30
ATOM     30  C   UNL     1      13.629   9.866  17.189  0.00  0.00    +0.280 C 
BRANCH  30  31
ATOM      4  O   UNL     1      13.761   8.574  15.135  0.00  0.00    -0.248 OA
ATOM     31  C   UNL     1      13.659   8.617  16.352  0.00  0.00    +0.331 C 
BRANCH  31   3
ATOM      3  O   UNL     1      13.558   7.520  17.144  0.00  0.00    -0.479 OA
ATOM     34  H   UNL     1      13.114   7.722  17.994  0.00  0.00    +0.295 HD
ENDBRANCH  31   3
ENDBRANCH  30  31
ENDBRANCH   2  30
ENDBRANCH  25   2
ENDBRANCH  21  25
ENDBRANCH  15   5
ENDBRANCH   9  15
BRANCH  11  16
ATOM     16  C   UNL     1      20.907   6.660  20.969  0.00  0.00    +0.082 C 
BRANCH  16  20
ATOM      6  N   UNL     1      21.654   4.671  22.288  0.00  0.00    -0.342 N 
ATOM      7  N   UNL     1      22.730   5.027  20.376  0.00  0.00    -0.232 NA
ATOM     20  C   UNL     1      21.782   5.458  21.179  0.00  0.00    +0.109 A 
ATOM     22  C   UNL     1      22.580   3.664  22.197  0.00  0.00    +0.066 A 
ATOM     23  C   UNL     1      23.239   3.907  20.996  0.00  0.00    +0.092 A 
ATOM     24  C   UNL     1      24.270   3.042  20.592  0.00  0.00    -0.023 A 
ATOM     26  C   UNL     1      22.888   2.593  23.037  0.00  0.00    +0.028 A 
ATOM     27  C   UNL     1      24.597   1.960  21.419  0.00  0.00    +0.005 A 
ATOM     28  C   UNL     1      23.917   1.742  22.620  0.00  0.00    +0.002 A 
ATOM     29  C   UNL     1      25.026   3.234  19.318  0.00  0.00    +0.046 C 
ATOM     33  H   UNL     1      20.994   4.805  23.043  0.00  0.00    +0.167 HD
ENDBRANCH  16  20
ENDBRANCH  11  16
TORSDOF 10
ENDMDL
MODEL 9
REMARK VINA RESULT:      -5.7     18.993     23.140
REMARK  Name = 71693201
REMARK  14 active torsions:
REMARK  status: ('A' for Active; 'I' for Inactive)
REMARK    1  A    between atoms: O_2  and  C_25
REMARK    2  A    between atoms: O_2  and  C_30
REMARK    3  A    between atoms: O_3  and  C_31
REMARK    4  A    between atoms: N_5  and  C_15
REMARK    5  A    between atoms: C_8  and  C_12
REMARK    6  A    between atoms: C_9  and  C_15
REMARK    7  A    between atoms: C_11  and  C_16
REMARK    8  A    between atoms: C_12  and  C_17
REMARK    9  A    between atoms: C_12  and  C_18
REMARK   10  A    between atoms: C_13  and  C_19
REMARK   11  A    between atoms: C_16  and  C_20
REMARK   12  A    between atoms: C_21  and  C_25
REMARK   13  A    between atoms: C_24  and  C_29
REMARK   14  A    between atoms: C_30  and  C_31
REMARK                            x       y       z     vdW  Elec       q    Type
REMARK                         _______ _______ _______ _____ _____    ______ ____
ROOT
ATOM      8  C   UNL     1      -4.793  11.121  35.542  0.00  0.00    +0.000 C 
ATOM      9  C   UNL     1      -3.905  12.347  35.208  0.00  0.00    +0.032 C 
ATOM     10  C   UNL     1      -4.551  10.663  36.988  0.00  0.00    +0.012 C 
ATOM     11  C   UNL     1      -3.078  10.285  37.241  0.00  0.00    +0.022 C 
ATOM     13  C   UNL     1      -2.127  11.330  36.693  0.00  0.00    -0.073 C 
ATOM     14  C   UNL     1      -2.518  12.251  35.796  0.00  0.00    -0.022 C 
ATOM     19  C   UNL     1      -0.724  11.318  37.237  0.00  0.00    +0.039 C 
ENDROOT
BRANCH   8  12
ATOM     12  C   UNL     1      -6.280  11.422  35.335  0.00  0.00    -0.013 C 
ATOM     17  C   UNL     1      -7.121  10.186  35.642  0.00  0.00    +0.007 C 
ATOM     18  C   UNL     1      -6.711  12.598  36.204  0.00  0.00    +0.007 C 
ENDBRANCH   8  12
BRANCH   9  15
ATOM     15  C   UNL     1      -3.805  12.559  33.692  0.00  0.00    +0.112 C 
BRANCH  15   5
ATOM      1  O   UNL     1      -3.425  14.146  31.304  0.00  0.00    -0.273 OA
ATOM      5  N   UNL     1      -2.675  13.373  33.368  0.00  0.00    -0.313 N 
ATOM     21  C   UNL     1      -2.573  14.110  32.189  0.00  0.00    +0.239 C 
ATOM     32  H   UNL     1      -1.940  13.465  34.063  0.00  0.00    +0.149 HD
BRANCH  21  25
ATOM     25  C   UNL     1      -1.273  14.881  32.106  0.00  0.00    +0.256 C 
BRANCH  25   2
ATOM      2  O   UNL     1      -0.190  14.008  31.863  0.00  0.00    -0.359 OA
BRANCH   2  30
ATOM     30  C   UNL     1       0.879  14.218  32.783  0.00  0.00    +0.280 C 
BRANCH  30  31
ATOM      4  O   UNL     1       0.826  13.740  35.164  0.00  0.00    -0.248 OA
ATOM     31  C   UNL     1       0.667  13.375  34.009  0.00  0.00    +0.331 C 
BRANCH  31   3
ATOM      3  O   UNL     1       0.267  12.127  33.656  0.00  0.00    -0.479 OA
ATOM     34  H   UNL     1       0.331  11.982  32.689  0.00  0.00    +0.295 HD
ENDBRANCH  31   3
ENDBRANCH  30  31
ENDBRANCH   2  30
ENDBRANCH  25   2
ENDBRANCH  21  25
ENDBRANCH  15   5
ENDBRANCH   9  15
BRANCH  11  16
ATOM     16  C   UNL     1      -2.759   8.899  36.671  0.00  0.00    +0.082 C 
BRANCH  16  20
ATOM      6  N   UNL     1      -1.140   7.293  37.700  0.00  0.00    -0.342 N 
ATOM      7  N   UNL     1      -3.027   7.623  38.827  0.00  0.00    -0.232 NA
ATOM     20  C   UNL     1      -2.341   7.943  37.752  0.00  0.00    +0.109 A 
ATOM     22  C   UNL     1      -1.045   6.500  38.814  0.00  0.00    +0.066 A 
ATOM     23  C   UNL     1      -2.233   6.724  39.502  0.00  0.00    +0.092 A 
ATOM     24  C   UNL     1      -2.462   6.050  40.714  0.00  0.00    -0.023 A 
ATOM     26  C   UNL     1      -0.050   5.633  39.267  0.00  0.00    +0.028 A 
ATOM     27  C   UNL     1      -1.477   5.175  41.187  0.00  0.00    +0.005 A 
ATOM     28  C   UNL     1      -0.292   4.971  40.474  0.00  0.00    +0.002 A 
ATOM     29  C   UNL     1      -3.711   6.234  41.511  0.00  0.00    +0.046 C 
ATOM     33  H   UNL     1      -0.444   7.380  36.971  0.00  0.00    +0.167 HD
ENDBRANCH  16  20
ENDBRANCH  11  16
TORSDOF 10
ENDMDL
MODEL 10
REMARK VINA RESULT:      -5.6     13.536     18.912
REMARK  Name = 71693201
REMARK  14 active torsions:
REMARK  status: ('A' for Active; 'I' for Inactive)
REMARK    1  A    between atoms: O_2  and  C_25
REMARK    2  A    between atoms: O_2  and  C_30
REMARK    3  A    between atoms: O_3  and  C_31
REMARK    4  A    between atoms: N_5  and  C_15
REMARK    5  A    between atoms: C_8  and  C_12
REMARK    6  A    between atoms: C_9  and  C_15
REMARK    7  A    between atoms: C_11  and  C_16
REMARK    8  A    between atoms: C_12  and  C_17
REMARK    9  A    between atoms: C_12  and  C_18
REMARK   10  A    between atoms: C_13  and  C_19
REMARK   11  A    between atoms: C_16  and  C_20
REMARK   12  A    between atoms: C_21  and  C_25
REMARK   13  A    between atoms: C_24  and  C_29
REMARK   14  A    between atoms: C_30  and  C_31
REMARK                            x       y       z     vdW  Elec       q    Type
REMARK                         _______ _______ _______ _____ _____    ______ ____
ROOT
ATOM      8  C   UNL     1       8.897   8.671   2.745  0.00  0.00    +0.000 C 
ATOM      9  C   UNL     1       7.989   8.041   3.832  0.00  0.00    +0.032 C 
ATOM     10  C   UNL     1       9.512   7.577   1.860  0.00  0.00    +0.012 C 
ATOM     11  C   UNL     1      10.349   6.570   2.673  0.00  0.00    +0.022 C 
ATOM     13  C   UNL     1       9.618   6.105   3.917  0.00  0.00    -0.073 C 
ATOM     14  C   UNL     1       8.557   6.767   4.411  0.00  0.00    -0.022 C 
ATOM     19  C   UNL     1      10.107   4.833   4.553  0.00  0.00    +0.039 C 
ENDROOT
BRANCH   8  12
ATOM     12  C   UNL     1       8.132   9.672   1.875  0.00  0.00    -0.013 C 
ATOM     17  C   UNL     1       8.769  11.055   1.969  0.00  0.00    +0.007 C 
ATOM     18  C   UNL     1       8.087   9.194   0.428  0.00  0.00    +0.007 C 
ENDBRANCH   8  12
BRANCH   9  15
ATOM     15  C   UNL     1       7.709   9.037   4.964  0.00  0.00    +0.112 C 
BRANCH  15   5
ATOM      1  O   UNL     1       9.786   9.906   6.778  0.00  0.00    -0.273 OA
ATOM      5  N   UNL     1       8.039   8.469   6.233  0.00  0.00    -0.313 N 
ATOM     21  C   UNL     1       9.061   8.953   7.048  0.00  0.00    +0.239 C 
ATOM     32  H   UNL     1       7.455   7.714   6.582  0.00  0.00    +0.149 HD
BRANCH  21  25
ATOM     25  C   UNL     1       9.189   8.164   8.334  0.00  0.00    +0.256 C 
BRANCH  25   2
ATOM      2  O   UNL     1       8.921   6.796   8.110  0.00  0.00    -0.359 OA
BRANCH   2  30
ATOM     30  C   UNL     1       9.983   5.964   8.570  0.00  0.00    +0.280 C 
BRANCH  30  31
ATOM      4  O   UNL     1       9.564   3.572   8.618  0.00  0.00    -0.248 OA
ATOM     31  C   UNL     1       9.424   4.679   9.114  0.00  0.00    +0.331 C 
BRANCH  31   3
ATOM      3  O   UNL     1       8.728   4.917  10.255  0.00  0.00    -0.479 OA
ATOM     34  H   UNL     1       8.190   4.143  10.523  0.00  0.00    +0.295 HD
ENDBRANCH  31   3
ENDBRANCH  30  31
ENDBRANCH   2  30
ENDBRANCH  25   2
ENDBRANCH  21  25
ENDBRANCH  15   5
ENDBRANCH   9  15
BRANCH  11  16
ATOM     16  C   UNL     1      11.720   7.155   3.030  0.00  0.00    +0.082 C 
BRANCH  16  20
ATOM      6  N   UNL     1      13.107   5.155   2.455  0.00  0.00    -0.342 N 
ATOM      7  N   UNL     1      13.609   7.028   1.368  0.00  0.00    -0.232 NA
ATOM     20  C   UNL     1      12.821   6.478   2.266  0.00  0.00    +0.109 A 
ATOM     22  C   UNL     1      14.149   4.829   1.625  0.00  0.00    +0.066 A 
ATOM     23  C   UNL     1      14.444   6.013   0.957  0.00  0.00    +0.092 A 
ATOM     24  C   UNL     1      15.484   6.028   0.013  0.00  0.00    -0.023 A 
ATOM     26  C   UNL     1      14.838   3.635   1.408  0.00  0.00    +0.028 A 
ATOM     27  C   UNL     1      16.190   4.841  -0.222  0.00  0.00    +0.005 A 
ATOM     28  C   UNL     1      15.871   3.666   0.465  0.00  0.00    +0.002 A 
ATOM     29  C   UNL     1      15.863   7.257  -0.746  0.00  0.00    +0.046 C 
ATOM     33  H   UNL     1      12.637   4.527   3.093  0.00  0.00    +0.167 HD
ENDBRANCH  16  20
ENDBRANCH  11  16
TORSDOF 10
ENDMDL
