MODEL 1
REMARK VINA RESULT:      -7.0      0.000      0.000
REMARK  Name = 45360511
REMARK  12 active torsions:
REMARK  status: ('A' for Active; 'I' for Inactive)
REMARK    1  A    between atoms: O_5  and  C_24
REMARK    2  A    between atoms: N_8  and  C_17
REMARK    3  A    between atoms: N_9  and  C_26
REMARK    4  A    between atoms: N_10  and  C_35
REMARK    5  A    between atoms: N_10  and  C_38
REMARK    6  A    between atoms: N_10  and  C_39
REMARK    7  A    between atoms: C_11  and  C_15
REMARK    8  A    between atoms: C_12  and  C_18
REMARK    9  A    between atoms: C_15  and  C_17
REMARK   10  A    between atoms: C_18  and  C_24
REMARK   11  A    between atoms: C_21  and  C_25
REMARK   12  A    between atoms: C_31  and  C_37
REMARK                            x       y       z     vdW  Elec       q    Type
REMARK                         _______ _______ _______ _____ _____    ______ ____
ROOT
ATOM      4  O   UNL     1      21.392   9.438  23.618  0.00  0.00    -0.270 OA
ATOM      7  N   UNL     1      21.737   7.960  21.837  0.00  0.00    -0.297 N 
ATOM     11  C   UNL     1      20.948   6.074  20.425  0.00  0.00    +0.011 C 
ATOM     12  C   UNL     1      21.929   5.146  21.186  0.00  0.00    +0.006 C 
ATOM     13  C   UNL     1      21.463   7.525  20.461  0.00  0.00    +0.112 C 
ATOM     14  C   UNL     1      22.221   5.670  22.602  0.00  0.00    +0.023 C 
ATOM     16  C   UNL     1      22.684   7.123  22.570  0.00  0.00    +0.108 C 
ATOM     21  C   UNL     1      21.170   9.073  22.465  0.00  0.00    +0.247 C 
ENDROOT
BRANCH  21  25
ATOM     25  C   UNL     1      20.223   9.889  21.698  0.00  0.00    +0.037 A 
ATOM     27  C   UNL     1      18.855   9.629  21.776  0.00  0.00    +0.015 A 
ATOM     28  C   UNL     1      20.691  10.926  20.891  0.00  0.00    +0.015 A 
ATOM     32  C   UNL     1      17.955  10.405  21.047  0.00  0.00    +0.024 A 
ATOM     33  C   UNL     1      19.790  11.703  20.161  0.00  0.00    +0.024 A 
ATOM     35  C   UNL     1      18.423  11.441  20.239  0.00  0.00    +0.029 A 
BRANCH  35  10
ATOM     10  N   UNL     1      17.512  12.227  19.501  0.00  0.00    -0.336 N 
ATOM     38  C   UNL     1      16.148  11.778  19.303  0.00  0.00    +0.129 C 
ATOM     39  C   UNL     1      17.931  13.489  18.924  0.00  0.00    +0.129 C 
ENDBRANCH  35  10
ENDBRANCH  21  25
BRANCH  11  15
ATOM     15  C   UNL     1      19.505   6.009  20.941  0.00  0.00    +0.020 C 
BRANCH  15  17
ATOM     17  C   UNL     1      18.520   5.881  19.787  0.00  0.00    +0.085 C 
BRANCH  17   8
ATOM      8  N   UNL     1      17.330   6.685  20.057  0.00  0.00    -0.299 NA
ATOM      9  N   UNL     1      14.634   7.162  20.871  0.00  0.00    -0.327 N 
ATOM     19  C   UNL     1      16.211   6.251  19.212  0.00  0.00    +0.103 C 
ATOM     20  C   UNL     1      16.953   6.589  21.472  0.00  0.00    +0.103 C 
ATOM     22  C   UNL     1      14.976   7.123  19.444  0.00  0.00    +0.120 C 
ATOM     23  C   UNL     1      15.742   7.472  21.781  0.00  0.00    +0.120 C 
BRANCH   9  26
ATOM     26  C   UNL     1      13.326   7.513  21.225  0.00  0.00    +0.030 A 
ATOM     29  C   UNL     1      13.061   8.781  21.744  0.00  0.00    +0.035 A 
ATOM     30  C   UNL     1      12.289   6.597  21.059  0.00  0.00    +0.023 A 
ATOM     31  C   UNL     1      11.758   9.132  22.095  0.00  0.00    +0.057 A 
ATOM     34  C   UNL     1      10.985   6.947  21.411  0.00  0.00    +0.002 A 
ATOM     36  C   UNL     1      10.720   8.216  21.929  0.00  0.00    +0.012 A 
BRANCH  31  37
ATOM      1  F   UNL     1      10.534  10.489  23.639  0.00  0.00    -0.166 F 
ATOM      2  F   UNL     1      11.011  11.354  21.703  0.00  0.00    -0.166 F 
ATOM      3  F   UNL     1      12.569  11.093  23.198  0.00  0.00    -0.166 F 
ATOM     37  C   UNL     1      11.476  10.487  22.649  0.00  0.00    +0.417 C 
ENDBRANCH  31  37
ENDBRANCH   9  26
ENDBRANCH  17   8
ENDBRANCH  15  17
ENDBRANCH  11  15
BRANCH  12  18
ATOM     18  C   UNL     1      21.465   3.691  21.235  0.00  0.00    +0.124 C 
BRANCH  18  24
ATOM      6  O   UNL     1      23.168   2.460  22.471  0.00  0.00    -0.251 OA
ATOM     24  C   UNL     1      22.619   2.744  21.416  0.00  0.00    +0.305 C 
BRANCH  24   5
ATOM      5  O   UNL     1      22.983   2.230  20.213  0.00  0.00    -0.481 OA
ATOM     40  H   UNL     1      22.799   1.269  20.157  0.00  0.00    +0.295 HD
ENDBRANCH  24   5
ENDBRANCH  18  24
ENDBRANCH  12  18
TORSDOF 10
ENDMDL
MODEL 2
REMARK VINA RESULT:      -6.8     28.751     32.201
REMARK  Name = 45360511
REMARK  12 active torsions:
REMARK  status: ('A' for Active; 'I' for Inactive)
REMARK    1  A    between atoms: O_5  and  C_24
REMARK    2  A    between atoms: N_8  and  C_17
REMARK    3  A    between atoms: N_9  and  C_26
REMARK    4  A    between atoms: N_10  and  C_35
REMARK    5  A    between atoms: N_10  and  C_38
REMARK    6  A    between atoms: N_10  and  C_39
REMARK    7  A    between atoms: C_11  and  C_15
REMARK    8  A    between atoms: C_12  and  C_18
REMARK    9  A    between atoms: C_15  and  C_17
REMARK   10  A    between atoms: C_18  and  C_24
REMARK   11  A    between atoms: C_21  and  C_25
REMARK   12  A    between atoms: C_31  and  C_37
REMARK                            x       y       z     vdW  Elec       q    Type
REMARK                         _______ _______ _______ _____ _____    ______ ____
ROOT
ATOM      4  O   UNL     1      -5.335 -10.404   6.569  0.00  0.00    -0.270 OA
ATOM      7  N   UNL     1      -6.607  -8.878   7.806  0.00  0.00    -0.297 N 
ATOM     11  C   UNL     1      -8.367  -8.422   9.498  0.00  0.00    +0.011 C 
ATOM     12  C   UNL     1      -9.330  -8.054   8.341  0.00  0.00    +0.006 C 
ATOM     13  C   UNL     1      -6.909  -8.184   9.065  0.00  0.00    +0.112 C 
ATOM     14  C   UNL     1      -8.944  -8.768   7.035  0.00  0.00    +0.023 C 
ATOM     16  C   UNL     1      -7.478  -8.528   6.686  0.00  0.00    +0.108 C 
ATOM     21  C   UNL     1      -5.588  -9.817   7.620  0.00  0.00    +0.247 C 
ENDROOT
BRANCH  21  25
ATOM     25  C   UNL     1      -4.734 -10.143   8.766  0.00  0.00    +0.037 A 
ATOM     27  C   UNL     1      -4.761 -11.427   9.313  0.00  0.00    +0.015 A 
ATOM     28  C   UNL     1      -3.895  -9.171   9.310  0.00  0.00    +0.015 A 
ATOM     32  C   UNL     1      -3.950 -11.737  10.404  0.00  0.00    +0.024 A 
ATOM     33  C   UNL     1      -3.083  -9.482  10.401  0.00  0.00    +0.024 A 
ATOM     35  C   UNL     1      -3.111 -10.764  10.948  0.00  0.00    +0.029 A 
BRANCH  35  10
ATOM     10  N   UNL     1      -2.290 -11.078  12.052  0.00  0.00    -0.336 N 
ATOM     38  C   UNL     1      -2.266 -12.424  12.589  0.00  0.00    +0.129 C 
ATOM     39  C   UNL     1      -1.465 -10.057  12.667  0.00  0.00    +0.129 C 
ENDBRANCH  35  10
ENDBRANCH  21  25
BRANCH  11  15
ATOM     15  C   UNL     1      -8.541  -9.854  10.020  0.00  0.00    +0.020 C 
BRANCH  15  17
ATOM     17  C   UNL     1      -9.243  -9.859  11.371  0.00  0.00    +0.085 C 
BRANCH  17   8
ATOM      8  N   UNL     1      -8.269  -9.631  12.438  0.00  0.00    -0.299 NA
ATOM      9  N   UNL     1      -6.422 -10.377  14.485  0.00  0.00    -0.327 N 
ATOM     19  C   UNL     1      -8.752 -10.193  13.705  0.00  0.00    +0.103 C 
ATOM     20  C   UNL     1      -6.974 -10.228  12.089  0.00  0.00    +0.103 C 
ATOM     22  C   UNL     1      -7.768  -9.910  14.841  0.00  0.00    +0.120 C 
ATOM     23  C   UNL     1      -5.930  -9.948  13.172  0.00  0.00    +0.120 C 
BRANCH   9  26
ATOM     26  C   UNL     1      -5.514 -10.619  15.522  0.00  0.00    +0.030 A 
ATOM     29  C   UNL     1      -5.978 -10.808  16.824  0.00  0.00    +0.035 A 
ATOM     30  C   UNL     1      -4.147 -10.672  15.254  0.00  0.00    +0.023 A 
ATOM     31  C   UNL     1      -5.073 -11.050  17.858  0.00  0.00    +0.057 A 
ATOM     34  C   UNL     1      -3.242 -10.913  16.287  0.00  0.00    +0.002 A 
ATOM     36  C   UNL     1      -3.706 -11.103  17.590  0.00  0.00    +0.012 A 
BRANCH  31  37
ATOM      1  F   UNL     1      -6.650 -12.083  19.330  0.00  0.00    -0.166 F 
ATOM      2  F   UNL     1      -5.960 -10.086  19.841  0.00  0.00    -0.166 F 
ATOM      3  F   UNL     1      -4.640 -11.797  20.089  0.00  0.00    -0.166 F 
ATOM     37  C   UNL     1      -5.569 -11.253  19.249  0.00  0.00    +0.417 C 
ENDBRANCH  31  37
ENDBRANCH   9  26
ENDBRANCH  17   8
ENDBRANCH  15  17
ENDBRANCH  11  15
BRANCH  12  18
ATOM     18  C   UNL     1     -10.799  -8.305   8.678  0.00  0.00    +0.124 C 
BRANCH  18  24
ATOM      6  O   UNL     1     -11.937  -6.707  10.125  0.00  0.00    -0.251 OA
ATOM     24  C   UNL     1     -11.517  -7.029   9.024  0.00  0.00    +0.305 C 
BRANCH  24   5
ATOM      5  O   UNL     1     -11.638  -6.256   7.914  0.00  0.00    -0.481 OA
ATOM     40  H   UNL     1     -11.575  -5.301   8.126  0.00  0.00    +0.295 HD
ENDBRANCH  24   5
ENDBRANCH  18  24
ENDBRANCH  12  18
TORSDOF 10
ENDMDL
MODEL 3
REMARK VINA RESULT:      -6.8     28.917     32.014
REMARK  Name = 45360511
REMARK  12 active torsions:
REMARK  status: ('A' for Active; 'I' for Inactive)
REMARK    1  A    between atoms: O_5  and  C_24
REMARK    2  A    between atoms: N_8  and  C_17
REMARK    3  A    between atoms: N_9  and  C_26
REMARK    4  A    between atoms: N_10  and  C_35
REMARK    5  A    between atoms: N_10  and  C_38
REMARK    6  A    between atoms: N_10  and  C_39
REMARK    7  A    between atoms: C_11  and  C_15
REMARK    8  A    between atoms: C_12  and  C_18
REMARK    9  A    between atoms: C_15  and  C_17
REMARK   10  A    between atoms: C_18  and  C_24
REMARK   11  A    between atoms: C_21  and  C_25
REMARK   12  A    between atoms: C_31  and  C_37
REMARK                            x       y       z     vdW  Elec       q    Type
REMARK                         _______ _______ _______ _____ _____    ______ ____
ROOT
ATOM      4  O   UNL     1      -8.718 -10.964  18.673  0.00  0.00    -0.270 OA
ATOM      7  N   UNL     1      -6.798 -10.073  17.676  0.00  0.00    -0.297 N 
ATOM     11  C   UNL     1      -5.206  -9.993  15.771  0.00  0.00    +0.011 C 
ATOM     12  C   UNL     1      -4.200 -10.803  16.629  0.00  0.00    +0.006 C 
ATOM     13  C   UNL     1      -6.156  -9.199  16.686  0.00  0.00    +0.112 C 
ATOM     14  C   UNL     1      -4.918 -11.664  17.681  0.00  0.00    +0.023 C 
ATOM     16  C   UNL     1      -5.875 -10.826  18.523  0.00  0.00    +0.108 C 
ATOM     21  C   UNL     1      -8.177 -10.229  17.850  0.00  0.00    +0.247 C 
ENDROOT
BRANCH  21  25
ATOM     25  C   UNL     1      -9.072  -9.458  16.981  0.00  0.00    +0.037 A 
ATOM     27  C   UNL     1      -9.414  -9.949  15.721  0.00  0.00    +0.015 A 
ATOM     28  C   UNL     1      -9.582  -8.235  17.416  0.00  0.00    +0.015 A 
ATOM     32  C   UNL     1     -10.266  -9.215  14.895  0.00  0.00    +0.024 A 
ATOM     33  C   UNL     1     -10.434  -7.501  16.590  0.00  0.00    +0.024 A 
ATOM     35  C   UNL     1     -10.774  -7.991  15.330  0.00  0.00    +0.029 A 
BRANCH  35  10
ATOM     10  N   UNL     1     -11.636  -7.248  14.494  0.00  0.00    -0.336 N 
ATOM     38  C   UNL     1     -11.875  -5.842  14.752  0.00  0.00    +0.129 C 
ATOM     39  C   UNL     1     -12.300  -7.884  13.374  0.00  0.00    +0.129 C 
ENDBRANCH  35  10
ENDBRANCH  21  25
BRANCH  11  15
ATOM     15  C   UNL     1      -6.009 -10.849  14.783  0.00  0.00    +0.020 C 
BRANCH  15  17
ATOM     17  C   UNL     1      -5.326 -10.896  13.424  0.00  0.00    +0.085 C 
BRANCH  17   8
ATOM      8  N   UNL     1      -5.956  -9.938  12.517  0.00  0.00    -0.299 NA
ATOM      9  N   UNL     1      -7.013  -9.006  10.032  0.00  0.00    -0.327 N 
ATOM     19  C   UNL     1      -5.057  -9.616  11.402  0.00  0.00    +0.103 C 
ATOM     20  C   UNL     1      -7.221 -10.474  12.000  0.00  0.00    +0.103 C 
ATOM     22  C   UNL     1      -5.683  -8.570  10.477  0.00  0.00    +0.120 C 
ATOM     23  C   UNL     1      -7.919  -9.458  11.093  0.00  0.00    +0.120 C 
BRANCH   9  26
ATOM     26  C   UNL     1      -7.537  -8.434   8.868  0.00  0.00    +0.030 A 
ATOM     29  C   UNL     1      -7.162  -8.928   7.619  0.00  0.00    +0.035 A 
ATOM     30  C   UNL     1      -8.434  -7.370   8.957  0.00  0.00    +0.023 A 
ATOM     31  C   UNL     1      -7.685  -8.359   6.458  0.00  0.00    +0.057 A 
ATOM     34  C   UNL     1      -8.957  -6.799   7.796  0.00  0.00    +0.002 A 
ATOM     36  C   UNL     1      -8.582  -7.295   6.546  0.00  0.00    +0.012 A 
BRANCH  31  37
ATOM      1  F   UNL     1      -8.274  -9.584   4.490  0.00  0.00    -0.166 F 
ATOM      2  F   UNL     1      -6.224  -9.744   5.195  0.00  0.00    -0.166 F 
ATOM      3  F   UNL     1      -6.912  -7.917   4.238  0.00  0.00    -0.166 F 
ATOM     37  C   UNL     1      -7.285  -8.887   5.123  0.00  0.00    +0.417 C 
ENDBRANCH  31  37
ENDBRANCH   9  26
ENDBRANCH  17   8
ENDBRANCH  15  17
ENDBRANCH  11  15
BRANCH  12  18
ATOM     18  C   UNL     1      -3.247 -11.656  15.793  0.00  0.00    +0.124 C 
BRANCH  18  24
ATOM      6  O   UNL     1      -1.683 -10.337  14.468  0.00  0.00    -0.251 OA
ATOM     24  C   UNL     1      -1.963 -10.930  15.499  0.00  0.00    +0.305 C 
BRANCH  24   5
ATOM      5  O   UNL     1      -1.129 -11.025  16.566  0.00  0.00    -0.481 OA
ATOM     40  H   UNL     1      -1.246 -11.871  17.047  0.00  0.00    +0.295 HD
ENDBRANCH  24   5
ENDBRANCH  18  24
ENDBRANCH  12  18
TORSDOF 10
ENDMDL
MODEL 4
REMARK VINA RESULT:      -6.7     29.079     33.168
REMARK  Name = 45360511
REMARK  12 active torsions:
REMARK  status: ('A' for Active; 'I' for Inactive)
REMARK    1  A    between atoms: O_5  and  C_24
REMARK    2  A    between atoms: N_8  and  C_17
REMARK    3  A    between atoms: N_9  and  C_26
REMARK    4  A    between atoms: N_10  and  C_35
REMARK    5  A    between atoms: N_10  and  C_38
REMARK    6  A    between atoms: N_10  and  C_39
REMARK    7  A    between atoms: C_11  and  C_15
REMARK    8  A    between atoms: C_12  and  C_18
REMARK    9  A    between atoms: C_15  and  C_17
REMARK   10  A    between atoms: C_18  and  C_24
REMARK   11  A    between atoms: C_21  and  C_25
REMARK   12  A    between atoms: C_31  and  C_37
REMARK                            x       y       z     vdW  Elec       q    Type
REMARK                         _______ _______ _______ _____ _____    ______ ____
ROOT
ATOM      4  O   UNL     1      -6.563 -11.170  20.436  0.00  0.00    -0.270 OA
ATOM      7  N   UNL     1      -8.435 -11.464  19.063  0.00  0.00    -0.297 N 
ATOM     11  C   UNL     1     -10.145 -10.517  17.529  0.00  0.00    +0.011 C 
ATOM     12  C   UNL     1     -11.171 -10.597  18.687  0.00  0.00    +0.006 C 
ATOM     13  C   UNL     1      -9.042 -11.573  17.730  0.00  0.00    +0.112 C 
ATOM     14  C   UNL     1     -10.483 -10.526  20.060  0.00  0.00    +0.023 C 
ATOM     16  C   UNL     1      -9.374 -11.569  20.177  0.00  0.00    +0.108 C 
ATOM     21  C   UNL     1      -7.075 -11.268  19.322  0.00  0.00    +0.247 C 
ENDROOT
BRANCH  21  25
ATOM     25  C   UNL     1      -6.163 -11.167  18.179  0.00  0.00    +0.037 A 
ATOM     27  C   UNL     1      -5.356 -12.252  17.832  0.00  0.00    +0.015 A 
ATOM     28  C   UNL     1      -6.101  -9.987  17.437  0.00  0.00    +0.015 A 
ATOM     32  C   UNL     1      -4.488 -12.155  16.745  0.00  0.00    +0.024 A 
ATOM     33  C   UNL     1      -5.233  -9.891  16.350  0.00  0.00    +0.024 A 
ATOM     35  C   UNL     1      -4.426 -10.975  16.005  0.00  0.00    +0.029 A 
BRANCH  35  10
ATOM     10  N   UNL     1      -3.548 -10.877  14.904  0.00  0.00    -0.336 N 
ATOM     38  C   UNL     1      -2.115 -10.974  15.099  0.00  0.00    +0.129 C 
ATOM     39  C   UNL     1      -4.067 -10.671  13.567  0.00  0.00    +0.129 C 
ENDBRANCH  35  10
ENDBRANCH  21  25
BRANCH  11  15
ATOM     15  C   UNL     1      -9.522  -9.127  17.345  0.00  0.00    +0.020 C 
BRANCH  15  17
ATOM     17  C   UNL     1      -9.373  -8.789  15.868  0.00  0.00    +0.085 C 
BRANCH  17   8
ATOM      8  N   UNL     1     -10.538  -8.035  15.410  0.00  0.00    -0.299 NA
ATOM      9  N   UNL     1     -11.956  -6.153  13.795  0.00  0.00    -0.327 N 
ATOM     19  C   UNL     1     -10.322  -6.593  15.585  0.00  0.00    +0.103 C 
ATOM     20  C   UNL     1     -10.819  -8.329  13.999  0.00  0.00    +0.103 C 
ATOM     22  C   UNL     1     -11.557  -5.797  15.162  0.00  0.00    +0.120 C 
ATOM     23  C   UNL     1     -12.071  -7.589  13.522  0.00  0.00    +0.120 C 
BRANCH   9  26
ATOM     26  C   UNL     1     -12.749  -5.246  13.084  0.00  0.00    +0.030 A 
ATOM     29  C   UNL     1     -12.416  -4.908  11.772  0.00  0.00    +0.035 A 
ATOM     30  C   UNL     1     -13.871  -4.679  13.686  0.00  0.00    +0.023 A 
ATOM     31  C   UNL     1     -13.207  -4.004  11.062  0.00  0.00    +0.057 A 
ATOM     34  C   UNL     1     -14.662  -3.774  12.977  0.00  0.00    +0.002 A 
ATOM     36  C   UNL     1     -14.329  -3.437  11.665  0.00  0.00    +0.012 A 
BRANCH  31  37
ATOM      1  F   UNL     1     -13.641  -2.665   9.129  0.00  0.00    -0.166 F 
ATOM      2  F   UNL     1     -12.954  -4.702   8.804  0.00  0.00    -0.166 F 
ATOM      3  F   UNL     1     -11.573  -3.183   9.521  0.00  0.00    -0.166 F 
ATOM     37  C   UNL     1     -12.850  -3.644   9.660  0.00  0.00    +0.417 C 
ENDBRANCH  31  37
ENDBRANCH   9  26
ENDBRANCH  17   8
ENDBRANCH  15  17
ENDBRANCH  11  15
BRANCH  12  18
ATOM     18  C   UNL     1     -12.277  -9.548  18.584  0.00  0.00    +0.124 C 
BRANCH  18  24
ATOM      6  O   UNL     1     -13.489  -9.136  16.509  0.00  0.00    -0.251 OA
ATOM     24  C   UNL     1     -13.233  -9.855  17.464  0.00  0.00    +0.305 C 
BRANCH  24   5
ATOM      5  O   UNL     1     -13.792 -11.076  17.661  0.00  0.00    -0.481 OA
ATOM     40  H   UNL     1     -13.492 -11.727  16.991  0.00  0.00    +0.295 HD
ENDBRANCH  24   5
ENDBRANCH  18  24
ENDBRANCH  12  18
TORSDOF 10
ENDMDL
MODEL 5
REMARK VINA RESULT:      -6.6     29.145     31.873
REMARK  Name = 45360511
REMARK  12 active torsions:
REMARK  status: ('A' for Active; 'I' for Inactive)
REMARK    1  A    between atoms: O_5  and  C_24
REMARK    2  A    between atoms: N_8  and  C_17
REMARK    3  A    between atoms: N_9  and  C_26
REMARK    4  A    between atoms: N_10  and  C_35
REMARK    5  A    between atoms: N_10  and  C_38
REMARK    6  A    between atoms: N_10  and  C_39
REMARK    7  A    between atoms: C_11  and  C_15
REMARK    8  A    between atoms: C_12  and  C_18
REMARK    9  A    between atoms: C_15  and  C_17
REMARK   10  A    between atoms: C_18  and  C_24
REMARK   11  A    between atoms: C_21  and  C_25
REMARK   12  A    between atoms: C_31  and  C_37
REMARK                            x       y       z     vdW  Elec       q    Type
REMARK                         _______ _______ _______ _____ _____    ______ ____
ROOT
ATOM      4  O   UNL     1      -1.551  -9.960  13.580  0.00  0.00    -0.270 OA
ATOM      7  N   UNL     1      -3.276 -11.192  14.569  0.00  0.00    -0.297 N 
ATOM     11  C   UNL     1      -5.662 -11.402  15.231  0.00  0.00    +0.011 C 
ATOM     12  C   UNL     1      -5.241 -11.105  16.693  0.00  0.00    +0.006 C 
ATOM     13  C   UNL     1      -4.483 -12.024  14.461  0.00  0.00    +0.112 C 
ATOM     14  C   UNL     1      -3.950 -10.273  16.753  0.00  0.00    +0.023 C 
ATOM     16  C   UNL     1      -2.836 -10.922  15.936  0.00  0.00    +0.108 C 
ATOM     21  C   UNL     1      -2.557 -10.661  13.494  0.00  0.00    +0.247 C 
ENDROOT
BRANCH  21  25
ATOM     25  C   UNL     1      -3.030 -10.954  12.137  0.00  0.00    +0.037 A 
ATOM     27  C   UNL     1      -3.269  -9.911  11.242  0.00  0.00    +0.015 A 
ATOM     28  C   UNL     1      -3.239 -12.275  11.741  0.00  0.00    +0.015 A 
ATOM     32  C   UNL     1      -3.719 -10.189   9.952  0.00  0.00    +0.024 A 
ATOM     33  C   UNL     1      -3.689 -12.553  10.450  0.00  0.00    +0.024 A 
ATOM     35  C   UNL     1      -3.929 -11.510   9.556  0.00  0.00    +0.029 A 
BRANCH  35  10
ATOM     10  N   UNL     1      -4.384 -11.792   8.250  0.00  0.00    -0.336 N 
ATOM     38  C   UNL     1      -4.246 -13.125   7.698  0.00  0.00    +0.129 C 
ATOM     39  C   UNL     1      -4.988 -10.751   7.442  0.00  0.00    +0.129 C 
ENDBRANCH  35  10
ENDBRANCH  21  25
BRANCH  11  15
ATOM     15  C   UNL     1      -6.201 -10.178  14.479  0.00  0.00    +0.020 C 
BRANCH  15  17
ATOM     17  C   UNL     1      -7.643 -10.401  14.042  0.00  0.00    +0.085 C 
BRANCH  17   8
ATOM      8  N   UNL     1      -7.762 -10.203  12.599  0.00  0.00    -0.299 NA
ATOM      9  N   UNL     1      -8.311  -8.749  10.203  0.00  0.00    -0.327 N 
ATOM     19  C   UNL     1      -9.143  -9.863  12.237  0.00  0.00    +0.103 C 
ATOM     20  C   UNL     1      -6.852  -9.143  12.148  0.00  0.00    +0.103 C 
ATOM     22  C   UNL     1      -9.291  -9.710  10.722  0.00  0.00    +0.120 C 
ATOM     23  C   UNL     1      -6.924  -8.964  10.630  0.00  0.00    +0.120 C 
BRANCH   9  26
ATOM     26  C   UNL     1      -8.571  -8.147   8.966  0.00  0.00    +0.030 A 
ATOM     29  C   UNL     1      -8.076  -8.720   7.795  0.00  0.00    +0.035 A 
ATOM     30  C   UNL     1      -9.324  -6.975   8.906  0.00  0.00    +0.023 A 
ATOM     31  C   UNL     1      -8.336  -8.121   6.562  0.00  0.00    +0.057 A 
ATOM     34  C   UNL     1      -9.584  -6.375   7.673  0.00  0.00    +0.002 A 
ATOM     36  C   UNL     1      -9.089  -6.949   6.501  0.00  0.00    +0.012 A 
BRANCH  31  37
ATOM      1  F   UNL     1      -8.689  -8.696   4.267  0.00  0.00    -0.166 F 
ATOM      2  F   UNL     1      -7.484 -10.051   5.466  0.00  0.00    -0.166 F 
ATOM      3  F   UNL     1      -6.675  -8.132   4.840  0.00  0.00    -0.166 F 
ATOM     37  C   UNL     1      -7.807  -8.734   5.310  0.00  0.00    +0.417 C 
ENDBRANCH  31  37
ENDBRANCH   9  26
ENDBRANCH  17   8
ENDBRANCH  15  17
ENDBRANCH  11  15
BRANCH  12  18
ATOM     18  C   UNL     1      -6.347 -10.442  17.514  0.00  0.00    +0.124 C 
BRANCH  18  24
ATOM      6  O   UNL     1      -6.500 -10.236  19.938  0.00  0.00    -0.251 OA
ATOM     24  C   UNL     1      -6.346 -10.924  18.939  0.00  0.00    +0.305 C 
BRANCH  24   5
ATOM      5  O   UNL     1      -6.146 -12.266  18.969  0.00  0.00    -0.481 OA
ATOM     40  H   UNL     1      -5.686 -12.584  18.164  0.00  0.00    +0.295 HD
ENDBRANCH  24   5
ENDBRANCH  18  24
ENDBRANCH  12  18
TORSDOF 10
ENDMDL
MODEL 6
REMARK VINA RESULT:      -6.6     19.176     21.363
REMARK  Name = 45360511
REMARK  12 active torsions:
REMARK  status: ('A' for Active; 'I' for Inactive)
REMARK    1  A    between atoms: O_5  and  C_24
REMARK    2  A    between atoms: N_8  and  C_17
REMARK    3  A    between atoms: N_9  and  C_26
REMARK    4  A    between atoms: N_10  and  C_35
REMARK    5  A    between atoms: N_10  and  C_38
REMARK    6  A    between atoms: N_10  and  C_39
REMARK    7  A    between atoms: C_11  and  C_15
REMARK    8  A    between atoms: C_12  and  C_18
REMARK    9  A    between atoms: C_15  and  C_17
REMARK   10  A    between atoms: C_18  and  C_24
REMARK   11  A    between atoms: C_21  and  C_25
REMARK   12  A    between atoms: C_31  and  C_37
REMARK                            x       y       z     vdW  Elec       q    Type
REMARK                         _______ _______ _______ _____ _____    ______ ____
ROOT
ATOM      4  O   UNL     1      12.408  10.506   4.646  0.00  0.00    -0.270 OA
ATOM      7  N   UNL     1      12.396   8.428   5.722  0.00  0.00    -0.297 N 
ATOM     11  C   UNL     1      11.437   6.153   5.991  0.00  0.00    +0.011 C 
ATOM     12  C   UNL     1      10.719   6.650   7.272  0.00  0.00    +0.006 C 
ATOM     13  C   UNL     1      12.703   6.992   5.740  0.00  0.00    +0.112 C 
ATOM     14  C   UNL     1      10.463   8.165   7.226  0.00  0.00    +0.023 C 
ATOM     16  C   UNL     1      11.748   8.934   6.930  0.00  0.00    +0.108 C 
ATOM     21  C   UNL     1      12.668   9.304   4.667  0.00  0.00    +0.247 C 
ENDROOT
BRANCH  21  25
ATOM     25  C   UNL     1      13.319   8.761   3.470  0.00  0.00    +0.037 A 
ATOM     27  C   UNL     1      14.711   8.704   3.399  0.00  0.00    +0.015 A 
ATOM     28  C   UNL     1      12.547   8.300   2.404  0.00  0.00    +0.015 A 
ATOM     32  C   UNL     1      15.330   8.188   2.261  0.00  0.00    +0.024 A 
ATOM     33  C   UNL     1      13.166   7.784   1.266  0.00  0.00    +0.024 A 
ATOM     35  C   UNL     1      14.557   7.729   1.194  0.00  0.00    +0.029 A 
BRANCH  35  10
ATOM     10  N   UNL     1      15.184   7.206   0.042  0.00  0.00    -0.336 N 
ATOM     38  C   UNL     1      14.712   7.571  -1.278  0.00  0.00    +0.129 C 
ATOM     39  C   UNL     1      16.301   6.291   0.166  0.00  0.00    +0.129 C 
ENDBRANCH  35  10
ENDBRANCH  21  25
BRANCH  11  15
ATOM     15  C   UNL     1      10.546   6.146   4.742  0.00  0.00    +0.020 C 
BRANCH  15  17
ATOM     17  C   UNL     1      10.522   4.767   4.099  0.00  0.00    +0.085 C 
BRANCH  17   8
ATOM      8  N   UNL     1      11.098   4.833   2.757  0.00  0.00    -0.299 NA
ATOM      9  N   UNL     1      11.406   4.105   0.012  0.00  0.00    -0.327 N 
ATOM     19  C   UNL     1      11.710   3.549   2.394  0.00  0.00    +0.103 C 
ATOM     20  C   UNL     1      10.070   5.192   1.773  0.00  0.00    +0.103 C 
ATOM     22  C   UNL     1      12.366   3.625   1.014  0.00  0.00    +0.120 C 
ATOM     23  C   UNL     1      10.671   5.322   0.371  0.00  0.00    +0.120 C 
BRANCH   9  26
ATOM     26  C   UNL     1      11.663   3.820  -1.333  0.00  0.00    +0.030 A 
ATOM     29  C   UNL     1      10.622   3.422  -2.172  0.00  0.00    +0.035 A 
ATOM     30  C   UNL     1      12.959   3.932  -1.836  0.00  0.00    +0.023 A 
ATOM     31  C   UNL     1      10.876   3.139  -3.514  0.00  0.00    +0.057 A 
ATOM     34  C   UNL     1      13.214   3.648  -3.178  0.00  0.00    +0.002 A 
ATOM     36  C   UNL     1      12.172   3.252  -4.017  0.00  0.00    +0.012 A 
BRANCH  31  37
ATOM      1  F   UNL     1       8.787   3.659  -4.556  0.00  0.00    -0.166 F 
ATOM      2  F   UNL     1       9.123   1.596  -3.959  0.00  0.00    -0.166 F 
ATOM      3  F   UNL     1      10.165   2.420  -5.682  0.00  0.00    -0.166 F 
ATOM     37  C   UNL     1       9.763   2.715  -4.410  0.00  0.00    +0.417 C 
ENDBRANCH  31  37
ENDBRANCH   9  26
ENDBRANCH  17   8
ENDBRANCH  15  17
ENDBRANCH  11  15
BRANCH  12  18
ATOM     18  C   UNL     1       9.424   5.894   7.567  0.00  0.00    +0.124 C 
BRANCH  18  24
ATOM      6  O   UNL     1       9.078   4.973   9.797  0.00  0.00    -0.251 OA
ATOM     24  C   UNL     1       9.597   4.911   8.692  0.00  0.00    +0.305 C 
BRANCH  24   5
ATOM      5  O   UNL     1      10.433   3.914   8.305  0.00  0.00    -0.481 OA
ATOM     40  H   UNL     1       9.955   3.069   8.171  0.00  0.00    +0.295 HD
ENDBRANCH  24   5
ENDBRANCH  18  24
ENDBRANCH  12  18
TORSDOF 10
ENDMDL
MODEL 7
REMARK VINA RESULT:      -6.4     16.168     18.837
REMARK  Name = 45360511
REMARK  12 active torsions:
REMARK  status: ('A' for Active; 'I' for Inactive)
REMARK    1  A    between atoms: O_5  and  C_24
REMARK    2  A    between atoms: N_8  and  C_17
REMARK    3  A    between atoms: N_9  and  C_26
REMARK    4  A    between atoms: N_10  and  C_35
REMARK    5  A    between atoms: N_10  and  C_38
REMARK    6  A    between atoms: N_10  and  C_39
REMARK    7  A    between atoms: C_11  and  C_15
REMARK    8  A    between atoms: C_12  and  C_18
REMARK    9  A    between atoms: C_15  and  C_17
REMARK   10  A    between atoms: C_18  and  C_24
REMARK   11  A    between atoms: C_21  and  C_25
REMARK   12  A    between atoms: C_31  and  C_37
REMARK                            x       y       z     vdW  Elec       q    Type
REMARK                         _______ _______ _______ _____ _____    ______ ____
ROOT
ATOM      4  O   UNL     1       7.943   6.514   5.141  0.00  0.00    -0.270 OA
ATOM      7  N   UNL     1      10.251   6.205   4.919  0.00  0.00    -0.297 N 
ATOM     11  C   UNL     1      12.429   6.904   3.949  0.00  0.00    +0.011 C 
ATOM     12  C   UNL     1      12.329   5.712   2.964  0.00  0.00    +0.006 C 
ATOM     13  C   UNL     1      11.633   6.596   5.230  0.00  0.00    +0.112 C 
ATOM     14  C   UNL     1      10.867   5.311   2.708  0.00  0.00    +0.023 C 
ATOM     16  C   UNL     1      10.124   5.062   4.017  0.00  0.00    +0.108 C 
ATOM     21  C   UNL     1       9.101   6.833   5.404  0.00  0.00    +0.247 C 
ENDROOT
BRANCH  21  25
ATOM     25  C   UNL     1       9.268   7.977   6.306  0.00  0.00    +0.037 A 
ATOM     27  C   UNL     1       9.377   9.267   5.785  0.00  0.00    +0.015 A 
ATOM     28  C   UNL     1       9.318   7.776   7.686  0.00  0.00    +0.015 A 
ATOM     32  C   UNL     1       9.537  10.354   6.643  0.00  0.00    +0.024 A 
ATOM     33  C   UNL     1       9.478   8.864   8.544  0.00  0.00    +0.024 A 
ATOM     35  C   UNL     1       9.588  10.153   8.022  0.00  0.00    +0.029 A 
BRANCH  35  10
ATOM     10  N   UNL     1       9.749  11.253   8.891  0.00  0.00    -0.336 N 
ATOM     38  C   UNL     1       8.866  11.426  10.027  0.00  0.00    +0.129 C 
ATOM     39  C   UNL     1      10.795  12.229   8.654  0.00  0.00    +0.129 C 
ENDBRANCH  35  10
ENDBRANCH  21  25
BRANCH  11  15
ATOM     15  C   UNL     1      11.979   8.243   3.352  0.00  0.00    +0.020 C 
BRANCH  15  17
ATOM     17  C   UNL     1      13.113   9.259   3.376  0.00  0.00    +0.085 C 
BRANCH  17   8
ATOM      8  N   UNL     1      14.297   8.666   3.996  0.00  0.00    -0.299 NA
ATOM      9  N   UNL     1      17.038   8.542   4.790  0.00  0.00    -0.327 N 
ATOM     19  C   UNL     1      15.351   8.455   2.996  0.00  0.00    +0.103 C 
ATOM     20  C   UNL     1      14.798   9.527   5.075  0.00  0.00    +0.103 C 
ATOM     22  C   UNL     1      16.575   7.783   3.622  0.00  0.00    +0.120 C 
ATOM     23  C   UNL     1      16.005   8.891   5.770  0.00  0.00    +0.120 C 
BRANCH   9  26
ATOM     26  C   UNL     1      18.360   8.359   5.211  0.00  0.00    +0.030 A 
ATOM     29  C   UNL     1      19.309   7.848   4.325  0.00  0.00    +0.035 A 
ATOM     30  C   UNL     1      18.729   8.688   6.515  0.00  0.00    +0.023 A 
ATOM     31  C   UNL     1      20.627   7.667   4.744  0.00  0.00    +0.057 A 
ATOM     34  C   UNL     1      20.047   8.507   6.934  0.00  0.00    +0.002 A 
ATOM     36  C   UNL     1      20.996   7.995   6.048  0.00  0.00    +0.012 A 
BRANCH  31  37
ATOM      1  F   UNL     1      22.274   6.001   4.258  0.00  0.00    -0.166 F 
ATOM      2  F   UNL     1      22.635   8.014   3.520  0.00  0.00    -0.166 F 
ATOM      3  F   UNL     1      21.122   6.761   2.586  0.00  0.00    -0.166 F 
ATOM     37  C   UNL     1      21.641   7.120   3.797  0.00  0.00    +0.417 C 
ENDBRANCH  31  37
ENDBRANCH   9  26
ENDBRANCH  17   8
ENDBRANCH  15  17
ENDBRANCH  11  15
BRANCH  12  18
ATOM     18  C   UNL     1      13.059   5.959   1.645  0.00  0.00    +0.124 C 
BRANCH  18  24
ATOM      6  O   UNL     1      15.356   5.429   1.025  0.00  0.00    -0.251 OA
ATOM     24  C   UNL     1      14.287   5.100   1.519  0.00  0.00    +0.305 C 
BRANCH  24   5
ATOM      5  O   UNL     1      14.045   3.873   2.046  0.00  0.00    -0.481 OA
ATOM     40  H   UNL     1      13.139   3.807   2.415  0.00  0.00    +0.295 HD
ENDBRANCH  24   5
ENDBRANCH  18  24
ENDBRANCH  12  18
TORSDOF 10
ENDMDL
MODEL 8
REMARK VINA RESULT:      -6.3     30.783     33.377
REMARK  Name = 45360511
REMARK  12 active torsions:
REMARK  status: ('A' for Active; 'I' for Inactive)
REMARK    1  A    between atoms: O_5  and  C_24
REMARK    2  A    between atoms: N_8  and  C_17
REMARK    3  A    between atoms: N_9  and  C_26
REMARK    4  A    between atoms: N_10  and  C_35
REMARK    5  A    between atoms: N_10  and  C_38
REMARK    6  A    between atoms: N_10  and  C_39
REMARK    7  A    between atoms: C_11  and  C_15
REMARK    8  A    between atoms: C_12  and  C_18
REMARK    9  A    between atoms: C_15  and  C_17
REMARK   10  A    between atoms: C_18  and  C_24
REMARK   11  A    between atoms: C_21  and  C_25
REMARK   12  A    between atoms: C_31  and  C_37
REMARK                            x       y       z     vdW  Elec       q    Type
REMARK                         _______ _______ _______ _____ _____    ______ ____
ROOT
ATOM      4  O   UNL     1     -10.792  12.341  31.253  0.00  0.00    -0.270 OA
ATOM      7  N   UNL     1     -11.177  10.154  31.991  0.00  0.00    -0.297 N 
ATOM     11  C   UNL     1     -12.697   8.456  32.981  0.00  0.00    +0.011 C 
ATOM     12  C   UNL     1     -11.934   8.612  34.321  0.00  0.00    +0.006 C 
ATOM     13  C   UNL     1     -11.773   8.824  31.805  0.00  0.00    +0.112 C 
ATOM     14  C   UNL     1     -11.289  10.002  34.447  0.00  0.00    +0.023 C 
ATOM     16  C   UNL     1     -10.423  10.322  33.232  0.00  0.00    +0.108 C 
ATOM     21  C   UNL     1     -11.285  11.225  31.099  0.00  0.00    +0.247 C 
ENDROOT
BRANCH  21  25
ATOM     25  C   UNL     1     -12.049  11.019  29.864  0.00  0.00    +0.037 A 
ATOM     27  C   UNL     1     -13.414  11.307  29.833  0.00  0.00    +0.015 A 
ATOM     28  C   UNL     1     -11.412  10.536  28.721  0.00  0.00    +0.015 A 
ATOM     32  C   UNL     1     -14.141  11.111  28.659  0.00  0.00    +0.024 A 
ATOM     33  C   UNL     1     -12.139  10.340  27.547  0.00  0.00    +0.024 A 
ATOM     35  C   UNL     1     -13.503  10.627  27.517  0.00  0.00    +0.029 A 
BRANCH  35  10
ATOM     10  N   UNL     1     -14.239  10.429  26.328  0.00  0.00    -0.336 N 
ATOM     38  C   UNL     1     -15.685  10.342  26.367  0.00  0.00    +0.129 C 
ATOM     39  C   UNL     1     -13.557  10.301  25.056  0.00  0.00    +0.129 C 
ENDBRANCH  35  10
ENDBRANCH  21  25
BRANCH  11  15
ATOM     15  C   UNL     1     -13.999   9.265  32.909  0.00  0.00    +0.020 C 
BRANCH  15  17
ATOM     17  C   UNL     1     -15.212   8.354  33.041  0.00  0.00    +0.085 C 
BRANCH  17   8
ATOM      8  N   UNL     1     -15.104   7.242  32.099  0.00  0.00    -0.299 NA
ATOM      9  N   UNL     1     -15.796   4.718  30.954  0.00  0.00    -0.327 N 
ATOM     19  C   UNL     1     -14.792   5.994  32.807  0.00  0.00    +0.103 C 
ATOM     20  C   UNL     1     -16.351   7.087  31.341  0.00  0.00    +0.103 C 
ATOM     22  C   UNL     1     -14.620   4.834  31.825  0.00  0.00    +0.120 C 
ATOM     23  C   UNL     1     -16.233   5.961  30.310  0.00  0.00    +0.120 C 
BRANCH   9  26
ATOM     26  C   UNL     1     -16.028   3.491  30.323  0.00  0.00    +0.030 A 
ATOM     29  C   UNL     1     -15.159   2.421  30.538  0.00  0.00    +0.035 A 
ATOM     30  C   UNL     1     -17.128   3.336  29.481  0.00  0.00    +0.023 A 
ATOM     31  C   UNL     1     -15.391   1.197  29.910  0.00  0.00    +0.057 A 
ATOM     34  C   UNL     1     -17.361   2.113  28.853  0.00  0.00    +0.002 A 
ATOM     36  C   UNL     1     -16.491   1.043  29.068  0.00  0.00    +0.012 A 
BRANCH  31  37
ATOM      1  F   UNL     1     -14.278  -0.733  29.039  0.00  0.00    -0.166 F 
ATOM      2  F   UNL     1     -14.898  -0.788  31.122  0.00  0.00    -0.166 F 
ATOM      3  F   UNL     1     -13.205   0.436  30.516  0.00  0.00    -0.166 F 
ATOM     37  C   UNL     1     -14.461   0.054  30.140  0.00  0.00    +0.417 C 
ENDBRANCH  31  37
ENDBRANCH   9  26
ENDBRANCH  17   8
ENDBRANCH  15  17
ENDBRANCH  11  15
BRANCH  12  18
ATOM     18  C   UNL     1     -12.799   8.306  35.543  0.00  0.00    +0.124 C 
BRANCH  18  24
ATOM      6  O   UNL     1     -10.906   7.655  36.935  0.00  0.00    -0.251 OA
ATOM     24  C   UNL     1     -11.977   8.229  36.801  0.00  0.00    +0.305 C 
BRANCH  24   5
ATOM      5  O   UNL     1     -12.601   8.904  37.799  0.00  0.00    -0.481 OA
ATOM     40  H   UNL     1     -13.261   9.542  37.451  0.00  0.00    +0.295 HD
ENDBRANCH  24   5
ENDBRANCH  18  24
ENDBRANCH  12  18
TORSDOF 10
ENDMDL
MODEL 9
REMARK VINA RESULT:      -6.3     30.006     33.072
REMARK  Name = 45360511
REMARK  12 active torsions:
REMARK  status: ('A' for Active; 'I' for Inactive)
REMARK    1  A    between atoms: O_5  and  C_24
REMARK    2  A    between atoms: N_8  and  C_17
REMARK    3  A    between atoms: N_9  and  C_26
REMARK    4  A    between atoms: N_10  and  C_35
REMARK    5  A    between atoms: N_10  and  C_38
REMARK    6  A    between atoms: N_10  and  C_39
REMARK    7  A    between atoms: C_11  and  C_15
REMARK    8  A    between atoms: C_12  and  C_18
REMARK    9  A    between atoms: C_15  and  C_17
REMARK   10  A    between atoms: C_18  and  C_24
REMARK   11  A    between atoms: C_21  and  C_25
REMARK   12  A    between atoms: C_31  and  C_37
REMARK                            x       y       z     vdW  Elec       q    Type
REMARK                         _______ _______ _______ _____ _____    ______ ____
ROOT
ATOM      4  O   UNL     1      -7.198   9.244  35.738  0.00  0.00    -0.270 OA
ATOM      7  N   UNL     1      -9.165  10.389  35.195  0.00  0.00    -0.297 N 
ATOM     11  C   UNL     1     -11.535  10.356  34.451  0.00  0.00    +0.011 C 
ATOM     12  C   UNL     1     -11.060  10.816  33.049  0.00  0.00    +0.006 C 
ATOM     13  C   UNL     1     -10.531  10.818  35.523  0.00  0.00    +0.112 C 
ATOM     14  C   UNL     1      -9.610  10.385  32.773  0.00  0.00    +0.023 C 
ATOM     16  C   UNL     1      -8.676  10.835  33.892  0.00  0.00    +0.108 C 
ATOM     21  C   UNL     1      -8.340   9.610  36.011  0.00  0.00    +0.247 C 
ENDROOT
BRANCH  21  25
ATOM     25  C   UNL     1      -8.864   9.180  37.312  0.00  0.00    +0.037 A 
ATOM     27  C   UNL     1      -9.644   8.026  37.403  0.00  0.00    +0.015 A 
ATOM     28  C   UNL     1      -8.583   9.924  38.458  0.00  0.00    +0.015 A 
ATOM     32  C   UNL     1     -10.143   7.619  38.639  0.00  0.00    +0.024 A 
ATOM     33  C   UNL     1      -9.083   9.516  39.695  0.00  0.00    +0.024 A 
ATOM     35  C   UNL     1      -9.863   8.364  39.785  0.00  0.00    +0.029 A 
BRANCH  35  10
ATOM     10  N   UNL     1     -10.367   7.951  41.036  0.00  0.00    -0.336 N 
ATOM     38  C   UNL     1      -9.922   6.707  41.632  0.00  0.00    +0.129 C 
ATOM     39  C   UNL     1     -11.343   8.761  41.738  0.00  0.00    +0.129 C 
ENDBRANCH  35  10
ENDBRANCH  21  25
BRANCH  11  15
ATOM     15  C   UNL     1     -11.773   8.845  34.561  0.00  0.00    +0.020 C 
BRANCH  15  17
ATOM     17  C   UNL     1     -12.961   8.546  35.465  0.00  0.00    +0.085 C 
BRANCH  17   8
ATOM      8  N   UNL     1     -13.728   7.424  34.926  0.00  0.00    -0.299 NA
ATOM      9  N   UNL     1     -14.101   4.871  33.700  0.00  0.00    -0.327 N 
ATOM     19  C   UNL     1     -13.432   7.235  33.501  0.00  0.00    +0.103 C 
ATOM     20  C   UNL     1     -13.426   6.193  35.667  0.00  0.00    +0.103 C 
ATOM     22  C   UNL     1     -14.271   6.099  32.913  0.00  0.00    +0.120 C 
ATOM     23  C   UNL     1     -14.264   5.021  35.150  0.00  0.00    +0.120 C 
BRANCH   9  26
ATOM     26  C   UNL     1     -14.408   3.651  33.089  0.00  0.00    +0.030 A 
ATOM     29  C   UNL     1     -14.667   3.602  31.720  0.00  0.00    +0.035 A 
ATOM     30  C   UNL     1     -14.454   2.482  33.849  0.00  0.00    +0.023 A 
ATOM     31  C   UNL     1     -14.972   2.385  31.110  0.00  0.00    +0.057 A 
ATOM     34  C   UNL     1     -14.760   1.265  33.240  0.00  0.00    +0.002 A 
ATOM     36  C   UNL     1     -15.019   1.217  31.870  0.00  0.00    +0.012 A 
BRANCH  31  37
ATOM      1  F   UNL     1     -16.571   2.173  29.344  0.00  0.00    -0.166 F 
ATOM      2  F   UNL     1     -14.605   1.303  29.026  0.00  0.00    -0.166 F 
ATOM      3  F   UNL     1     -14.867   3.461  28.976  0.00  0.00    -0.166 F 
ATOM     37  C   UNL     1     -15.249   2.334  29.646  0.00  0.00    +0.417 C 
ENDBRANCH  31  37
ENDBRANCH   9  26
ENDBRANCH  17   8
ENDBRANCH  15  17
ENDBRANCH  11  15
BRANCH  12  18
ATOM     18  C   UNL     1     -11.983  10.358  31.921  0.00  0.00    +0.124 C 
BRANCH  18  24
ATOM      6  O   UNL     1     -11.462  12.173  30.380  0.00  0.00    -0.251 OA
ATOM     24  C   UNL     1     -11.605  10.980  30.605  0.00  0.00    +0.305 C 
BRANCH  24   5
ATOM      5  O   UNL     1     -11.439  10.011  29.670  0.00  0.00    -0.481 OA
ATOM     40  H   UNL     1     -11.360  10.385  28.767  0.00  0.00    +0.295 HD
ENDBRANCH  24   5
ENDBRANCH  18  24
ENDBRANCH  12  18
TORSDOF 10
ENDMDL
MODEL 10
REMARK VINA RESULT:      -6.3     24.573     27.801
REMARK  Name = 45360511
REMARK  12 active torsions:
REMARK  status: ('A' for Active; 'I' for Inactive)
REMARK    1  A    between atoms: O_5  and  C_24
REMARK    2  A    between atoms: N_8  and  C_17
REMARK    3  A    between atoms: N_9  and  C_26
REMARK    4  A    between atoms: N_10  and  C_35
REMARK    5  A    between atoms: N_10  and  C_38
REMARK    6  A    between atoms: N_10  and  C_39
REMARK    7  A    between atoms: C_11  and  C_15
REMARK    8  A    between atoms: C_12  and  C_18
REMARK    9  A    between atoms: C_15  and  C_17
REMARK   10  A    between atoms: C_18  and  C_24
REMARK   11  A    between atoms: C_21  and  C_25
REMARK   12  A    between atoms: C_31  and  C_37
REMARK                            x       y       z     vdW  Elec       q    Type
REMARK                         _______ _______ _______ _____ _____    ______ ____
ROOT
ATOM      4  O   UNL     1      -2.131  12.719   8.156  0.00  0.00    -0.270 OA
ATOM      7  N   UNL     1      -2.052  10.556   7.268  0.00  0.00    -0.297 N 
ATOM     11  C   UNL     1      -2.063   9.039   5.300  0.00  0.00    +0.011 C 
ATOM     12  C   UNL     1      -3.535   8.685   5.631  0.00  0.00    +0.006 C 
ATOM     13  C   UNL     1      -1.328   9.478   6.580  0.00  0.00    +0.112 C 
ATOM     14  C   UNL     1      -4.234   9.824   6.392  0.00  0.00    +0.023 C 
ATOM     16  C   UNL     1      -3.434  10.240   7.623  0.00  0.00    +0.108 C 
ATOM     21  C   UNL     1      -1.528  11.813   7.585  0.00  0.00    +0.247 C 
ENDROOT
BRANCH  21  25
ATOM     25  C   UNL     1      -0.137  12.094   7.213  0.00  0.00    +0.037 A 
ATOM     27  C   UNL     1       0.196  12.317   5.877  0.00  0.00    +0.015 A 
ATOM     28  C   UNL     1       0.852  12.138   8.196  0.00  0.00    +0.015 A 
ATOM     32  C   UNL     1       1.518  12.584   5.524  0.00  0.00    +0.024 A 
ATOM     33  C   UNL     1       2.175  12.405   7.842  0.00  0.00    +0.024 A 
ATOM     35  C   UNL     1       2.507  12.627   6.506  0.00  0.00    +0.029 A 
BRANCH  35  10
ATOM     10  N   UNL     1       3.846  12.897   6.148  0.00  0.00    -0.336 N 
ATOM     38  C   UNL     1       4.477  12.169   5.066  0.00  0.00    +0.129 C 
ATOM     39  C   UNL     1       4.608  13.902   6.863  0.00  0.00    +0.129 C 
ENDBRANCH  35  10
ENDBRANCH  21  25
BRANCH  11  15
ATOM     15  C   UNL     1      -1.911  10.104   4.207  0.00  0.00    +0.020 C 
BRANCH  15  17
ATOM     17  C   UNL     1      -0.792   9.737   3.243  0.00  0.00    +0.085 C 
BRANCH  17   8
ATOM      8  N   UNL     1      -1.332   9.562   1.896  0.00  0.00    -0.299 NA
ATOM      9  N   UNL     1      -2.232  10.402  -0.682  0.00  0.00    -0.327 N 
ATOM     19  C   UNL     1      -2.602  10.285   1.751  0.00  0.00    +0.103 C 
ATOM     20  C   UNL     1      -0.372  10.035   0.891  0.00  0.00    +0.103 C 
ATOM     22  C   UNL     1      -3.205  10.062   0.364  0.00  0.00    +0.120 C 
ATOM     23  C   UNL     1      -0.902   9.805  -0.527  0.00  0.00    +0.120 C 
BRANCH   9  26
ATOM     26  C   UNL     1      -2.717  10.694  -1.962  0.00  0.00    +0.030 A 
ATOM     29  C   UNL     1      -4.088  10.649  -2.215  0.00  0.00    +0.035 A 
ATOM     30  C   UNL     1      -1.830  11.031  -2.984  0.00  0.00    +0.023 A 
ATOM     31  C   UNL     1      -4.572  10.941  -3.490  0.00  0.00    +0.057 A 
ATOM     34  C   UNL     1      -2.314  11.323  -4.259  0.00  0.00    +0.002 A 
ATOM     36  C   UNL     1      -3.685  11.278  -4.512  0.00  0.00    +0.012 A 
BRANCH  31  37
ATOM      1  F   UNL     1      -6.647   9.771  -3.273  0.00  0.00    -0.166 F 
ATOM      2  F   UNL     1      -6.327  10.916  -5.093  0.00  0.00    -0.166 F 
ATOM      3  F   UNL     1      -6.730  11.937  -3.216  0.00  0.00    -0.166 F 
ATOM     37  C   UNL     1      -6.037  10.893  -3.759  0.00  0.00    +0.417 C 
ENDBRANCH  31  37
ENDBRANCH   9  26
ENDBRANCH  17   8
ENDBRANCH  15  17
ENDBRANCH  11  15
BRANCH  12  18
ATOM     18  C   UNL     1      -4.348   8.280   4.402  0.00  0.00    +0.124 C 
BRANCH  18  24
ATOM      6  O   UNL     1      -6.341   6.878   4.403  0.00  0.00    -0.251 OA
ATOM     24  C   UNL     1      -5.156   7.037   4.654  0.00  0.00    +0.305 C 
BRANCH  24   5
ATOM      5  O   UNL     1      -4.368   6.084   5.214  0.00  0.00    -0.481 OA
ATOM     40  H   UNL     1      -4.223   5.327   4.608  0.00  0.00    +0.295 HD
ENDBRANCH  24   5
ENDBRANCH  18  24
ENDBRANCH  12  18
TORSDOF 10
ENDMDL
