MODEL 1
REMARK VINA RESULT:      -6.8      0.000      0.000
REMARK  Name = 45783816
REMARK  7 active torsions:
REMARK  status: ('A' for Active; 'I' for Inactive)
REMARK    1  A    between atoms: N_3  and  C_12
REMARK    2  A    between atoms: N_7  and  C_23
REMARK    3  A    between atoms: N_7  and  C_24
REMARK    4  A    between atoms: N_7  and  C_25
REMARK    5  A    between atoms: C_8  and  C_13
REMARK    6  A    between atoms: C_12  and  C_14
REMARK    7  A    between atoms: C_15  and  C_17
REMARK                            x       y       z     vdW  Elec       q    Type
REMARK                         _______ _______ _______ _____ _____    ______ ____
ROOT
ATOM      2  O   UNL     1      15.089   8.889  19.765  0.00  0.00    -0.336 OA
ATOM      4  N   UNL     1      15.923   6.880  19.227  0.00  0.00    -0.190 NA
ATOM      5  N   UNL     1      16.282   8.756  20.487  0.00  0.00    -0.056 NA
ATOM     13  C   UNL     1      14.953   7.741  19.050  0.00  0.00    +0.245 A 
ATOM     15  C   UNL     1      16.714   7.547  20.117  0.00  0.00    +0.204 A 
ENDROOT
BRANCH  15  17
ATOM      6  N   UNL     1      19.689   6.993  22.277  0.00  0.00    -0.240 NA
ATOM     17  C   UNL     1      17.931   6.976  20.618  0.00  0.00    +0.041 A 
ATOM     20  C   UNL     1      18.533   5.898  19.979  0.00  0.00    +0.016 A 
ATOM     21  C   UNL     1      18.543   7.483  21.754  0.00  0.00    +0.124 A 
ATOM     22  C   UNL     1      19.713   5.367  20.488  0.00  0.00    +0.044 A 
ATOM     23  C   UNL     1      20.246   5.945  21.630  0.00  0.00    +0.121 A 
BRANCH  23   7
ATOM      7  N   UNL     1      21.447   5.391  22.137  0.00  0.00    -0.321 N 
ATOM     24  C   UNL     1      22.254   6.141  23.075  0.00  0.00    +0.130 C 
ATOM     25  C   UNL     1      21.870   4.070  21.727  0.00  0.00    +0.130 C 
ENDBRANCH  23   7
ENDBRANCH  15  17
BRANCH  13   8
ATOM      3  N   UNL     1      12.638   8.539  18.602  0.00  0.00    -0.287 NA
ATOM      8  C   UNL     1      13.723   7.634  18.172  0.00  0.00    +0.146 C 
ATOM      9  C   UNL     1      14.001   8.024  16.709  0.00  0.00    +0.030 C 
ATOM     10  C   UNL     1      12.985   9.110  16.387  0.00  0.00    +0.017 C 
ATOM     11  C   UNL     1      11.881   8.877  17.396  0.00  0.00    +0.085 C 
BRANCH   3  12
ATOM     12  C   UNL     1      11.790   7.966  19.640  0.00  0.00    +0.127 C 
BRANCH  12  14
ATOM      1  S   UNL     1      10.825   8.381  22.215  0.00  0.00    -0.100 S 
ATOM     14  C   UNL     1      11.552   8.935  20.767  0.00  0.00    +0.004 A 
ATOM     16  C   UNL     1      11.845  10.281  20.817  0.00  0.00    +0.012 A 
ATOM     18  C   UNL     1      11.468  10.864  22.061  0.00  0.00    +0.008 A 
ATOM     19  C   UNL     1      10.901   9.943  22.914  0.00  0.00    +0.045 A 
ENDBRANCH  12  14
ENDBRANCH   3  12
ENDBRANCH  13   8
TORSDOF 5
ENDMDL
MODEL 2
REMARK VINA RESULT:      -6.6      2.060      3.558
REMARK  Name = 45783816
REMARK  7 active torsions:
REMARK  status: ('A' for Active; 'I' for Inactive)
REMARK    1  A    between atoms: N_3  and  C_12
REMARK    2  A    between atoms: N_7  and  C_23
REMARK    3  A    between atoms: N_7  and  C_24
REMARK    4  A    between atoms: N_7  and  C_25
REMARK    5  A    between atoms: C_8  and  C_13
REMARK    6  A    between atoms: C_12  and  C_14
REMARK    7  A    between atoms: C_15  and  C_17
REMARK                            x       y       z     vdW  Elec       q    Type
REMARK                         _______ _______ _______ _____ _____    ______ ____
ROOT
ATOM      2  O   UNL     1      14.414   6.910  19.379  0.00  0.00    -0.336 OA
ATOM      4  N   UNL     1      15.628   7.443  21.185  0.00  0.00    -0.190 NA
ATOM      5  N   UNL     1      15.682   6.349  19.177  0.00  0.00    -0.056 NA
ATOM     13  C   UNL     1      14.468   7.536  20.584  0.00  0.00    +0.245 A 
ATOM     15  C   UNL     1      16.339   6.707  20.284  0.00  0.00    +0.204 A 
ENDROOT
BRANCH  15  17
ATOM      6  N   UNL     1      19.631   5.022  19.890  0.00  0.00    -0.240 NA
ATOM     17  C   UNL     1      17.707   6.346  20.518  0.00  0.00    +0.041 A 
ATOM     20  C   UNL     1      18.434   6.926  21.552  0.00  0.00    +0.016 A 
ATOM     21  C   UNL     1      18.346   5.408  19.722  0.00  0.00    +0.124 A 
ATOM     22  C   UNL     1      19.759   6.555  21.755  0.00  0.00    +0.044 A 
ATOM     23  C   UNL     1      20.306   5.608  20.904  0.00  0.00    +0.121 A 
BRANCH  23   7
ATOM      7  N   UNL     1      21.657   5.242  21.123  0.00  0.00    -0.321 N 
ATOM     24  C   UNL     1      22.727   6.073  20.616  0.00  0.00    +0.130 C 
ATOM     25  C   UNL     1      21.975   4.039  21.861  0.00  0.00    +0.130 C 
ENDBRANCH  23   7
ENDBRANCH  15  17
BRANCH  13   8
ATOM      3  N   UNL     1      12.355   8.667  19.914  0.00  0.00    -0.287 NA
ATOM      8  C   UNL     1      13.203   8.231  21.041  0.00  0.00    +0.146 C 
ATOM      9  C   UNL     1      12.294   7.318  21.885  0.00  0.00    +0.030 C 
ATOM     10  C   UNL     1      10.941   7.351  21.188  0.00  0.00    +0.017 C 
ATOM     11  C   UNL     1      10.976   8.645  20.402  0.00  0.00    +0.085 C 
BRANCH   3  12
ATOM     12  C   UNL     1      12.730   9.972  19.385  0.00  0.00    +0.127 C 
BRANCH  12  14
ATOM      1  S   UNL     1      14.334  10.748  17.249  0.00  0.00    -0.100 S 
ATOM     14  C   UNL     1      12.981   9.925  17.901  0.00  0.00    +0.004 A 
ATOM     16  C   UNL     1      12.247   9.284  16.927  0.00  0.00    +0.012 A 
ATOM     18  C   UNL     1      12.803   9.470  15.629  0.00  0.00    +0.008 A 
ATOM     19  C   UNL     1      13.940  10.247  15.660  0.00  0.00    +0.045 A 
ENDBRANCH  12  14
ENDBRANCH   3  12
ENDBRANCH  13   8
TORSDOF 5
ENDMDL
MODEL 3
REMARK VINA RESULT:      -6.4      1.863      2.512
REMARK  Name = 45783816
REMARK  7 active torsions:
REMARK  status: ('A' for Active; 'I' for Inactive)
REMARK    1  A    between atoms: N_3  and  C_12
REMARK    2  A    between atoms: N_7  and  C_23
REMARK    3  A    between atoms: N_7  and  C_24
REMARK    4  A    between atoms: N_7  and  C_25
REMARK    5  A    between atoms: C_8  and  C_13
REMARK    6  A    between atoms: C_12  and  C_14
REMARK    7  A    between atoms: C_15  and  C_17
REMARK                            x       y       z     vdW  Elec       q    Type
REMARK                         _______ _______ _______ _____ _____    ______ ____
ROOT
ATOM      2  O   UNL     1      15.831   6.190  18.585  0.00  0.00    -0.336 OA
ATOM      4  N   UNL     1      16.772   7.290  20.294  0.00  0.00    -0.190 NA
ATOM      5  N   UNL     1      17.074   5.582  18.802  0.00  0.00    -0.056 NA
ATOM     13  C   UNL     1      15.733   7.186  19.504  0.00  0.00    +0.245 A 
ATOM     15  C   UNL     1      17.568   6.286  19.825  0.00  0.00    +0.204 A 
ENDROOT
BRANCH  15  17
ATOM      6  N   UNL     1      20.813   4.600  20.498  0.00  0.00    -0.240 NA
ATOM     17  C   UNL     1      18.853   6.012  20.400  0.00  0.00    +0.041 A 
ATOM     20  C   UNL     1      19.390   6.839  21.380  0.00  0.00    +0.016 A 
ATOM     21  C   UNL     1      19.597   4.915  19.996  0.00  0.00    +0.124 A 
ATOM     22  C   UNL     1      20.638   6.547  21.920  0.00  0.00    +0.044 A 
ATOM     23  C   UNL     1      21.304   5.426  21.448  0.00  0.00    +0.121 A 
BRANCH  23   7
ATOM      7  N   UNL     1      22.574   5.143  22.006  0.00  0.00    -0.321 N 
ATOM     24  C   UNL     1      22.819   3.871  22.650  0.00  0.00    +0.130 C 
ATOM     25  C   UNL     1      23.638   6.121  21.928  0.00  0.00    +0.130 C 
ENDBRANCH  23   7
ENDBRANCH  15  17
BRANCH  13   8
ATOM      3  N   UNL     1      14.493   9.134  20.432  0.00  0.00    -0.287 NA
ATOM      8  C   UNL     1      14.461   8.007  19.479  0.00  0.00    +0.146 C 
ATOM      9  C   UNL     1      14.201   8.659  18.109  0.00  0.00    +0.030 C 
ATOM     10  C   UNL     1      14.041  10.144  18.401  0.00  0.00    +0.017 C 
ATOM     11  C   UNL     1      13.645  10.181  19.862  0.00  0.00    +0.085 C 
BRANCH   3  12
ATOM     12  C   UNL     1      14.074   8.761  21.777  0.00  0.00    +0.127 C 
BRANCH  12  14
ATOM      1  S   UNL     1      11.347   8.900  22.304  0.00  0.00    -0.100 S 
ATOM     14  C   UNL     1      12.742   8.059  21.775  0.00  0.00    +0.004 A 
ATOM     16  C   UNL     1      12.454   6.768  21.391  0.00  0.00    +0.012 A 
ATOM     18  C   UNL     1      11.069   6.465  21.533  0.00  0.00    +0.008 A 
ATOM     19  C   UNL     1      10.352   7.536  22.019  0.00  0.00    +0.045 A 
ENDBRANCH  12  14
ENDBRANCH   3  12
ENDBRANCH  13   8
TORSDOF 5
ENDMDL
MODEL 4
REMARK VINA RESULT:      -6.2     26.248     29.565
REMARK  Name = 45783816
REMARK  7 active torsions:
REMARK  status: ('A' for Active; 'I' for Inactive)
REMARK    1  A    between atoms: N_3  and  C_12
REMARK    2  A    between atoms: N_7  and  C_23
REMARK    3  A    between atoms: N_7  and  C_24
REMARK    4  A    between atoms: N_7  and  C_25
REMARK    5  A    between atoms: C_8  and  C_13
REMARK    6  A    between atoms: C_12  and  C_14
REMARK    7  A    between atoms: C_15  and  C_17
REMARK                            x       y       z     vdW  Elec       q    Type
REMARK                         _______ _______ _______ _____ _____    ______ ____
ROOT
ATOM      2  O   UNL     1      -4.864 -10.800  17.277  0.00  0.00    -0.336 OA
ATOM      4  N   UNL     1      -5.791 -10.091  15.365  0.00  0.00    -0.190 NA
ATOM      5  N   UNL     1      -6.131 -10.309  17.617  0.00  0.00    -0.056 NA
ATOM     13  C   UNL     1      -4.744 -10.634  15.934  0.00  0.00    +0.245 A 
ATOM     15  C   UNL     1      -6.615  -9.909  16.437  0.00  0.00    +0.204 A 
ENDROOT
BRANCH  15  17
ATOM      6  N   UNL     1      -9.808  -8.810  14.881  0.00  0.00    -0.240 NA
ATOM     17  C   UNL     1      -7.917  -9.324  16.297  0.00  0.00    +0.041 A 
ATOM     20  C   UNL     1      -8.551  -8.720  17.376  0.00  0.00    +0.016 A 
ATOM     21  C   UNL     1      -8.582  -9.344  15.081  0.00  0.00    +0.124 A 
ATOM     22  C   UNL     1      -9.813  -8.160  17.209  0.00  0.00    +0.044 A 
ATOM     23  C   UNL     1     -10.394  -8.231  15.953  0.00  0.00    +0.121 A 
BRANCH  23   7
ATOM      7  N   UNL     1     -11.680  -7.659  15.799  0.00  0.00    -0.321 N 
ATOM     24  C   UNL     1     -12.842  -8.508  15.655  0.00  0.00    +0.130 C 
ATOM     25  C   UNL     1     -11.841  -6.221  15.792  0.00  0.00    +0.130 C 
ENDBRANCH  23   7
ENDBRANCH  15  17
BRANCH  13   8
ATOM      3  N   UNL     1      -3.175 -10.441  14.012  0.00  0.00    -0.287 NA
ATOM      8  C   UNL     1      -3.443 -11.094  15.309  0.00  0.00    +0.146 C 
ATOM      9  C   UNL     1      -2.216 -10.761  16.176  0.00  0.00    +0.030 C 
ATOM     10  C   UNL     1      -1.287  -9.972  15.265  0.00  0.00    +0.017 C 
ATOM     11  C   UNL     1      -1.719 -10.384  13.873  0.00  0.00    +0.085 C 
BRANCH   3  12
ATOM     12  C   UNL     1      -3.807 -11.118  12.886  0.00  0.00    +0.127 C 
BRANCH  12  14
ATOM      1  S   UNL     1      -5.495  -9.269  11.675  0.00  0.00    -0.100 S 
ATOM     14  C   UNL     1      -4.047 -10.182  11.732  0.00  0.00    +0.004 A 
ATOM     16  C   UNL     1      -3.233  -9.930  10.649  0.00  0.00    +0.012 A 
ATOM     18  C   UNL     1      -3.806  -8.975   9.761  0.00  0.00    +0.008 A 
ATOM     19  C   UNL     1      -5.036  -8.533  10.198  0.00  0.00    +0.045 A 
ENDBRANCH  12  14
ENDBRANCH   3  12
ENDBRANCH  13   8
TORSDOF 5
ENDMDL
MODEL 5
REMARK VINA RESULT:      -6.1      5.871      7.847
REMARK  Name = 45783816
REMARK  7 active torsions:
REMARK  status: ('A' for Active; 'I' for Inactive)
REMARK    1  A    between atoms: N_3  and  C_12
REMARK    2  A    between atoms: N_7  and  C_23
REMARK    3  A    between atoms: N_7  and  C_24
REMARK    4  A    between atoms: N_7  and  C_25
REMARK    5  A    between atoms: C_8  and  C_13
REMARK    6  A    between atoms: C_12  and  C_14
REMARK    7  A    between atoms: C_15  and  C_17
REMARK                            x       y       z     vdW  Elec       q    Type
REMARK                         _______ _______ _______ _____ _____    ______ ____
ROOT
ATOM      2  O   UNL     1      14.521   9.341  14.736  0.00  0.00    -0.336 OA
ATOM      4  N   UNL     1      14.280  10.481  16.650  0.00  0.00    -0.190 NA
ATOM      5  N   UNL     1      13.838   8.489  15.614  0.00  0.00    -0.056 NA
ATOM     13  C   UNL     1      14.743  10.491  15.425  0.00  0.00    +0.245 A 
ATOM     15  C   UNL     1      13.734   9.233  16.720  0.00  0.00    +0.204 A 
ENDROOT
BRANCH  15  17
ATOM      6  N   UNL     1      12.182   6.902  19.167  0.00  0.00    -0.240 NA
ATOM     17  C   UNL     1      13.092   8.757  17.911  0.00  0.00    +0.041 A 
ATOM     20  C   UNL     1      12.755   9.629  18.940  0.00  0.00    +0.016 A 
ATOM     21  C   UNL     1      12.787   7.415  18.072  0.00  0.00    +0.124 A 
ATOM     22  C   UNL     1      12.132   9.139  20.083  0.00  0.00    +0.044 A 
ATOM     23  C   UNL     1      11.870   7.779  20.147  0.00  0.00    +0.121 A 
BRANCH  23   7
ATOM      7  N   UNL     1      11.237   7.295  21.318  0.00  0.00    -0.321 N 
ATOM     24  C   UNL     1      10.653   8.220  22.265  0.00  0.00    +0.130 C 
ATOM     25  C   UNL     1      11.164   5.873  21.571  0.00  0.00    +0.130 C 
ENDBRANCH  23   7
ENDBRANCH  15  17
BRANCH  13   8
ATOM      3  N   UNL     1      14.580  12.684  14.258  0.00  0.00    -0.287 NA
ATOM      8  C   UNL     1      15.477  11.590  14.685  0.00  0.00    +0.146 C 
ATOM      9  C   UNL     1      16.548  12.277  15.551  0.00  0.00    +0.030 C 
ATOM     10  C   UNL     1      16.207  13.759  15.502  0.00  0.00    +0.017 C 
ATOM     11  C   UNL     1      15.396  13.898  14.231  0.00  0.00    +0.085 C 
BRANCH   3  12
ATOM     12  C   UNL     1      13.933  12.429  12.978  0.00  0.00    +0.127 C 
BRANCH  12  14
ATOM      1  S   UNL     1      12.032  14.451  13.161  0.00  0.00    -0.100 S 
ATOM     14  C   UNL     1      12.475  12.804  13.002  0.00  0.00    +0.004 A 
ATOM     16  C   UNL     1      11.376  11.979  12.911  0.00  0.00    +0.012 A 
ATOM     18  C   UNL     1      10.153  12.709  12.972  0.00  0.00    +0.008 A 
ATOM     19  C   UNL     1      10.365  14.063  13.108  0.00  0.00    +0.045 A 
ENDBRANCH  12  14
ENDBRANCH   3  12
ENDBRANCH  13   8
TORSDOF 5
ENDMDL
MODEL 6
REMARK VINA RESULT:      -6.0     26.887     29.873
REMARK  Name = 45783816
REMARK  7 active torsions:
REMARK  status: ('A' for Active; 'I' for Inactive)
REMARK    1  A    between atoms: N_3  and  C_12
REMARK    2  A    between atoms: N_7  and  C_23
REMARK    3  A    between atoms: N_7  and  C_24
REMARK    4  A    between atoms: N_7  and  C_25
REMARK    5  A    between atoms: C_8  and  C_13
REMARK    6  A    between atoms: C_12  and  C_14
REMARK    7  A    between atoms: C_15  and  C_17
REMARK                            x       y       z     vdW  Elec       q    Type
REMARK                         _______ _______ _______ _____ _____    ______ ____
ROOT
ATOM      2  O   UNL     1      -5.207  -9.632  15.847  0.00  0.00    -0.336 OA
ATOM      4  N   UNL     1      -5.546 -11.625  16.813  0.00  0.00    -0.190 NA
ATOM      5  N   UNL     1      -6.432  -9.536  16.519  0.00  0.00    -0.056 NA
ATOM     13  C   UNL     1      -4.753 -10.893  16.071  0.00  0.00    +0.245 A 
ATOM     15  C   UNL     1      -6.562 -10.749  17.063  0.00  0.00    +0.204 A 
ENDROOT
BRANCH  15  17
ATOM      6  N   UNL     1      -8.799 -11.107  20.012  0.00  0.00    -0.240 NA
ATOM     17  C   UNL     1      -7.696 -11.119  17.860  0.00  0.00    +0.041 A 
ATOM     20  C   UNL     1      -8.762 -11.821  17.309  0.00  0.00    +0.016 A 
ATOM     21  C   UNL     1      -7.762 -10.788  19.205  0.00  0.00    +0.124 A 
ATOM     22  C   UNL     1      -9.847 -12.166  18.108  0.00  0.00    +0.044 A 
ATOM     23  C   UNL     1      -9.818 -11.789  19.441  0.00  0.00    +0.121 A 
BRANCH  23   7
ATOM      7  N   UNL     1     -10.930 -12.146  20.241  0.00  0.00    -0.321 N 
ATOM     24  C   UNL     1     -10.931 -13.395  20.970  0.00  0.00    +0.130 C 
ATOM     25  C   UNL     1     -12.070 -11.260  20.340  0.00  0.00    +0.130 C 
ENDBRANCH  23   7
ENDBRANCH  15  17
BRANCH  13   8
ATOM      3  N   UNL     1      -3.188 -10.548  14.166  0.00  0.00    -0.287 NA
ATOM      8  C   UNL     1      -3.424 -11.255  15.441  0.00  0.00    +0.146 C 
ATOM      9  C   UNL     1      -2.223 -10.875  16.327  0.00  0.00    +0.030 C 
ATOM     10  C   UNL     1      -1.339 -10.005  15.446  0.00  0.00    +0.017 C 
ATOM     11  C   UNL     1      -1.738 -10.399  14.039  0.00  0.00    +0.085 C 
BRANCH   3  12
ATOM     12  C   UNL     1      -3.773 -11.228  13.017  0.00  0.00    +0.127 C 
BRANCH  12  14
ATOM      1  S   UNL     1      -5.408  -9.364  11.755  0.00  0.00    -0.100 S 
ATOM     14  C   UNL     1      -3.972 -10.292  11.854  0.00  0.00    +0.004 A 
ATOM     16  C   UNL     1      -3.126 -10.051  10.793  0.00  0.00    +0.012 A 
ATOM     18  C   UNL     1      -3.665  -9.093   9.887  0.00  0.00    +0.008 A 
ATOM     19  C   UNL     1      -4.901  -8.637  10.290  0.00  0.00    +0.045 A 
ENDBRANCH  12  14
ENDBRANCH   3  12
ENDBRANCH  13   8
TORSDOF 5
ENDMDL
MODEL 7
REMARK VINA RESULT:      -6.0     28.513     30.997
REMARK  Name = 45783816
REMARK  7 active torsions:
REMARK  status: ('A' for Active; 'I' for Inactive)
REMARK    1  A    between atoms: N_3  and  C_12
REMARK    2  A    between atoms: N_7  and  C_23
REMARK    3  A    between atoms: N_7  and  C_24
REMARK    4  A    between atoms: N_7  and  C_25
REMARK    5  A    between atoms: C_8  and  C_13
REMARK    6  A    between atoms: C_12  and  C_14
REMARK    7  A    between atoms: C_15  and  C_17
REMARK                            x       y       z     vdW  Elec       q    Type
REMARK                         _______ _______ _______ _____ _____    ______ ____
ROOT
ATOM      2  O   UNL     1      -8.769 -10.897  20.207  0.00  0.00    -0.336 OA
ATOM      4  N   UNL     1      -8.658 -11.027  17.973  0.00  0.00    -0.190 NA
ATOM      5  N   UNL     1      -7.411 -10.799  19.877  0.00  0.00    -0.056 NA
ATOM     13  C   UNL     1      -9.433 -11.029  19.029  0.00  0.00    +0.245 A 
ATOM     15  C   UNL     1      -7.427 -10.884  18.544  0.00  0.00    +0.204 A 
ENDROOT
BRANCH  15  17
ATOM      6  N   UNL     1      -5.132 -10.126  15.718  0.00  0.00    -0.240 NA
ATOM     17  C   UNL     1      -6.232 -10.830  17.753  0.00  0.00    +0.041 A 
ATOM     20  C   UNL     1      -5.046 -11.397  18.207  0.00  0.00    +0.016 A 
ATOM     21  C   UNL     1      -6.222 -10.211  16.513  0.00  0.00    +0.124 A 
ATOM     22  C   UNL     1      -3.904 -11.330  17.417  0.00  0.00    +0.044 A 
ATOM     23  C   UNL     1      -3.997 -10.689  16.192  0.00  0.00    +0.121 A 
BRANCH  23   7
ATOM      7  N   UNL     1      -2.825 -10.627  15.400  0.00  0.00    -0.321 N 
ATOM     24  C   UNL     1      -1.524 -10.576  16.030  0.00  0.00    +0.130 C 
ATOM     25  C   UNL     1      -2.920 -10.621  13.957  0.00  0.00    +0.130 C 
ENDBRANCH  23   7
ENDBRANCH  15  17
BRANCH  13   8
ATOM      3  N   UNL     1     -11.381 -11.902  20.308  0.00  0.00    -0.287 NA
ATOM      8  C   UNL     1     -10.940 -11.155  19.113  0.00  0.00    +0.146 C 
ATOM      9  C   UNL     1     -11.646  -9.791  19.221  0.00  0.00    +0.030 C 
ATOM     10  C   UNL     1     -12.506  -9.887  20.472  0.00  0.00    +0.017 C 
ATOM     11  C   UNL     1     -12.702 -11.378  20.657  0.00  0.00    +0.085 C 
BRANCH   3  12
ATOM     12  C   UNL     1     -11.399 -13.346  20.108  0.00  0.00    +0.127 C 
BRANCH  12  14
ATOM      1  S   UNL     1     -11.306 -14.471  22.649  0.00  0.00    -0.100 S 
ATOM     14  C   UNL     1     -10.586 -14.066  21.150  0.00  0.00    +0.004 A 
ATOM     16  C   UNL     1      -9.271 -14.473  21.080  0.00  0.00    +0.012 A 
ATOM     18  C   UNL     1      -8.851 -15.128  22.274  0.00  0.00    +0.008 A 
ATOM     19  C   UNL     1      -9.859 -15.195  23.210  0.00  0.00    +0.045 A 
ENDBRANCH  12  14
ENDBRANCH   3  12
ENDBRANCH  13   8
TORSDOF 5
ENDMDL
MODEL 8
REMARK VINA RESULT:      -6.0      3.597      9.404
REMARK  Name = 45783816
REMARK  7 active torsions:
REMARK  status: ('A' for Active; 'I' for Inactive)
REMARK    1  A    between atoms: N_3  and  C_12
REMARK    2  A    between atoms: N_7  and  C_23
REMARK    3  A    between atoms: N_7  and  C_24
REMARK    4  A    between atoms: N_7  and  C_25
REMARK    5  A    between atoms: C_8  and  C_13
REMARK    6  A    between atoms: C_12  and  C_14
REMARK    7  A    between atoms: C_15  and  C_17
REMARK                            x       y       z     vdW  Elec       q    Type
REMARK                         _______ _______ _______ _____ _____    ______ ____
ROOT
ATOM      2  O   UNL     1      19.317   5.912  20.055  0.00  0.00    -0.336 OA
ATOM      4  N   UNL     1      18.297   7.279  21.507  0.00  0.00    -0.190 NA
ATOM      5  N   UNL     1      17.949   5.846  19.758  0.00  0.00    -0.056 NA
ATOM     13  C   UNL     1      19.434   6.777  21.096  0.00  0.00    +0.245 A 
ATOM     15  C   UNL     1      17.415   6.678  20.657  0.00  0.00    +0.204 A 
ENDROOT
BRANCH  15  17
ATOM      6  N   UNL     1      13.820   6.761  19.711  0.00  0.00    -0.240 NA
ATOM     17  C   UNL     1      16.005   6.930  20.732  0.00  0.00    +0.041 A 
ATOM     20  C   UNL     1      15.448   7.562  21.838  0.00  0.00    +0.016 A 
ATOM     21  C   UNL     1      15.156   6.552  19.703  0.00  0.00    +0.124 A 
ATOM     22  C   UNL     1      14.078   7.794  21.881  0.00  0.00    +0.044 A 
ATOM     23  C   UNL     1      13.314   7.377  20.802  0.00  0.00    +0.121 A 
BRANCH  23   7
ATOM      7  N   UNL     1      11.920   7.618  20.862  0.00  0.00    -0.321 N 
ATOM     24  C   UNL     1      11.058   6.723  21.603  0.00  0.00    +0.130 C 
ATOM     25  C   UNL     1      11.349   8.765  20.190  0.00  0.00    +0.130 C 
ENDBRANCH  23   7
ENDBRANCH  15  17
BRANCH  13   8
ATOM      3  N   UNL     1      21.745   5.891  21.359  0.00  0.00    -0.287 NA
ATOM      8  C   UNL     1      20.836   7.027  21.612  0.00  0.00    +0.146 C 
ATOM      9  C   UNL     1      21.515   8.231  20.934  0.00  0.00    +0.030 C 
ATOM     10  C   UNL     1      22.824   7.688  20.381  0.00  0.00    +0.017 C 
ATOM     11  C   UNL     1      23.087   6.458  21.225  0.00  0.00    +0.085 C 
BRANCH   3  12
ATOM     12  C   UNL     1      21.683   4.864  22.392  0.00  0.00    +0.127 C 
BRANCH  12  14
ATOM      1  S   UNL     1      23.837   3.337  23.266  0.00  0.00    -0.100 S 
ATOM     14  C   UNL     1      22.634   3.731  22.112  0.00  0.00    +0.004 A 
ATOM     16  C   UNL     1      22.689   2.911  21.006  0.00  0.00    +0.012 A 
ATOM     18  C   UNL     1      23.734   1.948  21.107  0.00  0.00    +0.008 A 
ATOM     19  C   UNL     1      24.436   2.067  22.286  0.00  0.00    +0.045 A 
ENDBRANCH  12  14
ENDBRANCH   3  12
ENDBRANCH  13   8
TORSDOF 5
ENDMDL
MODEL 9
REMARK VINA RESULT:      -6.0     29.361     32.547
REMARK  Name = 45783816
REMARK  7 active torsions:
REMARK  status: ('A' for Active; 'I' for Inactive)
REMARK    1  A    between atoms: N_3  and  C_12
REMARK    2  A    between atoms: N_7  and  C_23
REMARK    3  A    between atoms: N_7  and  C_24
REMARK    4  A    between atoms: N_7  and  C_25
REMARK    5  A    between atoms: C_8  and  C_13
REMARK    6  A    between atoms: C_12  and  C_14
REMARK    7  A    between atoms: C_15  and  C_17
REMARK                            x       y       z     vdW  Elec       q    Type
REMARK                         _______ _______ _______ _____ _____    ______ ____
ROOT
ATOM      2  O   UNL     1     -17.287   2.518  22.278  0.00  0.00    -0.336 OA
ATOM      4  N   UNL     1     -17.018   4.026  23.913  0.00  0.00    -0.190 NA
ATOM      5  N   UNL     1     -17.039   1.787  23.447  0.00  0.00    -0.056 NA
ATOM     13  C   UNL     1     -17.257   3.827  22.641  0.00  0.00    +0.245 A 
ATOM     15  C   UNL     1     -16.891   2.746  24.366  0.00  0.00    +0.204 A 
ENDROOT
BRANCH  15  17
ATOM      6  N   UNL     1     -16.515   0.836  27.534  0.00  0.00    -0.240 NA
ATOM     17  C   UNL     1     -16.616   2.457  25.743  0.00  0.00    +0.041 A 
ATOM     20  C   UNL     1     -16.198   3.457  26.615  0.00  0.00    +0.016 A 
ATOM     21  C   UNL     1     -16.757   1.174  26.247  0.00  0.00    +0.124 A 
ATOM     22  C   UNL     1     -15.940   3.147  27.946  0.00  0.00    +0.044 A 
ATOM     23  C   UNL     1     -16.111   1.833  28.352  0.00  0.00    +0.121 A 
BRANCH  23   7
ATOM      7  N   UNL     1     -15.842   1.533  29.709  0.00  0.00    -0.321 N 
ATOM     24  C   UNL     1     -16.046   2.537  30.731  0.00  0.00    +0.130 C 
ATOM     25  C   UNL     1     -15.368   0.219  30.085  0.00  0.00    +0.130 C 
ENDBRANCH  23   7
ENDBRANCH  15  17
BRANCH  13   8
ATOM      3  N   UNL     1     -16.247   5.386  20.985  0.00  0.00    -0.287 NA
ATOM      8  C   UNL     1     -17.501   4.839  21.541  0.00  0.00    +0.146 C 
ATOM      9  C   UNL     1     -18.236   4.236  20.330  0.00  0.00    +0.030 C 
ATOM     10  C   UNL     1     -17.349   4.546  19.132  0.00  0.00    +0.017 C 
ATOM     11  C   UNL     1     -16.530   5.734  19.592  0.00  0.00    +0.085 C 
BRANCH   3  12
ATOM     12  C   UNL     1     -15.731   6.522  21.740  0.00  0.00    +0.127 C 
BRANCH  12  14
ATOM      1  S   UNL     1     -13.989   8.427  20.705  0.00  0.00    -0.100 S 
ATOM     14  C   UNL     1     -14.324   6.870  21.336  0.00  0.00    +0.004 A 
ATOM     16  C   UNL     1     -13.194   6.084  21.399  0.00  0.00    +0.012 A 
ATOM     18  C   UNL     1     -12.039   6.769  20.922  0.00  0.00    +0.008 A 
ATOM     19  C   UNL     1     -12.329   8.052  20.514  0.00  0.00    +0.045 A 
ENDBRANCH  12  14
ENDBRANCH   3  12
ENDBRANCH  13   8
TORSDOF 5
ENDMDL
MODEL 10
REMARK VINA RESULT:      -5.9     15.065     18.768
REMARK  Name = 45783816
REMARK  7 active torsions:
REMARK  status: ('A' for Active; 'I' for Inactive)
REMARK    1  A    between atoms: N_3  and  C_12
REMARK    2  A    between atoms: N_7  and  C_23
REMARK    3  A    between atoms: N_7  and  C_24
REMARK    4  A    between atoms: N_7  and  C_25
REMARK    5  A    between atoms: C_8  and  C_13
REMARK    6  A    between atoms: C_12  and  C_14
REMARK    7  A    between atoms: C_15  and  C_17
REMARK                            x       y       z     vdW  Elec       q    Type
REMARK                         _______ _______ _______ _____ _____    ______ ____
ROOT
ATOM      2  O   UNL     1      11.912   6.488   4.229  0.00  0.00    -0.336 OA
ATOM      4  N   UNL     1      10.625   4.798   3.519  0.00  0.00    -0.190 NA
ATOM      5  N   UNL     1      12.317   6.216   2.916  0.00  0.00    -0.056 NA
ATOM     13  C   UNL     1      10.914   5.609   4.506  0.00  0.00    +0.245 A 
ATOM     15  C   UNL     1      11.512   5.208   2.567  0.00  0.00    +0.204 A 
ENDROOT
BRANCH  15  17
ATOM      6  N   UNL     1      10.486   4.102  -0.832  0.00  0.00    -0.240 NA
ATOM     17  C   UNL     1      11.569   4.589   1.274  0.00  0.00    +0.041 A 
ATOM     20  C   UNL     1      12.701   3.895   0.862  0.00  0.00    +0.016 A 
ATOM     21  C   UNL     1      10.497   4.663   0.398  0.00  0.00    +0.124 A 
ATOM     22  C   UNL     1      12.726   3.304  -0.397  0.00  0.00    +0.044 A 
ATOM     23  C   UNL     1      11.603   3.435  -1.199  0.00  0.00    +0.121 A 
BRANCH  23   7
ATOM      7  N   UNL     1      11.645   2.830  -2.479  0.00  0.00    -0.321 N 
ATOM     24  C   UNL     1      12.745   3.105  -3.378  0.00  0.00    +0.130 C 
ATOM     25  C   UNL     1      10.594   1.927  -2.892  0.00  0.00    +0.130 C 
ENDBRANCH  23   7
ENDBRANCH  15  17
BRANCH  13   8
ATOM      3  N   UNL     1      10.815   6.841   6.666  0.00  0.00    -0.287 NA
ATOM      8  C   UNL     1      10.297   5.700   5.886  0.00  0.00    +0.146 C 
ATOM      9  C   UNL     1       8.773   5.914   5.844  0.00  0.00    +0.030 C 
ATOM     10  C   UNL     1       8.524   7.163   6.676  0.00  0.00    +0.017 C 
ATOM     11  C   UNL     1       9.740   7.242   7.575  0.00  0.00    +0.085 C 
BRANCH   3  12
ATOM     12  C   UNL     1      12.050   6.537   7.377  0.00  0.00    +0.127 C 
BRANCH  12  14
ATOM      1  S   UNL     1      12.907   9.140   6.903  0.00  0.00    -0.100 S 
ATOM     14  C   UNL     1      13.174   7.449   6.964  0.00  0.00    +0.004 A 
ATOM     16  C   UNL     1      14.462   7.116   6.606  0.00  0.00    +0.012 A 
ATOM     18  C   UNL     1      15.240   8.263   6.277  0.00  0.00    +0.008 A 
ATOM     19  C   UNL     1      14.517   9.430   6.396  0.00  0.00    +0.045 A 
ENDBRANCH  12  14
ENDBRANCH   3  12
ENDBRANCH  13   8
TORSDOF 5
ENDMDL
