MODEL 1
REMARK VINA RESULT:      -7.7      0.000      0.000
REMARK  Name = 7135507
REMARK  2 active torsions:
REMARK  status: ('A' for Active; 'I' for Inactive)
REMARK    1  A    between atoms: C_10  and  C_17
REMARK    2  A    between atoms: C_26  and  C_28
REMARK                            x       y       z     vdW  Elec       q    Type
REMARK                         _______ _______ _______ _____ _____    ______ ____
ROOT
ATOM      1  O   UNL     1     -14.242 -11.997  19.507  0.00  0.00    -0.275 OA
ATOM      2  O   UNL     1     -10.675 -10.584  20.432  0.00  0.00    -0.273 OA
ATOM      3  O   UNL     1      -8.933  -8.486  15.904  0.00  0.00    -0.270 OA
ATOM      6  N   UNL     1     -12.852 -10.514  18.380  0.00  0.00    -0.298 N 
ATOM      7  N   UNL     1     -10.272  -9.802  17.256  0.00  0.00    -0.283 N 
ATOM      9  N   UNL     1      -8.566 -10.425  19.591  0.00  0.00    -0.283 N 
ATOM     11  C   UNL     1     -10.417 -11.002  18.068  0.00  0.00    +0.180 C 
ATOM     12  C   UNL     1     -11.854 -11.541  18.075  0.00  0.00    +0.139 C 
ATOM     13  C   UNL     1     -12.573  -9.157  17.899  0.00  0.00    +0.127 C 
ATOM     14  C   UNL     1     -11.500  -9.133  16.821  0.00  0.00    +0.128 C 
ATOM     17  C   UNL     1     -13.997 -10.859  19.099  0.00  0.00    +0.219 C 
ATOM     20  C   UNL     1      -9.923 -10.626  19.456  0.00  0.00    +0.239 C 
ATOM     21  C   UNL     1      -9.049  -9.382  16.742  0.00  0.00    +0.249 C 
ATOM     22  C   UNL     1      -7.801 -10.017  17.243  0.00  0.00    +0.059 A 
ATOM     23  C   UNL     1      -7.583 -10.389  18.580  0.00  0.00    +0.046 A 
ATOM     24  C   UNL     1      -6.730 -10.069  16.332  0.00  0.00    +0.023 A 
ATOM     25  C   UNL     1      -6.283 -10.736  18.987  0.00  0.00    +0.024 A 
ATOM     26  C   UNL     1      -5.458 -10.463  16.742  0.00  0.00    -0.017 A 
ATOM     27  C   UNL     1      -5.231 -10.784  18.073  0.00  0.00    +0.010 A 
ATOM     36  H   UNL     1      -8.222 -10.395  20.549  0.00  0.00    +0.155 HD
ENDROOT
BRANCH  26  28
ATOM      4  O   UNL     1      -3.655 -10.575  12.190  0.00  0.00    -0.453 OA
ATOM      5  O   UNL     1      -1.379 -10.660  12.980  0.00  0.00    -0.453 OA
ATOM     28  C   UNL     1      -4.370 -10.514  15.789  0.00  0.00    -0.014 A 
ATOM     29  C   UNL     1      -4.648 -10.514  14.420  0.00  0.00    +0.058 A 
ATOM     30  C   UNL     1      -3.043 -10.564  16.249  0.00  0.00    +0.012 A 
ATOM     31  C   UNL     1      -3.578 -10.565  13.549  0.00  0.00    +0.167 A 
ATOM     32  C   UNL     1      -2.279 -10.614  14.000  0.00  0.00    +0.166 A 
ATOM     33  C   UNL     1      -1.977 -10.615  15.347  0.00  0.00    +0.050 A 
ATOM     34  C   UNL     1      -2.258 -10.635  11.837  0.00  0.00    +0.466 C 
ENDBRANCH  26  28
BRANCH  17  10
ATOM      8  N   UNL     1     -17.066 -10.645  21.214  0.00  0.00    -0.316 NA
ATOM     10  C   UNL     1     -14.972  -9.747  19.367  0.00  0.00    +0.078 C 
ATOM     15  C   UNL     1     -14.976  -9.373  20.851  0.00  0.00    +0.028 C 
ATOM     16  C   UNL     1     -16.376 -10.128  18.895  0.00  0.00    +0.028 C 
ATOM     18  C   UNL     1     -15.711 -10.405  21.707  0.00  0.00    +0.081 C 
ATOM     19  C   UNL     1     -17.052 -11.129  19.834  0.00  0.00    +0.081 C 
ATOM     35  H   UNL     1     -17.525 -11.333  21.809  0.00  0.00    +0.122 HD
ENDBRANCH  17  10
TORSDOF 2
ENDMDL
MODEL 2
REMARK VINA RESULT:      -7.7      8.052     12.355
REMARK  Name = 7135507
REMARK  2 active torsions:
REMARK  status: ('A' for Active; 'I' for Inactive)
REMARK    1  A    between atoms: C_10  and  C_17
REMARK    2  A    between atoms: C_26  and  C_28
REMARK                            x       y       z     vdW  Elec       q    Type
REMARK                         _______ _______ _______ _____ _____    ______ ____
ROOT
ATOM      1  O   UNL     1      -1.860  -9.929  12.702  0.00  0.00    -0.275 OA
ATOM      2  O   UNL     1      -5.556  -8.895  11.785  0.00  0.00    -0.273 OA
ATOM      3  O   UNL     1      -6.601 -11.678   7.414  0.00  0.00    -0.270 OA
ATOM      6  N   UNL     1      -3.398 -10.897  11.252  0.00  0.00    -0.298 N 
ATOM      7  N   UNL     1      -5.280 -10.713   9.050  0.00  0.00    -0.283 N 
ATOM      9  N   UNL     1      -6.854  -8.389   9.984  0.00  0.00    -0.283 N 
ATOM     11  C   UNL     1      -4.689  -9.510   9.617  0.00  0.00    +0.180 C 
ATOM     12  C   UNL     1      -3.344  -9.780  10.306  0.00  0.00    +0.139 C 
ATOM     13  C   UNL     1      -4.292 -12.008  10.913  0.00  0.00    +0.127 C 
ATOM     14  C   UNL     1      -4.700 -11.998   9.447  0.00  0.00    +0.128 C 
ATOM     17  C   UNL     1      -2.616 -10.859  12.407  0.00  0.00    +0.219 C 
ATOM     20  C   UNL     1      -5.733  -8.942  10.565  0.00  0.00    +0.239 C 
ATOM     21  C   UNL     1      -6.231 -10.680   8.035  0.00  0.00    +0.249 C 
ATOM     22  C   UNL     1      -6.869  -9.382   7.687  0.00  0.00    +0.059 A 
ATOM     23  C   UNL     1      -7.228  -8.401   8.624  0.00  0.00    +0.046 A 
ATOM     24  C   UNL     1      -7.282  -9.241   6.349  0.00  0.00    +0.023 A 
ATOM     25  C   UNL     1      -8.054  -7.338   8.215  0.00  0.00    +0.024 A 
ATOM     26  C   UNL     1      -8.059  -8.154   5.951  0.00  0.00    -0.017 A 
ATOM     27  C   UNL     1      -8.457  -7.210   6.886  0.00  0.00    +0.010 A 
ATOM     36  H   UNL     1      -7.431  -7.821  10.601  0.00  0.00    +0.155 HD
ENDROOT
BRANCH  26  28
ATOM      4  O   UNL     1      -7.881  -9.390   1.215  0.00  0.00    -0.453 OA
ATOM      5  O   UNL     1      -9.548  -7.754   0.616  0.00  0.00    -0.453 OA
ATOM     28  C   UNL     1      -8.471  -8.024   4.569  0.00  0.00    -0.014 A 
ATOM     29  C   UNL     1      -7.899  -8.846   3.595  0.00  0.00    +0.058 A 
ATOM     30  C   UNL     1      -9.443  -7.070   4.220  0.00  0.00    +0.012 A 
ATOM     31  C   UNL     1      -8.324  -8.684   2.291  0.00  0.00    +0.167 A 
ATOM     32  C   UNL     1      -9.275  -7.750   1.949  0.00  0.00    +0.166 A 
ATOM     33  C   UNL     1      -9.856  -6.927   2.893  0.00  0.00    +0.050 A 
ATOM     34  C   UNL     1      -8.661  -8.795   0.157  0.00  0.00    +0.466 C 
ENDBRANCH  26  28
BRANCH  17  10
ATOM      8  N   UNL     1      -2.438 -11.213  16.120  0.00  0.00    -0.316 NA
ATOM     10  C   UNL     1      -2.727 -12.046  13.323  0.00  0.00    +0.078 C 
ATOM     15  C   UNL     1      -3.924 -11.897  14.264  0.00  0.00    +0.028 C 
ATOM     16  C   UNL     1      -1.432 -12.248  14.112  0.00  0.00    +0.028 C 
ATOM     18  C   UNL     1      -3.659 -10.889  15.384  0.00  0.00    +0.081 C 
ATOM     19  C   UNL     1      -1.273 -11.225  15.237  0.00  0.00    +0.081 C 
ATOM     35  H   UNL     1      -2.297 -10.524  16.858  0.00  0.00    +0.122 HD
ENDBRANCH  17  10
TORSDOF 2
ENDMDL
MODEL 3
REMARK VINA RESULT:      -7.6     27.836     30.136
REMARK  Name = 7135507
REMARK  2 active torsions:
REMARK  status: ('A' for Active; 'I' for Inactive)
REMARK    1  A    between atoms: C_10  and  C_17
REMARK    2  A    between atoms: C_26  and  C_28
REMARK                            x       y       z     vdW  Elec       q    Type
REMARK                         _______ _______ _______ _____ _____    ______ ____
ROOT
ATOM      1  O   UNL     1       8.634  11.875   8.904  0.00  0.00    -0.275 OA
ATOM      2  O   UNL     1       9.351   8.020   8.458  0.00  0.00    -0.273 OA
ATOM      3  O   UNL     1      13.430   7.873   5.100  0.00  0.00    -0.270 OA
ATOM      6  N   UNL     1      10.469  10.759   8.015  0.00  0.00    -0.298 N 
ATOM      7  N   UNL     1      11.625   8.806   6.206  0.00  0.00    -0.283 N 
ATOM      9  N   UNL     1       9.891   6.498   6.855  0.00  0.00    -0.283 N 
ATOM     11  C   UNL     1      10.181   8.898   6.368  0.00  0.00    +0.180 C 
ATOM     12  C   UNL     1       9.726  10.283   6.846  0.00  0.00    +0.139 C 
ATOM     13  C   UNL     1      11.880  10.372   8.105  0.00  0.00    +0.127 C 
ATOM     14  C   UNL     1      12.434   9.886   6.774  0.00  0.00    +0.128 C 
ATOM     17  C   UNL     1       9.820  11.542   8.971  0.00  0.00    +0.219 C 
ATOM     20  C   UNL     1       9.800   7.787   7.334  0.00  0.00    +0.239 C 
ATOM     21  C   UNL     1      12.235   7.850   5.399  0.00  0.00    +0.249 C 
ATOM     22  C   UNL     1      11.421   6.716   4.886  0.00  0.00    +0.059 A 
ATOM     23  C   UNL     1      10.423   6.060   5.624  0.00  0.00    +0.046 A 
ATOM     24  C   UNL     1      11.826   6.181   3.649  0.00  0.00    +0.023 A 
ATOM     25  C   UNL     1       9.905   4.845   5.139  0.00  0.00    +0.024 A 
ATOM     26  C   UNL     1      11.266   5.002   3.160  0.00  0.00    -0.017 A 
ATOM     27  C   UNL     1      10.315   4.327   3.912  0.00  0.00    +0.010 A 
ATOM     36  H   UNL     1       9.431   5.788   7.420  0.00  0.00    +0.155 HD
ENDROOT
BRANCH  26  28
ATOM      4  O   UNL     1      10.503   3.743  -1.511  0.00  0.00    -0.453 OA
ATOM      5  O   UNL     1      12.773   2.981  -1.787  0.00  0.00    -0.453 OA
ATOM     28  C   UNL     1      11.692   4.471   1.883  0.00  0.00    -0.014 A 
ATOM     29  C   UNL     1      10.785   4.402   0.823  0.00  0.00    +0.058 A 
ATOM     30  C   UNL     1      13.017   4.026   1.722  0.00  0.00    +0.012 A 
ATOM     31  C   UNL     1      11.238   3.887  -0.375  0.00  0.00    +0.167 A 
ATOM     32  C   UNL     1      12.535   3.452  -0.533  0.00  0.00    +0.166 A 
ATOM     33  C   UNL     1      13.450   3.508   0.499  0.00  0.00    +0.050 A 
ATOM     34  C   UNL     1      11.481   3.168  -2.401  0.00  0.00    +0.466 C 
ENDBRANCH  26  28
BRANCH  17  10
ATOM      8  N   UNL     1       9.371  14.250  11.502  0.00  0.00    -0.316 NA
ATOM     10  C   UNL     1      10.654  11.993  10.137  0.00  0.00    +0.078 C 
ATOM     15  C   UNL     1       9.885  11.831  11.450  0.00  0.00    +0.028 C 
ATOM     16  C   UNL     1      11.117  13.439   9.949  0.00  0.00    +0.028 C 
ATOM     18  C   UNL     1       8.812  12.905  11.630  0.00  0.00    +0.081 C 
ATOM     19  C   UNL     1       9.991  14.445  10.192  0.00  0.00    +0.081 C 
ATOM     35  H   UNL     1       8.630  14.938  11.631  0.00  0.00    +0.122 HD
ENDBRANCH  17  10
TORSDOF 2
ENDMDL
MODEL 4
REMARK VINA RESULT:      -7.3      2.665     10.757
REMARK  Name = 7135507
REMARK  2 active torsions:
REMARK  status: ('A' for Active; 'I' for Inactive)
REMARK    1  A    between atoms: C_10  and  C_17
REMARK    2  A    between atoms: C_26  and  C_28
REMARK                            x       y       z     vdW  Elec       q    Type
REMARK                         _______ _______ _______ _____ _____    ______ ____
ROOT
ATOM      1  O   UNL     1      -5.010 -12.806  13.601  0.00  0.00    -0.275 OA
ATOM      2  O   UNL     1      -7.151  -9.782  14.958  0.00  0.00    -0.273 OA
ATOM      3  O   UNL     1      -8.229 -11.135  19.953  0.00  0.00    -0.270 OA
ATOM      6  N   UNL     1      -5.591 -12.202  15.769  0.00  0.00    -0.298 N 
ATOM      7  N   UNL     1      -7.571 -11.466  17.759  0.00  0.00    -0.283 N 
ATOM      9  N   UNL     1      -8.976  -9.347  16.246  0.00  0.00    -0.283 N 
ATOM     11  C   UNL     1      -7.944 -11.583  16.357  0.00  0.00    +0.180 C 
ATOM     12  C   UNL     1      -7.008 -12.514  15.572  0.00  0.00    +0.139 C 
ATOM     13  C   UNL     1      -5.200 -11.704  17.091  0.00  0.00    +0.127 C 
ATOM     14  C   UNL     1      -6.257 -11.980  18.151  0.00  0.00    +0.128 C 
ATOM     17  C   UNL     1      -4.693 -12.387  14.717  0.00  0.00    +0.219 C 
ATOM     20  C   UNL     1      -7.955 -10.164  15.811  0.00  0.00    +0.239 C 
ATOM     21  C   UNL     1      -8.465 -11.059  18.745  0.00  0.00    +0.249 C 
ATOM     22  C   UNL     1      -9.768 -10.471  18.338  0.00  0.00    +0.059 A 
ATOM     23  C   UNL     1      -9.940  -9.610  17.242  0.00  0.00    +0.046 A 
ATOM     24  C   UNL     1     -10.837 -10.669  19.232  0.00  0.00    +0.023 A 
ATOM     25  C   UNL     1     -11.154  -8.913  17.107  0.00  0.00    +0.024 A 
ATOM     26  C   UNL     1     -12.051 -10.007  19.055  0.00  0.00    -0.017 A 
ATOM     27  C   UNL     1     -12.205  -9.118  18.001  0.00  0.00    +0.010 A 
ATOM     36  H   UNL     1      -9.105  -8.488  15.716  0.00  0.00    +0.155 HD
ENDROOT
BRANCH  26  28
ATOM      4  O   UNL     1     -14.192 -12.348  22.786  0.00  0.00    -0.453 OA
ATOM      5  O   UNL     1     -16.157 -10.957  22.670  0.00  0.00    -0.453 OA
ATOM     28  C   UNL     1     -13.140 -10.227  19.983  0.00  0.00    -0.014 A 
ATOM     29  C   UNL     1     -13.043 -11.243  20.937  0.00  0.00    +0.058 A 
ATOM     30  C   UNL     1     -14.286  -9.415  19.915  0.00  0.00    +0.012 A 
ATOM     31  C   UNL     1     -14.107 -11.414  21.799  0.00  0.00    +0.167 A 
ATOM     32  C   UNL     1     -15.230 -10.620  21.733  0.00  0.00    +0.166 A 
ATOM     33  C   UNL     1     -15.350  -9.610  20.800  0.00  0.00    +0.050 A 
ATOM     34  C   UNL     1     -15.493 -12.052  23.333  0.00  0.00    +0.466 C 
ENDBRANCH  26  28
BRANCH  17  10
ATOM      8  N   UNL     1      -1.767 -11.708  12.499  0.00  0.00    -0.316 NA
ATOM     10  C   UNL     1      -3.257 -12.048  15.002  0.00  0.00    +0.078 C 
ATOM     15  C   UNL     1      -2.901 -10.671  14.437  0.00  0.00    +0.028 C 
ATOM     16  C   UNL     1      -2.322 -13.125  14.449  0.00  0.00    +0.028 C 
ATOM     18  C   UNL     1      -2.733 -10.694  12.917  0.00  0.00    +0.081 C 
ATOM     19  C   UNL     1      -2.180 -13.044  12.929  0.00  0.00    +0.081 C 
ATOM     35  H   UNL     1      -1.679 -11.692  11.483  0.00  0.00    +0.122 HD
ENDBRANCH  17  10
TORSDOF 2
ENDMDL
MODEL 5
REMARK VINA RESULT:      -7.2     17.828     21.465
REMARK  Name = 7135507
REMARK  2 active torsions:
REMARK  status: ('A' for Active; 'I' for Inactive)
REMARK    1  A    between atoms: C_10  and  C_17
REMARK    2  A    between atoms: C_26  and  C_28
REMARK                            x       y       z     vdW  Elec       q    Type
REMARK                         _______ _______ _______ _____ _____    ______ ____
ROOT
ATOM      1  O   UNL     1      -9.965  10.121  17.125  0.00  0.00    -0.275 OA
ATOM      2  O   UNL     1     -13.665   8.896  17.745  0.00  0.00    -0.273 OA
ATOM      3  O   UNL     1     -14.227   9.175  22.994  0.00  0.00    -0.270 OA
ATOM      6  N   UNL     1     -11.334  10.293  18.996  0.00  0.00    -0.298 N 
ATOM      7  N   UNL     1     -13.085   9.105  20.983  0.00  0.00    -0.283 N 
ATOM      9  N   UNL     1     -14.883   7.608  19.173  0.00  0.00    -0.283 N 
ATOM     11  C   UNL     1     -12.622   8.322  19.846  0.00  0.00    +0.180 C 
ATOM     12  C   UNL     1     -11.306   8.853  19.260  0.00  0.00    +0.139 C 
ATOM     13  C   UNL     1     -12.120  11.119  19.918  0.00  0.00    +0.127 C 
ATOM     14  C   UNL     1     -12.436  10.396  21.219  0.00  0.00    +0.128 C 
ATOM     17  C   UNL     1     -10.630  10.807  17.906  0.00  0.00    +0.219 C 
ATOM     20  C   UNL     1     -13.762   8.337  18.840  0.00  0.00    +0.239 C 
ATOM     21  C   UNL     1     -13.972   8.605  21.932  0.00  0.00    +0.249 C 
ATOM     22  C   UNL     1     -14.682   7.329  21.652  0.00  0.00    +0.059 A 
ATOM     23  C   UNL     1     -15.172   6.955  20.390  0.00  0.00    +0.046 A 
ATOM     24  C   UNL     1     -15.022   6.556  22.778  0.00  0.00    +0.023 A 
ATOM     25  C   UNL     1     -16.047   5.859  20.296  0.00  0.00    +0.024 A 
ATOM     26  C   UNL     1     -15.852   5.443  22.659  0.00  0.00    -0.017 A 
ATOM     27  C   UNL     1     -16.376   5.102  21.420  0.00  0.00    +0.010 A 
ATOM     36  H   UNL     1     -15.538   7.442  18.412  0.00  0.00    +0.155 HD
ENDROOT
BRANCH  26  28
ATOM      4  O   UNL     1     -16.274   1.216  25.097  0.00  0.00    -0.453 OA
ATOM      5  O   UNL     1     -17.103   2.317  27.075  0.00  0.00    -0.453 OA
ATOM     28  C   UNL     1     -16.187   4.658  23.828  0.00  0.00    -0.014 A 
ATOM     29  C   UNL     1     -16.028   3.271  23.801  0.00  0.00    +0.058 A 
ATOM     30  C   UNL     1     -16.670   5.300  24.982  0.00  0.00    +0.012 A 
ATOM     31  C   UNL     1     -16.361   2.565  24.940  0.00  0.00    +0.167 A 
ATOM     32  C   UNL     1     -16.834   3.194  26.069  0.00  0.00    +0.166 A 
ATOM     33  C   UNL     1     -17.000   4.563  26.122  0.00  0.00    +0.050 A 
ATOM     34  C   UNL     1     -16.746   1.067  26.452  0.00  0.00    +0.466 C 
ENDBRANCH  26  28
BRANCH  17  10
ATOM      8  N   UNL     1      -9.661  13.032  15.070  0.00  0.00    -0.316 NA
ATOM     10  C   UNL     1     -10.707  12.294  17.708  0.00  0.00    +0.078 C 
ATOM     15  C   UNL     1     -11.619  12.640  16.529  0.00  0.00    +0.028 C 
ATOM     16  C   UNL     1      -9.313  12.892  17.515  0.00  0.00    +0.028 C 
ATOM     18  C   UNL     1     -10.954  12.360  15.180  0.00  0.00    +0.081 C 
ATOM     19  C   UNL     1      -8.745  12.600  16.125  0.00  0.00    +0.081 C 
ATOM     35  H   UNL     1      -9.250  12.826  14.160  0.00  0.00    +0.122 HD
ENDBRANCH  17  10
TORSDOF 2
ENDMDL
MODEL 6
REMARK VINA RESULT:      -7.1     20.954     23.898
REMARK  Name = 7135507
REMARK  2 active torsions:
REMARK  status: ('A' for Active; 'I' for Inactive)
REMARK    1  A    between atoms: C_10  and  C_17
REMARK    2  A    between atoms: C_26  and  C_28
REMARK                            x       y       z     vdW  Elec       q    Type
REMARK                         _______ _______ _______ _____ _____    ______ ____
ROOT
ATOM      1  O   UNL     1       8.895  -5.278  38.119  0.00  0.00    -0.275 OA
ATOM      2  O   UNL     1       7.170  -5.550  34.580  0.00  0.00    -0.273 OA
ATOM      3  O   UNL     1       5.099 -10.414  34.554  0.00  0.00    -0.270 OA
ATOM      6  N   UNL     1       7.345  -6.801  37.292  0.00  0.00    -0.298 N 
ATOM      7  N   UNL     1       6.470  -8.695  35.275  0.00  0.00    -0.283 N 
ATOM      9  N   UNL     1       6.873  -7.021  32.869  0.00  0.00    -0.283 N 
ATOM     11  C   UNL     1       7.648  -7.870  35.050  0.00  0.00    +0.180 C 
ATOM     12  C   UNL     1       8.300  -7.401  36.358  0.00  0.00    +0.139 C 
ATOM     13  C   UNL     1       5.988  -7.356  37.300  0.00  0.00    +0.127 C 
ATOM     14  C   UNL     1       5.916  -8.721  36.631  0.00  0.00    +0.128 C 
ATOM     17  C   UNL     1       7.756  -5.752  38.116  0.00  0.00    +0.219 C 
ATOM     20  C   UNL     1       7.185  -6.715  34.176  0.00  0.00    +0.239 C 
ATOM     21  C   UNL     1       5.971  -9.575  34.319  0.00  0.00    +0.249 C 
ATOM     22  C   UNL     1       6.487  -9.494  32.927  0.00  0.00    +0.059 A 
ATOM     23  C   UNL     1       6.793  -8.294  32.265  0.00  0.00    +0.046 A 
ATOM     24  C   UNL     1       6.485 -10.699  32.200  0.00  0.00    +0.023 A 
ATOM     25  C   UNL     1       7.021  -8.320  30.878  0.00  0.00    +0.024 A 
ATOM     26  C   UNL     1       6.761 -10.713  30.834  0.00  0.00    -0.017 A 
ATOM     27  C   UNL     1       7.016  -9.522  30.170  0.00  0.00    +0.010 A 
ATOM     36  H   UNL     1       6.782  -6.224  32.243  0.00  0.00    +0.155 HD
ENDROOT
BRANCH  26  28
ATOM      4  O   UNL     1       4.907 -15.108  29.727  0.00  0.00    -0.453 OA
ATOM      5  O   UNL     1       6.638 -15.550  28.110  0.00  0.00    -0.453 OA
ATOM     28  C   UNL     1       6.759 -11.963  30.106  0.00  0.00    -0.014 A 
ATOM     29  C   UNL     1       5.754 -12.904  30.346  0.00  0.00    +0.058 A 
ATOM     30  C   UNL     1       7.769 -12.221  29.162  0.00  0.00    +0.012 A 
ATOM     31  C   UNL     1       5.794 -14.082  29.627  0.00  0.00    +0.167 A 
ATOM     32  C   UNL     1       6.783 -14.334  28.704  0.00  0.00    +0.166 A 
ATOM     33  C   UNL     1       7.787 -13.421  28.448  0.00  0.00    +0.050 A 
ATOM     34  C   UNL     1       5.448 -16.034  28.763  0.00  0.00    +0.466 C 
ENDBRANCH  26  28
BRANCH  17  10
ATOM      8  N   UNL     1       7.066  -2.300  39.359  0.00  0.00    -0.316 NA
ATOM     10  C   UNL     1       6.717  -5.195  39.049  0.00  0.00    +0.078 C 
ATOM     15  C   UNL     1       5.829  -4.178  38.329  0.00  0.00    +0.028 C 
ATOM     16  C   UNL     1       7.370  -4.573  40.284  0.00  0.00    +0.028 C 
ATOM     18  C   UNL     1       6.540  -2.842  38.107  0.00  0.00    +0.081 C 
ATOM     19  C   UNL     1       8.016  -3.221  39.980  0.00  0.00    +0.081 C 
ATOM     35  H   UNL     1       7.528  -1.410  39.174  0.00  0.00    +0.122 HD
ENDBRANCH  17  10
TORSDOF 2
ENDMDL
MODEL 7
REMARK VINA RESULT:      -7.1      6.497      9.362
REMARK  Name = 7135507
REMARK  2 active torsions:
REMARK  status: ('A' for Active; 'I' for Inactive)
REMARK    1  A    between atoms: C_10  and  C_17
REMARK    2  A    between atoms: C_26  and  C_28
REMARK                            x       y       z     vdW  Elec       q    Type
REMARK                         _______ _______ _______ _____ _____    ______ ____
ROOT
ATOM      1  O   UNL     1     -15.152  -5.036   9.328  0.00  0.00    -0.275 OA
ATOM      2  O   UNL     1     -15.727  -5.693  13.176  0.00  0.00    -0.273 OA
ATOM      3  O   UNL     1     -10.870  -5.422  15.245  0.00  0.00    -0.270 OA
ATOM      6  N   UNL     1     -13.760  -4.689  11.157  0.00  0.00    -0.298 N 
ATOM      7  N   UNL     1     -12.456  -5.631  13.573  0.00  0.00    -0.283 N 
ATOM      9  N   UNL     1     -14.805  -6.805  14.935  0.00  0.00    -0.283 N 
ATOM     11  C   UNL     1     -13.452  -6.455  12.904  0.00  0.00    +0.180 C 
ATOM     12  C   UNL     1     -13.590  -6.121  11.412  0.00  0.00    +0.139 C 
ATOM     13  C   UNL     1     -13.061  -3.769  12.060  0.00  0.00    +0.127 C 
ATOM     14  C   UNL     1     -11.959  -4.458  12.851  0.00  0.00    +0.128 C 
ATOM     17  C   UNL     1     -14.560  -4.270  10.093  0.00  0.00    +0.219 C 
ATOM     20  C   UNL     1     -14.746  -6.250  13.675  0.00  0.00    +0.239 C 
ATOM     21  C   UNL     1     -11.843  -6.006  14.765  0.00  0.00    +0.249 C 
ATOM     22  C   UNL     1     -12.399  -7.154  15.530  0.00  0.00    +0.059 A 
ATOM     23  C   UNL     1     -13.770  -7.426  15.665  0.00  0.00    +0.046 A 
ATOM     24  C   UNL     1     -11.474  -7.885  16.298  0.00  0.00    +0.023 A 
ATOM     25  C   UNL     1     -14.186  -8.375  16.616  0.00  0.00    +0.024 A 
ATOM     26  C   UNL     1     -11.901  -8.857  17.201  0.00  0.00    -0.017 A 
ATOM     27  C   UNL     1     -13.258  -9.092  17.371  0.00  0.00    +0.010 A 
ATOM     36  H   UNL     1     -15.734  -6.856  15.347  0.00  0.00    +0.155 HD
ENDROOT
BRANCH  26  28
ATOM      4  O   UNL     1      -7.426 -10.678  18.001  0.00  0.00    -0.453 OA
ATOM      5  O   UNL     1      -8.094 -11.689  20.085  0.00  0.00    -0.453 OA
ATOM     28  C   UNL     1     -10.934  -9.601  17.979  0.00  0.00    -0.014 A 
ATOM     29  C   UNL     1      -9.622  -9.728  17.515  0.00  0.00    +0.058 A 
ATOM     30  C   UNL     1     -11.323 -10.191  19.194  0.00  0.00    +0.012 A 
ATOM     31  C   UNL     1      -8.735 -10.448  18.291  0.00  0.00    +0.167 A 
ATOM     32  C   UNL     1      -9.117 -11.026  19.481  0.00  0.00    +0.166 A 
ATOM     33  C   UNL     1     -10.407 -10.915  19.960  0.00  0.00    +0.050 A 
ATOM     34  C   UNL     1      -7.026 -11.464  19.142  0.00  0.00    +0.466 C 
ENDBRANCH  26  28
BRANCH  17  10
ATOM      8  N   UNL     1     -16.863  -2.168   8.040  0.00  0.00    -0.316 NA
ATOM     10  C   UNL     1     -14.679  -2.785   9.898  0.00  0.00    +0.078 C 
ATOM     15  C   UNL     1     -16.045  -2.282  10.371  0.00  0.00    +0.028 C 
ATOM     16  C   UNL     1     -14.433  -2.406   8.437  0.00  0.00    +0.028 C 
ATOM     18  C   UNL     1     -17.165  -2.636   9.392  0.00  0.00    +0.081 C 
ATOM     19  C   UNL     1     -15.621  -2.755   7.539  0.00  0.00    +0.081 C 
ATOM     35  H   UNL     1     -17.630  -2.418   7.417  0.00  0.00    +0.122 HD
ENDBRANCH  17  10
TORSDOF 2
ENDMDL
MODEL 8
REMARK VINA RESULT:      -7.1     11.823     16.189
REMARK  Name = 7135507
REMARK  2 active torsions:
REMARK  status: ('A' for Active; 'I' for Inactive)
REMARK    1  A    between atoms: C_10  and  C_17
REMARK    2  A    between atoms: C_26  and  C_28
REMARK                            x       y       z     vdW  Elec       q    Type
REMARK                         _______ _______ _______ _____ _____    ______ ____
ROOT
ATOM      1  O   UNL     1      -7.721  -8.795  -0.749  0.00  0.00    -0.275 OA
ATOM      2  O   UNL     1      -7.250  -9.410   3.120  0.00  0.00    -0.273 OA
ATOM      3  O   UNL     1     -12.029  -8.417   5.149  0.00  0.00    -0.270 OA
ATOM      6  N   UNL     1      -9.282  -9.070   0.951  0.00  0.00    -0.298 N 
ATOM      7  N   UNL     1     -10.349  -8.376   3.560  0.00  0.00    -0.283 N 
ATOM      9  N   UNL     1      -7.848  -8.534   5.133  0.00  0.00    -0.283 N 
ATOM     11  C   UNL     1      -9.075  -7.829   3.114  0.00  0.00    +0.180 C 
ATOM     12  C   UNL     1      -8.950  -7.793   1.585  0.00  0.00    +0.139 C 
ATOM     13  C   UNL     1     -10.331  -9.872   1.588  0.00  0.00    +0.127 C 
ATOM     14  C   UNL     1     -11.173  -9.058   2.560  0.00  0.00    +0.128 C 
ATOM     17  C   UNL     1      -8.604  -9.462  -0.204  0.00  0.00    +0.219 C 
ATOM     20  C   UNL     1      -8.004  -8.684   3.772  0.00  0.00    +0.239 C 
ATOM     21  C   UNL     1     -10.878  -8.125   4.822  0.00  0.00    +0.249 C 
ATOM     22  C   UNL     1     -10.010  -7.498   5.854  0.00  0.00    +0.059 A 
ATOM     23  C   UNL     1      -8.647  -7.789   6.027  0.00  0.00    +0.046 A 
ATOM     24  C   UNL     1     -10.671  -6.705   6.811  0.00  0.00    +0.023 A 
ATOM     25  C   UNL     1      -7.996  -7.337   7.188  0.00  0.00    +0.024 A 
ATOM     26  C   UNL     1      -9.996  -6.225   7.933  0.00  0.00    -0.017 A 
ATOM     27  C   UNL     1      -8.662  -6.552   8.129  0.00  0.00    +0.010 A 
ATOM     36  H   UNL     1      -6.997  -8.933   5.523  0.00  0.00    +0.155 HD
ENDROOT
BRANCH  26  28
ATOM      4  O   UNL     1     -12.898  -5.603  11.829  0.00  0.00    -0.453 OA
ATOM      5  O   UNL     1     -12.718  -3.202  11.713  0.00  0.00    -0.453 OA
ATOM     28  C   UNL     1     -10.692  -5.407   8.903  0.00  0.00    -0.014 A 
ATOM     29  C   UNL     1     -11.462  -6.015   9.897  0.00  0.00    +0.058 A 
ATOM     30  C   UNL     1     -10.587  -4.006   8.835  0.00  0.00    +0.012 A 
ATOM     31  C   UNL     1     -12.107  -5.193  10.800  0.00  0.00    +0.167 A 
ATOM     32  C   UNL     1     -12.005  -3.822  10.733  0.00  0.00    +0.166 A 
ATOM     33  C   UNL     1     -11.251  -3.197   9.761  0.00  0.00    +0.050 A 
ATOM     34  C   UNL     1     -13.280  -4.337  12.403  0.00  0.00    +0.466 C 
ENDBRANCH  26  28
BRANCH  17  10
ATOM      8  N   UNL     1      -7.944 -11.060  -3.514  0.00  0.00    -0.316 NA
ATOM     10  C   UNL     1      -9.008 -10.784  -0.794  0.00  0.00    +0.078 C 
ATOM     15  C   UNL     1      -7.778 -11.636  -1.114  0.00  0.00    +0.028 C 
ATOM     16  C   UNL     1      -9.873 -10.583  -2.040  0.00  0.00    +0.028 C 
ATOM     18  C   UNL     1      -7.044 -11.149  -2.365  0.00  0.00    +0.081 C 
ATOM     19  C   UNL     1      -9.051 -10.141  -3.251  0.00  0.00    +0.081 C 
ATOM     35  H   UNL     1      -7.422 -10.736  -4.327  0.00  0.00    +0.122 HD
ENDBRANCH  17  10
TORSDOF 2
ENDMDL
MODEL 9
REMARK VINA RESULT:      -7.0     28.753     33.982
REMARK  Name = 7135507
REMARK  2 active torsions:
REMARK  status: ('A' for Active; 'I' for Inactive)
REMARK    1  A    between atoms: C_10  and  C_17
REMARK    2  A    between atoms: C_26  and  C_28
REMARK                            x       y       z     vdW  Elec       q    Type
REMARK                         _______ _______ _______ _____ _____    ______ ____
ROOT
ATOM      1  O   UNL     1      11.055   6.951   7.315  0.00  0.00    -0.275 OA
ATOM      2  O   UNL     1      13.647   9.861   6.692  0.00  0.00    -0.273 OA
ATOM      3  O   UNL     1      17.068   7.788   3.236  0.00  0.00    -0.270 OA
ATOM      6  N   UNL     1      12.660   7.232   5.658  0.00  0.00    -0.298 N 
ATOM      7  N   UNL     1      15.388   7.775   4.827  0.00  0.00    -0.283 N 
ATOM      9  N   UNL     1      15.881  10.210   6.432  0.00  0.00    -0.283 N 
ATOM     11  C   UNL     1      15.000   7.917   6.223  0.00  0.00    +0.180 C 
ATOM     12  C   UNL     1      13.779   7.062   6.587  0.00  0.00    +0.139 C 
ATOM     13  C   UNL     1      12.999   7.477   4.253  0.00  0.00    +0.127 C 
ATOM     14  C   UNL     1      14.440   7.109   3.931  0.00  0.00    +0.128 C 
ATOM     17  C   UNL     1      11.351   7.157   6.135  0.00  0.00    +0.219 C 
ATOM     20  C   UNL     1      14.764   9.403   6.438  0.00  0.00    +0.239 C 
ATOM     21  C   UNL     1      16.665   8.078   4.363  0.00  0.00    +0.249 C 
ATOM     22  C   UNL     1      17.597   8.819   5.254  0.00  0.00    +0.059 A 
ATOM     23  C   UNL     1      17.210   9.859   6.115  0.00  0.00    +0.046 A 
ATOM     24  C   UNL     1      18.966   8.557   5.065  0.00  0.00    +0.023 A 
ATOM     25  C   UNL     1      18.204  10.656   6.711  0.00  0.00    +0.024 A 
ATOM     26  C   UNL     1      19.938   9.326   5.702  0.00  0.00    -0.017 A 
ATOM     27  C   UNL     1      19.558  10.384   6.514  0.00  0.00    +0.010 A 
ATOM     36  H   UNL     1      15.742  11.152   6.793  0.00  0.00    +0.155 HD
ENDROOT
BRANCH  26  28
ATOM      4  O   UNL     1      24.710  10.293   6.233  0.00  0.00    -0.453 OA
ATOM      5  O   UNL     1      25.355   8.334   4.986  0.00  0.00    -0.453 OA
ATOM     28  C   UNL     1      21.342   9.037   5.497  0.00  0.00    -0.014 A 
ATOM     29  C   UNL     1      22.310   9.895   6.023  0.00  0.00    +0.058 A 
ATOM     30  C   UNL     1      21.718   7.894   4.770  0.00  0.00    +0.012 A 
ATOM     31  C   UNL     1      23.635   9.578   5.801  0.00  0.00    +0.167 A 
ATOM     32  C   UNL     1      24.003   8.460   5.089  0.00  0.00    +0.166 A 
ATOM     33  C   UNL     1      23.066   7.595   4.559  0.00  0.00    +0.050 A 
ATOM     34  C   UNL     1      25.795   9.499   5.712  0.00  0.00    +0.466 C 
ENDBRANCH  26  28
BRANCH  17  10
ATOM      8  N   UNL     1       7.670   7.703   6.441  0.00  0.00    -0.316 NA
ATOM     10  C   UNL     1      10.262   7.339   5.116  0.00  0.00    +0.078 C 
ATOM     15  C   UNL     1       9.600   8.711   5.266  0.00  0.00    +0.028 C 
ATOM     16  C   UNL     1       9.226   6.218   5.219  0.00  0.00    +0.028 C 
ATOM     18  C   UNL     1       8.665   8.774   6.474  0.00  0.00    +0.081 C 
ATOM     19  C   UNL     1       8.307   6.387   6.430  0.00  0.00    +0.081 C 
ATOM     35  H   UNL     1       7.065   7.779   7.257  0.00  0.00    +0.122 HD
ENDBRANCH  17  10
TORSDOF 2
ENDMDL
MODEL 10
REMARK VINA RESULT:      -6.9      9.092     14.063
REMARK  Name = 7135507
REMARK  2 active torsions:
REMARK  status: ('A' for Active; 'I' for Inactive)
REMARK    1  A    between atoms: C_10  and  C_17
REMARK    2  A    between atoms: C_26  and  C_28
REMARK                            x       y       z     vdW  Elec       q    Type
REMARK                         _______ _______ _______ _____ _____    ______ ____
ROOT
ATOM      1  O   UNL     1      -5.535 -14.499   5.804  0.00  0.00    -0.275 OA
ATOM      2  O   UNL     1      -6.257 -10.735   4.863  0.00  0.00    -0.273 OA
ATOM      3  O   UNL     1      -6.293  -8.250   9.528  0.00  0.00    -0.270 OA
ATOM      6  N   UNL     1      -5.308 -12.547   7.046  0.00  0.00    -0.298 N 
ATOM      7  N   UNL     1      -6.376 -10.057   8.086  0.00  0.00    -0.283 N 
ATOM      9  N   UNL     1      -7.459  -8.937   5.571  0.00  0.00    -0.283 N 
ATOM     11  C   UNL     1      -7.130 -10.833   7.112  0.00  0.00    +0.180 C 
ATOM     12  C   UNL     1      -6.753 -12.321   7.122  0.00  0.00    +0.139 C 
ATOM     13  C   UNL     1      -4.448 -11.562   7.709  0.00  0.00    +0.127 C 
ATOM     14  C   UNL     1      -5.213 -10.699   8.702  0.00  0.00    +0.128 C 
ATOM     17  C   UNL     1      -4.821 -13.663   6.364  0.00  0.00    +0.219 C 
ATOM     20  C   UNL     1      -6.876 -10.170   5.767  0.00  0.00    +0.239 C 
ATOM     21  C   UNL     1      -6.812  -8.828   8.573  0.00  0.00    +0.249 C 
ATOM     22  C   UNL     1      -7.948  -8.148   7.895  0.00  0.00    +0.059 A 
ATOM     23  C   UNL     1      -8.152  -8.140   6.506  0.00  0.00    +0.046 A 
ATOM     24  C   UNL     1      -8.746  -7.325   8.712  0.00  0.00    +0.023 A 
ATOM     25  C   UNL     1      -9.100  -7.255   5.962  0.00  0.00    +0.024 A 
ATOM     26  C   UNL     1      -9.716  -6.491   8.160  0.00  0.00    -0.017 A 
ATOM     27  C   UNL     1      -9.884  -6.445   6.783  0.00  0.00    +0.010 A 
ATOM     36  H   UNL     1      -7.471  -8.608   4.608  0.00  0.00    +0.155 HD
ENDROOT
BRANCH  26  28
ATOM      4  O   UNL     1     -13.078  -5.799  11.653  0.00  0.00    -0.453 OA
ATOM      5  O   UNL     1     -12.895  -3.400  11.502  0.00  0.00    -0.453 OA
ATOM     28  C   UNL     1     -10.529  -5.655   9.017  0.00  0.00    -0.014 A 
ATOM     29  C   UNL     1     -11.413  -6.245   9.923  0.00  0.00    +0.058 A 
ATOM     30  C   UNL     1     -10.423  -4.256   8.929  0.00  0.00    +0.012 A 
ATOM     31  C   UNL     1     -12.168  -5.407  10.719  0.00  0.00    +0.167 A 
ATOM     32  C   UNL     1     -12.064  -4.037  10.633  0.00  0.00    +0.166 A 
ATOM     33  C   UNL     1     -11.198  -3.430   9.746  0.00  0.00    +0.050 A 
ATOM     34  C   UNL     1     -13.534  -4.522  12.145  0.00  0.00    +0.466 C 
ENDBRANCH  26  28
BRANCH  17  10
ATOM      8  N   UNL     1      -2.484 -15.146   3.859  0.00  0.00    -0.316 NA
ATOM     10  C   UNL     1      -3.327 -13.825   6.337  0.00  0.00    +0.078 C 
ATOM     15  C   UNL     1      -2.718 -13.057   5.162  0.00  0.00    +0.028 C 
ATOM     16  C   UNL     1      -2.940 -15.304   6.285  0.00  0.00    +0.028 C 
ATOM     18  C   UNL     1      -2.953 -13.762   3.825  0.00  0.00    +0.081 C 
ATOM     19  C   UNL     1      -3.166 -15.913   4.901  0.00  0.00    +0.081 C 
ATOM     35  H   UNL     1      -2.654 -15.582   2.953  0.00  0.00    +0.122 HD
ENDBRANCH  17  10
TORSDOF 2
ENDMDL
