MODEL 1
REMARK VINA RESULT:      -6.8      0.000      0.000
REMARK  Name = 45784117
REMARK  13 active torsions:
REMARK  status: ('A' for Active; 'I' for Inactive)
REMARK    1  A    between atoms: N_3  and  C_17
REMARK    2  A    between atoms: N_3  and  C_23
REMARK    3  A    between atoms: N_7  and  C_32
REMARK    4  A    between atoms: N_8  and  C_29
REMARK    5  A    between atoms: C_10  and  C_14
REMARK    6  A    between atoms: C_11  and  C_17
REMARK    7  A    between atoms: C_13  and  C_18
REMARK    8  A    between atoms: C_14  and  C_19
REMARK    9  A    between atoms: C_14  and  C_20
REMARK   10  A    between atoms: C_15  and  C_21
REMARK   11  A    between atoms: C_18  and  C_22
REMARK   12  A    between atoms: C_24  and  C_27
REMARK   13  A    between atoms: C_33  and  C_34
REMARK                            x       y       z     vdW  Elec       q    Type
REMARK                         _______ _______ _______ _____ _____    ______ ____
ROOT
ATOM     10  C   UNL     1      -5.332 -11.099  13.947  0.00  0.00    +0.000 C 
ATOM     11  C   UNL     1      -3.965 -11.040  13.222  0.00  0.00    +0.032 C 
ATOM     12  C   UNL     1      -5.337 -10.157  15.161  0.00  0.00    +0.012 C 
ATOM     13  C   UNL     1      -4.231 -10.507  16.174  0.00  0.00    +0.024 C 
ATOM     15  C   UNL     1      -2.895 -10.729  15.496  0.00  0.00    -0.073 C 
ATOM     16  C   UNL     1      -2.795 -10.953  14.174  0.00  0.00    -0.022 C 
ATOM     21  C   UNL     1      -1.671 -10.644  16.365  0.00  0.00    +0.039 C 
ENDROOT
BRANCH  10  14
ATOM     14  C   UNL     1      -6.490 -10.743  13.010  0.00  0.00    -0.013 C 
ATOM     19  C   UNL     1      -6.372  -9.295  12.546  0.00  0.00    +0.007 C 
ATOM     20  C   UNL     1      -7.828 -10.982  13.701  0.00  0.00    +0.007 C 
ENDBRANCH  10  14
BRANCH  11  17
ATOM     17  C   UNL     1      -3.779 -12.244  12.292  0.00  0.00    +0.109 C 
BRANCH  17   3
ATOM      3  N   UNL     1      -3.360 -11.788  10.995  0.00  0.00    -0.342 N 
ATOM     35  H   UNL     1      -2.442 -12.041  10.646  0.00  0.00    +0.146 HD
BRANCH   3  23
ATOM      6  N   UNL     1      -6.096 -10.662   8.813  0.00  0.00    -0.238 NA
ATOM     23  C   UNL     1      -4.124 -10.963  10.179  0.00  0.00    +0.046 A 
ATOM     25  C   UNL     1      -3.724  -9.660   9.903  0.00  0.00    +0.028 A 
ATOM     26  C   UNL     1      -5.308 -11.412   9.615  0.00  0.00    +0.135 A 
ATOM     28  C   UNL     1      -4.509  -8.858   9.081  0.00  0.00    +0.045 A 
ATOM     29  C   UNL     1      -5.675  -9.401   8.566  0.00  0.00    +0.125 A 
BRANCH  29   8
ATOM      2  O   UNL     1      -8.193  -7.862   9.164  0.00  0.00    -0.276 OA
ATOM      8  N   UNL     1      -6.459  -8.585   7.742  0.00  0.00    -0.271 N 
ATOM     33  C   UNL     1      -7.626  -7.891   8.076  0.00  0.00    +0.215 C 
ATOM     34  C   UNL     1      -8.169  -7.118   6.901  0.00  0.00    +0.109 C 
ATOM     36  H   UNL     1      -6.132  -8.490   6.782  0.00  0.00    +0.156 HD
ENDBRANCH  29   8
ENDBRANCH   3  23
ENDBRANCH  17   3
ENDBRANCH  11  17
BRANCH  13  18
ATOM     18  C   UNL     1      -4.624 -11.721  17.023  0.00  0.00    +0.105 C 
BRANCH  18  22
ATOM      1  O   UNL     1      -6.874 -11.724  17.967  0.00  0.00    -0.419 OA
ATOM      4  N   UNL     1      -5.353 -10.676  19.230  0.00  0.00    -0.112 NA
ATOM      5  N   UNL     1      -6.571 -10.602  19.878  0.00  0.00    -0.106 NA
ATOM     22  C   UNL     1      -5.577 -11.341  18.120  0.00  0.00    +0.218 A 
ATOM     24  C   UNL     1      -7.429 -11.226  19.106  0.00  0.00    +0.266 A 
BRANCH  24  27
ATOM      7  N   UNL     1      -9.359 -12.476  19.996  0.00  0.00    -0.329 N 
ATOM      9  N   UNL     1     -11.026 -11.038  19.706  0.00  0.00    -0.243 NA
ATOM     27  C   UNL     1      -8.801 -11.368  19.425  0.00  0.00    +0.125 A 
ATOM     30  C   UNL     1      -9.849 -10.494  19.255  0.00  0.00    +0.143 A 
ATOM     31  C   UNL     1     -10.696 -12.231  20.145  0.00  0.00    +0.199 A 
ATOM     32  C   UNL     1      -8.685 -13.694  20.384  0.00  0.00    +0.150 C 
ENDBRANCH  24  27
ENDBRANCH  18  22
ENDBRANCH  13  18
TORSDOF 8
ENDMDL
MODEL 2
REMARK VINA RESULT:      -6.7      2.233      9.369
REMARK  Name = 45784117
REMARK  13 active torsions:
REMARK  status: ('A' for Active; 'I' for Inactive)
REMARK    1  A    between atoms: N_3  and  C_17
REMARK    2  A    between atoms: N_3  and  C_23
REMARK    3  A    between atoms: N_7  and  C_32
REMARK    4  A    between atoms: N_8  and  C_29
REMARK    5  A    between atoms: C_10  and  C_14
REMARK    6  A    between atoms: C_11  and  C_17
REMARK    7  A    between atoms: C_13  and  C_18
REMARK    8  A    between atoms: C_14  and  C_19
REMARK    9  A    between atoms: C_14  and  C_20
REMARK   10  A    between atoms: C_15  and  C_21
REMARK   11  A    between atoms: C_18  and  C_22
REMARK   12  A    between atoms: C_24  and  C_27
REMARK   13  A    between atoms: C_33  and  C_34
REMARK                            x       y       z     vdW  Elec       q    Type
REMARK                         _______ _______ _______ _____ _____    ______ ____
ROOT
ATOM     10  C   UNL     1      -3.880 -12.228  14.411  0.00  0.00    +0.000 C 
ATOM     11  C   UNL     1      -2.526 -11.681  14.926  0.00  0.00    +0.032 C 
ATOM     12  C   UNL     1      -3.779 -12.592  12.922  0.00  0.00    +0.012 C 
ATOM     13  C   UNL     1      -3.377 -11.385  12.053  0.00  0.00    +0.024 C 
ATOM     15  C   UNL     1      -2.205 -10.630  12.646  0.00  0.00    -0.073 C 
ATOM     16  C   UNL     1      -1.831 -10.785  13.928  0.00  0.00    -0.022 C 
ATOM     21  C   UNL     1      -1.443  -9.725  11.718  0.00  0.00    +0.039 C 
ENDROOT
BRANCH  10  14
ATOM     14  C   UNL     1      -4.344 -13.448  15.213  0.00  0.00    -0.013 C 
ATOM     19  C   UNL     1      -3.974 -14.735  14.483  0.00  0.00    +0.007 C 
ATOM     20  C   UNL     1      -5.846 -13.380  15.464  0.00  0.00    +0.007 C 
ENDBRANCH  10  14
BRANCH  11  17
ATOM     17  C   UNL     1      -2.701 -10.930  16.252  0.00  0.00    +0.109 C 
BRANCH  17   3
ATOM      3  N   UNL     1      -3.788  -9.998  16.135  0.00  0.00    -0.342 N 
ATOM     35  H   UNL     1      -3.710  -9.212  15.499  0.00  0.00    +0.146 HD
BRANCH   3  23
ATOM      6  N   UNL     1      -7.311  -9.566  17.095  0.00  0.00    -0.238 NA
ATOM     23  C   UNL     1      -4.956 -10.070  16.886  0.00  0.00    +0.046 A 
ATOM     25  C   UNL     1      -4.968 -10.683  18.134  0.00  0.00    +0.028 A 
ATOM     26  C   UNL     1      -6.143  -9.532  16.416  0.00  0.00    +0.135 A 
ATOM     28  C   UNL     1      -6.151 -10.738  18.863  0.00  0.00    +0.045 A 
ATOM     29  C   UNL     1      -7.285 -10.170  18.305  0.00  0.00    +0.125 A 
BRANCH  29   8
ATOM      2  O   UNL     1      -9.222 -12.441  18.706  0.00  0.00    -0.276 OA
ATOM      8  N   UNL     1      -8.471 -10.233  19.045  0.00  0.00    -0.271 N 
ATOM     33  C   UNL     1      -9.336 -11.321  19.196  0.00  0.00    +0.215 C 
ATOM     34  C   UNL     1     -10.507 -10.981  20.083  0.00  0.00    +0.109 C 
ATOM     36  H   UNL     1      -8.728  -9.375  19.531  0.00  0.00    +0.156 HD
ENDBRANCH  29   8
ENDBRANCH   3  23
ENDBRANCH  17   3
ENDBRANCH  11  17
BRANCH  13  18
ATOM     18  C   UNL     1      -4.570 -10.452  11.819  0.00  0.00    +0.105 C 
BRANCH  18  22
ATOM      1  O   UNL     1      -5.105 -10.759   9.458  0.00  0.00    -0.419 OA
ATOM      4  N   UNL     1      -4.185  -8.777   9.938  0.00  0.00    -0.112 NA
ATOM      5  N   UNL     1      -4.434  -8.815   8.579  0.00  0.00    -0.106 NA
ATOM     22  C   UNL     1      -4.593  -9.932  10.410  0.00  0.00    +0.218 A 
ATOM     24  C   UNL     1      -4.970  -9.989   8.344  0.00  0.00    +0.266 A 
BRANCH  24  27
ATOM      7  N   UNL     1      -6.478  -9.968   6.392  0.00  0.00    -0.329 N 
ATOM      9  N   UNL     1      -5.516 -11.441   5.038  0.00  0.00    -0.243 NA
ATOM     27  C   UNL     1      -5.370 -10.417   7.054  0.00  0.00    +0.125 A 
ATOM     30  C   UNL     1      -4.793 -11.325   6.199  0.00  0.00    +0.143 A 
ATOM     31  C   UNL     1      -6.524 -10.611   5.187  0.00  0.00    +0.199 A 
ATOM     32  C   UNL     1      -7.439  -8.993   6.855  0.00  0.00    +0.150 C 
ENDBRANCH  24  27
ENDBRANCH  18  22
ENDBRANCH  13  18
TORSDOF 8
ENDMDL
MODEL 3
REMARK VINA RESULT:      -6.6     28.180     31.191
REMARK  Name = 45784117
REMARK  13 active torsions:
REMARK  status: ('A' for Active; 'I' for Inactive)
REMARK    1  A    between atoms: N_3  and  C_17
REMARK    2  A    between atoms: N_3  and  C_23
REMARK    3  A    between atoms: N_7  and  C_32
REMARK    4  A    between atoms: N_8  and  C_29
REMARK    5  A    between atoms: C_10  and  C_14
REMARK    6  A    between atoms: C_11  and  C_17
REMARK    7  A    between atoms: C_13  and  C_18
REMARK    8  A    between atoms: C_14  and  C_19
REMARK    9  A    between atoms: C_14  and  C_20
REMARK   10  A    between atoms: C_15  and  C_21
REMARK   11  A    between atoms: C_18  and  C_22
REMARK   12  A    between atoms: C_24  and  C_27
REMARK   13  A    between atoms: C_33  and  C_34
REMARK                            x       y       z     vdW  Elec       q    Type
REMARK                         _______ _______ _______ _____ _____    ______ ____
ROOT
ATOM     10  C   UNL     1      16.451   8.340  21.225  0.00  0.00    +0.000 C 
ATOM     11  C   UNL     1      15.887   7.364  20.163  0.00  0.00    +0.032 C 
ATOM     12  C   UNL     1      17.940   8.617  20.962  0.00  0.00    +0.012 C 
ATOM     13  C   UNL     1      18.784   7.329  20.985  0.00  0.00    +0.024 C 
ATOM     15  C   UNL     1      18.147   6.223  20.169  0.00  0.00    -0.073 C 
ATOM     16  C   UNL     1      16.855   6.262  19.800  0.00  0.00    -0.022 C 
ATOM     21  C   UNL     1      19.042   5.091  19.747  0.00  0.00    +0.039 C 
ENDROOT
BRANCH  10  14
ATOM     14  C   UNL     1      15.675   9.661  21.253  0.00  0.00    -0.013 C 
ATOM     19  C   UNL     1      16.613  10.834  20.986  0.00  0.00    +0.007 C 
ATOM     20  C   UNL     1      14.964   9.831  22.591  0.00  0.00    +0.007 C 
ENDBRANCH  10  14
BRANCH  11  17
ATOM     17  C   UNL     1      14.562   6.748  20.627  0.00  0.00    +0.109 C 
BRANCH  17   3
ATOM      3  N   UNL     1      13.651   6.679  19.517  0.00  0.00    -0.342 N 
ATOM     35  H   UNL     1      13.085   5.848  19.383  0.00  0.00    +0.146 HD
BRANCH   3  23
ATOM      6  N   UNL     1      13.814   8.392  16.268  0.00  0.00    -0.238 NA
ATOM     23  C   UNL     1      13.519   7.677  18.559  0.00  0.00    +0.046 A 
ATOM     25  C   UNL     1      12.985   8.918  18.886  0.00  0.00    +0.028 A 
ATOM     26  C   UNL     1      13.914   7.466  17.248  0.00  0.00    +0.135 A 
ATOM     28  C   UNL     1      12.866   9.897  17.906  0.00  0.00    +0.045 A 
ATOM     29  C   UNL     1      13.291   9.588  16.624  0.00  0.00    +0.125 A 
BRANCH  29   8
ATOM      2  O   UNL     1      15.377  11.329  15.326  0.00  0.00    -0.276 OA
ATOM      8  N   UNL     1      13.165  10.579  15.644  0.00  0.00    -0.271 N 
ATOM     33  C   UNL     1      14.176  11.361  15.075  0.00  0.00    +0.215 C 
ATOM     34  C   UNL     1      13.627  12.316  14.046  0.00  0.00    +0.109 C 
ATOM     36  H   UNL     1      12.218  10.745  15.309  0.00  0.00    +0.156 HD
ENDBRANCH  29   8
ENDBRANCH   3  23
ENDBRANCH  17   3
ENDBRANCH  11  17
BRANCH  13  18
ATOM     18  C   UNL     1      19.049   6.868  22.422  0.00  0.00    +0.105 C 
BRANCH  18  22
ATOM      1  O   UNL     1      20.966   5.387  22.717  0.00  0.00    -0.419 OA
ATOM      4  N   UNL     1      21.458   7.564  22.872  0.00  0.00    -0.112 NA
ATOM      5  N   UNL     1      22.626   6.848  23.057  0.00  0.00    -0.106 NA
ATOM     22  C   UNL     1      20.516   6.671  22.675  0.00  0.00    +0.218 A 
ATOM     24  C   UNL     1      22.291   5.583  22.959  0.00  0.00    +0.266 A 
BRANCH  24  27
ATOM      7  N   UNL     1      23.892   3.939  22.056  0.00  0.00    -0.329 N 
ATOM      9  N   UNL     1      24.565   2.881  23.889  0.00  0.00    -0.243 NA
ATOM     27  C   UNL     1      23.219   4.522  23.092  0.00  0.00    +0.125 A 
ATOM     30  C   UNL     1      23.650   3.852  24.213  0.00  0.00    +0.143 A 
ATOM     31  C   UNL     1      24.687   2.960  22.583  0.00  0.00    +0.199 A 
ATOM     32  C   UNL     1      23.801   4.275  20.654  0.00  0.00    +0.150 C 
ENDBRANCH  24  27
ENDBRANCH  18  22
ENDBRANCH  13  18
TORSDOF 8
ENDMDL
MODEL 4
REMARK VINA RESULT:      -6.6      1.915      8.742
REMARK  Name = 45784117
REMARK  13 active torsions:
REMARK  status: ('A' for Active; 'I' for Inactive)
REMARK    1  A    between atoms: N_3  and  C_17
REMARK    2  A    between atoms: N_3  and  C_23
REMARK    3  A    between atoms: N_7  and  C_32
REMARK    4  A    between atoms: N_8  and  C_29
REMARK    5  A    between atoms: C_10  and  C_14
REMARK    6  A    between atoms: C_11  and  C_17
REMARK    7  A    between atoms: C_13  and  C_18
REMARK    8  A    between atoms: C_14  and  C_19
REMARK    9  A    between atoms: C_14  and  C_20
REMARK   10  A    between atoms: C_15  and  C_21
REMARK   11  A    between atoms: C_18  and  C_22
REMARK   12  A    between atoms: C_24  and  C_27
REMARK   13  A    between atoms: C_33  and  C_34
REMARK                            x       y       z     vdW  Elec       q    Type
REMARK                         _______ _______ _______ _____ _____    ______ ____
ROOT
ATOM     10  C   UNL     1      -4.140 -12.125  13.798  0.00  0.00    +0.000 C 
ATOM     11  C   UNL     1      -2.664 -11.841  14.173  0.00  0.00    +0.032 C 
ATOM     12  C   UNL     1      -4.297 -12.220  12.273  0.00  0.00    +0.012 C 
ATOM     13  C   UNL     1      -3.852 -10.930  11.560  0.00  0.00    +0.024 C 
ATOM     15  C   UNL     1      -2.515 -10.436  12.073  0.00  0.00    -0.073 C 
ATOM     16  C   UNL     1      -1.994 -10.865  13.236  0.00  0.00    -0.022 C 
ATOM     21  C   UNL     1      -1.767  -9.471  11.195  0.00  0.00    +0.039 C 
ENDROOT
BRANCH  10  14
ATOM     14  C   UNL     1      -4.658 -13.409  14.454  0.00  0.00    -0.013 C 
ATOM     19  C   UNL     1      -4.650 -14.558  13.452  0.00  0.00    +0.007 C 
ATOM     20  C   UNL     1      -6.058 -13.192  15.018  0.00  0.00    +0.007 C 
ENDBRANCH  10  14
BRANCH  11  17
ATOM     17  C   UNL     1      -2.548 -11.330  15.614  0.00  0.00    +0.109 C 
BRANCH  17   3
ATOM      3  N   UNL     1      -3.429 -10.209  15.798  0.00  0.00    -0.342 N 
ATOM     35  H   UNL     1      -3.219  -9.326  15.345  0.00  0.00    +0.146 HD
BRANCH   3  23
ATOM      6  N   UNL     1      -6.847  -9.563  16.987  0.00  0.00    -0.238 NA
ATOM     23  C   UNL     1      -4.554 -10.233  16.613  0.00  0.00    +0.046 A 
ATOM     25  C   UNL     1      -4.546 -10.912  17.825  0.00  0.00    +0.028 A 
ATOM     26  C   UNL     1      -5.719  -9.580  16.242  0.00  0.00    +0.135 A 
ATOM     28  C   UNL     1      -5.688 -10.917  18.620  0.00  0.00    +0.045 A 
ATOM     29  C   UNL     1      -6.802 -10.234  18.160  0.00  0.00    +0.125 A 
BRANCH  29   8
ATOM      2  O   UNL     1      -9.075 -12.205  18.298  0.00  0.00    -0.276 OA
ATOM      8  N   UNL     1      -7.946 -10.246  18.966  0.00  0.00    -0.271 N 
ATOM     33  C   UNL     1      -8.975 -11.193  18.987  0.00  0.00    +0.215 C 
ATOM     34  C   UNL     1     -10.030 -10.846  20.007  0.00  0.00    +0.109 C 
ATOM     36  H   UNL     1      -8.032  -9.466  19.615  0.00  0.00    +0.156 HD
ENDBRANCH  29   8
ENDBRANCH   3  23
ENDBRANCH  17   3
ENDBRANCH  11  17
BRANCH  13  18
ATOM     18  C   UNL     1      -4.921  -9.838  11.675  0.00  0.00    +0.105 C 
BRANCH  18  22
ATOM      1  O   UNL     1      -6.619  -8.721  10.325  0.00  0.00    -0.419 OA
ATOM      4  N   UNL     1      -5.066  -9.803   9.131  0.00  0.00    -0.112 NA
ATOM      5  N   UNL     1      -5.957  -9.222   8.248  0.00  0.00    -0.106 NA
ATOM     22  C   UNL     1      -5.491  -9.483  10.332  0.00  0.00    +0.218 A 
ATOM     24  C   UNL     1      -6.845  -8.601   8.988  0.00  0.00    +0.266 A 
BRANCH  24  27
ATOM      7  N   UNL     1      -9.194  -8.379   8.270  0.00  0.00    -0.329 N 
ATOM      9  N   UNL     1      -9.270  -6.279   7.553  0.00  0.00    -0.243 NA
ATOM     27  C   UNL     1      -7.936  -7.877   8.449  0.00  0.00    +0.125 A 
ATOM     30  C   UNL     1      -8.008  -6.580   7.999  0.00  0.00    +0.143 A 
ATOM     31  C   UNL     1      -9.960  -7.384   7.730  0.00  0.00    +0.199 A 
ATOM     32  C   UNL     1      -9.657  -9.710   8.587  0.00  0.00    +0.150 C 
ENDBRANCH  24  27
ENDBRANCH  18  22
ENDBRANCH  13  18
TORSDOF 8
ENDMDL
MODEL 5
REMARK VINA RESULT:      -6.3     24.472     28.474
REMARK  Name = 45784117
REMARK  13 active torsions:
REMARK  status: ('A' for Active; 'I' for Inactive)
REMARK    1  A    between atoms: N_3  and  C_17
REMARK    2  A    between atoms: N_3  and  C_23
REMARK    3  A    between atoms: N_7  and  C_32
REMARK    4  A    between atoms: N_8  and  C_29
REMARK    5  A    between atoms: C_10  and  C_14
REMARK    6  A    between atoms: C_11  and  C_17
REMARK    7  A    between atoms: C_13  and  C_18
REMARK    8  A    between atoms: C_14  and  C_19
REMARK    9  A    between atoms: C_14  and  C_20
REMARK   10  A    between atoms: C_15  and  C_21
REMARK   11  A    between atoms: C_18  and  C_22
REMARK   12  A    between atoms: C_24  and  C_27
REMARK   13  A    between atoms: C_33  and  C_34
REMARK                            x       y       z     vdW  Elec       q    Type
REMARK                         _______ _______ _______ _____ _____    ______ ____
ROOT
ATOM     10  C   UNL     1       9.157   8.191   4.528  0.00  0.00    +0.000 C 
ATOM     11  C   UNL     1       8.505   7.621   5.812  0.00  0.00    +0.032 C 
ATOM     12  C   UNL     1       9.125   7.146   3.402  0.00  0.00    +0.012 C 
ATOM     13  C   UNL     1       9.860   5.850   3.789  0.00  0.00    +0.024 C 
ATOM     15  C   UNL     1       9.463   5.368   5.169  0.00  0.00    -0.073 C 
ATOM     16  C   UNL     1       8.847   6.170   6.055  0.00  0.00    -0.022 C 
ATOM     21  C   UNL     1       9.751   3.929   5.493  0.00  0.00    +0.039 C 
ENDROOT
BRANCH  10  14
ATOM     14  C   UNL     1       8.468   9.478   4.062  0.00  0.00    -0.013 C 
ATOM     19  C   UNL     1       7.567   9.195   2.865  0.00  0.00    +0.007 C 
ATOM     20  C   UNL     1       9.505  10.542   3.720  0.00  0.00    +0.007 C 
ENDBRANCH  10  14
BRANCH  11  17
ATOM     17  C   UNL     1       8.890   8.450   7.043  0.00  0.00    +0.109 C 
BRANCH  17   3
ATOM      3  N   UNL     1       9.974   7.808   7.733  0.00  0.00    -0.342 N 
ATOM     35  H   UNL     1       9.786   7.258   8.564  0.00  0.00    +0.146 HD
BRANCH   3  23
ATOM      6  N   UNL     1      13.147   9.349   6.695  0.00  0.00    -0.238 NA
ATOM     23  C   UNL     1      11.309   7.928   7.363  0.00  0.00    +0.046 A 
ATOM     25  C   UNL     1      12.133   6.811   7.284  0.00  0.00    +0.028 A 
ATOM     26  C   UNL     1      11.860   9.163   7.062  0.00  0.00    +0.135 A 
ATOM     28  C   UNL     1      13.464   6.961   6.910  0.00  0.00    +0.045 A 
ATOM     29  C   UNL     1      13.918   8.240   6.629  0.00  0.00    +0.125 A 
BRANCH  29   8
ATOM      2  O   UNL     1      15.217   8.100   3.915  0.00  0.00    -0.276 OA
ATOM      8  N   UNL     1      15.260   8.381   6.255  0.00  0.00    -0.271 N 
ATOM     33  C   UNL     1      15.809   8.306   4.971  0.00  0.00    +0.215 C 
ATOM     34  C   UNL     1      17.301   8.520   4.991  0.00  0.00    +0.109 C 
ATOM     36  H   UNL     1      15.909   8.561   7.018  0.00  0.00    +0.156 HD
ENDBRANCH  29   8
ENDBRANCH   3  23
ENDBRANCH  17   3
ENDBRANCH  11  17
BRANCH  13  18
ATOM     18  C   UNL     1      11.378   6.023   3.683  0.00  0.00    +0.105 C 
BRANCH  18  22
ATOM      1  O   UNL     1      13.056   5.474   1.998  0.00  0.00    -0.419 OA
ATOM      4  N   UNL     1      11.615   3.818   2.429  0.00  0.00    -0.112 NA
ATOM      5  N   UNL     1      12.501   3.374   1.466  0.00  0.00    -0.106 NA
ATOM     22  C   UNL     1      11.978   5.048   2.711  0.00  0.00    +0.218 A 
ATOM     24  C   UNL     1      13.323   4.372   1.245  0.00  0.00    +0.266 A 
BRANCH  24  27
ATOM      7  N   UNL     1      14.276   4.604  -1.018  0.00  0.00    -0.329 N 
ATOM      9  N   UNL     1      16.400   4.042  -0.693  0.00  0.00    -0.243 NA
ATOM     27  C   UNL     1      14.387   4.311   0.313  0.00  0.00    +0.125 A 
ATOM     30  C   UNL     1      15.706   3.967   0.488  0.00  0.00    +0.143 A 
ATOM     31  C   UNL     1      15.510   4.428  -1.580  0.00  0.00    +0.199 A 
ATOM     32  C   UNL     1      13.089   5.026  -1.724  0.00  0.00    +0.150 C 
ENDBRANCH  24  27
ENDBRANCH  18  22
ENDBRANCH  13  18
TORSDOF 8
ENDMDL
MODEL 6
REMARK VINA RESULT:      -6.2      1.972      8.630
REMARK  Name = 45784117
REMARK  13 active torsions:
REMARK  status: ('A' for Active; 'I' for Inactive)
REMARK    1  A    between atoms: N_3  and  C_17
REMARK    2  A    between atoms: N_3  and  C_23
REMARK    3  A    between atoms: N_7  and  C_32
REMARK    4  A    between atoms: N_8  and  C_29
REMARK    5  A    between atoms: C_10  and  C_14
REMARK    6  A    between atoms: C_11  and  C_17
REMARK    7  A    between atoms: C_13  and  C_18
REMARK    8  A    between atoms: C_14  and  C_19
REMARK    9  A    between atoms: C_14  and  C_20
REMARK   10  A    between atoms: C_15  and  C_21
REMARK   11  A    between atoms: C_18  and  C_22
REMARK   12  A    between atoms: C_24  and  C_27
REMARK   13  A    between atoms: C_33  and  C_34
REMARK                            x       y       z     vdW  Elec       q    Type
REMARK                         _______ _______ _______ _____ _____    ______ ____
ROOT
ATOM     10  C   UNL     1      -3.277 -12.731  12.935  0.00  0.00    +0.000 C 
ATOM     11  C   UNL     1      -1.963 -11.952  13.190  0.00  0.00    +0.032 C 
ATOM     12  C   UNL     1      -3.617 -12.732  11.436  0.00  0.00    +0.012 C 
ATOM     13  C   UNL     1      -3.776 -11.308  10.874  0.00  0.00    +0.024 C 
ATOM     15  C   UNL     1      -2.644 -10.400  11.310  0.00  0.00    -0.073 C 
ATOM     16  C   UNL     1      -1.836 -10.711  12.339  0.00  0.00    -0.022 C 
ATOM     21  C   UNL     1      -2.433  -9.147  10.507  0.00  0.00    +0.039 C 
ENDROOT
BRANCH  10  14
ATOM     14  C   UNL     1      -3.195 -14.171  13.449  0.00  0.00    -0.013 C 
ATOM     19  C   UNL     1      -3.801 -14.272  14.846  0.00  0.00    +0.007 C 
ATOM     20  C   UNL     1      -1.749 -14.655  13.451  0.00  0.00    +0.007 C 
ENDBRANCH  10  14
BRANCH  11  17
ATOM     17  C   UNL     1      -1.823 -11.574  14.670  0.00  0.00    +0.109 C 
BRANCH  17   3
ATOM      3  N   UNL     1      -2.648 -10.432  14.953  0.00  0.00    -0.342 N 
ATOM     35  H   UNL     1      -2.376  -9.518  14.608  0.00  0.00    +0.146 HD
BRANCH   3  23
ATOM      6  N   UNL     1      -4.816 -10.776  17.902  0.00  0.00    -0.238 NA
ATOM     23  C   UNL     1      -3.801 -10.481  15.728  0.00  0.00    +0.046 A 
ATOM     25  C   UNL     1      -5.055 -10.297  15.158  0.00  0.00    +0.028 A 
ATOM     26  C   UNL     1      -3.736 -10.715  17.092  0.00  0.00    +0.135 A 
ATOM     28  C   UNL     1      -6.191 -10.352  15.959  0.00  0.00    +0.045 A 
ATOM     29  C   UNL     1      -6.019 -10.592  17.313  0.00  0.00    +0.125 A 
BRANCH  29   8
ATOM      2  O   UNL     1      -7.339 -12.922  18.690  0.00  0.00    -0.276 OA
ATOM      8  N   UNL     1      -7.168 -10.644  18.111  0.00  0.00    -0.271 N 
ATOM     33  C   UNL     1      -7.738 -11.762  18.728  0.00  0.00    +0.215 C 
ATOM     34  C   UNL     1      -8.976 -11.396  19.508  0.00  0.00    +0.109 C 
ATOM     36  H   UNL     1      -7.641  -9.754  18.255  0.00  0.00    +0.156 HD
ENDBRANCH  29   8
ENDBRANCH   3  23
ENDBRANCH  17   3
ENDBRANCH  11  17
BRANCH  13  18
ATOM     18  C   UNL     1      -5.135 -10.712  11.255  0.00  0.00    +0.105 C 
BRANCH  18  22
ATOM      1  O   UNL     1      -6.667  -9.056  10.323  0.00  0.00    -0.419 OA
ATOM      4  N   UNL     1      -5.718 -10.388   8.796  0.00  0.00    -0.112 NA
ATOM      5  N   UNL     1      -6.553  -9.507   8.136  0.00  0.00    -0.106 NA
ATOM     22  C   UNL     1      -5.815 -10.087  10.071  0.00  0.00    +0.218 A 
ATOM     24  C   UNL     1      -7.086  -8.750   9.065  0.00  0.00    +0.266 A 
BRANCH  24  27
ATOM      7  N   UNL     1      -9.328  -7.726   9.144  0.00  0.00    -0.329 N 
ATOM      9  N   UNL     1      -9.003  -5.799   8.088  0.00  0.00    -0.243 NA
ATOM     27  C   UNL     1      -8.009  -7.712   8.788  0.00  0.00    +0.125 A 
ATOM     30  C   UNL     1      -7.832  -6.513   8.138  0.00  0.00    +0.143 A 
ATOM     31  C   UNL     1      -9.883  -6.557   8.703  0.00  0.00    +0.199 A 
ATOM     32  C   UNL     1     -10.031  -8.767   9.856  0.00  0.00    +0.150 C 
ENDBRANCH  24  27
ENDBRANCH  18  22
ENDBRANCH  13  18
TORSDOF 8
ENDMDL
MODEL 7
REMARK VINA RESULT:      -6.2     24.893     28.109
REMARK  Name = 45784117
REMARK  13 active torsions:
REMARK  status: ('A' for Active; 'I' for Inactive)
REMARK    1  A    between atoms: N_3  and  C_17
REMARK    2  A    between atoms: N_3  and  C_23
REMARK    3  A    between atoms: N_7  and  C_32
REMARK    4  A    between atoms: N_8  and  C_29
REMARK    5  A    between atoms: C_10  and  C_14
REMARK    6  A    between atoms: C_11  and  C_17
REMARK    7  A    between atoms: C_13  and  C_18
REMARK    8  A    between atoms: C_14  and  C_19
REMARK    9  A    between atoms: C_14  and  C_20
REMARK   10  A    between atoms: C_15  and  C_21
REMARK   11  A    between atoms: C_18  and  C_22
REMARK   12  A    between atoms: C_24  and  C_27
REMARK   13  A    between atoms: C_33  and  C_34
REMARK                            x       y       z     vdW  Elec       q    Type
REMARK                         _______ _______ _______ _____ _____    ______ ____
ROOT
ATOM     10  C   UNL     1       8.597   8.344   4.736  0.00  0.00    +0.000 C 
ATOM     11  C   UNL     1       8.270   7.301   5.833  0.00  0.00    +0.032 C 
ATOM     12  C   UNL     1       8.658   7.670   3.357  0.00  0.00    +0.012 C 
ATOM     13  C   UNL     1       9.717   6.553   3.301  0.00  0.00    +0.024 C 
ATOM     15  C   UNL     1       9.628   5.633   4.500  0.00  0.00    -0.073 C 
ATOM     16  C   UNL     1       8.966   5.978   5.618  0.00  0.00    -0.022 C 
ATOM     21  C   UNL     1      10.280   4.284   4.369  0.00  0.00    +0.039 C 
ENDROOT
BRANCH  10  14
ATOM     14  C   UNL     1       7.575   9.485   4.711  0.00  0.00    -0.013 C 
ATOM     19  C   UNL     1       6.864   9.532   3.363  0.00  0.00    +0.007 C 
ATOM     20  C   UNL     1       8.256  10.816   5.011  0.00  0.00    +0.007 C 
ENDBRANCH  10  14
BRANCH  11  17
ATOM     17  C   UNL     1       8.613   7.839   7.228  0.00  0.00    +0.109 C 
BRANCH  17   3
ATOM      3  N   UNL     1       9.772   7.157   7.733  0.00  0.00    -0.342 N 
ATOM     35  H   UNL     1       9.661   6.411   8.410  0.00  0.00    +0.146 HD
BRANCH   3  23
ATOM      6  N   UNL     1      13.367   6.780   7.059  0.00  0.00    -0.238 NA
ATOM     23  C   UNL     1      11.078   7.485   7.387  0.00  0.00    +0.046 A 
ATOM     25  C   UNL     1      11.419   8.786   7.034  0.00  0.00    +0.028 A 
ATOM     26  C   UNL     1      12.079   6.528   7.383  0.00  0.00    +0.135 A 
ATOM     28  C   UNL     1      12.734   9.085   6.693  0.00  0.00    +0.045 A 
ATOM     29  C   UNL     1      13.662   8.056   6.721  0.00  0.00    +0.125 A 
BRANCH  29   8
ATOM      2  O   UNL     1      15.270   7.317   4.284  0.00  0.00    -0.276 OA
ATOM      8  N   UNL     1      14.982   8.366   6.376  0.00  0.00    -0.271 N 
ATOM     33  C   UNL     1      15.681   7.993   5.223  0.00  0.00    +0.215 C 
ATOM     34  C   UNL     1      17.088   8.536   5.226  0.00  0.00    +0.109 C 
ATOM     36  H   UNL     1      15.489   8.934   7.052  0.00  0.00    +0.156 HD
ENDBRANCH  29   8
ENDBRANCH   3  23
ENDBRANCH  17   3
ENDBRANCH  11  17
BRANCH  13  18
ATOM     18  C   UNL     1      11.127   7.135   3.159  0.00  0.00    +0.105 C 
BRANCH  18  22
ATOM      1  O   UNL     1      11.253   5.538   1.318  0.00  0.00    -0.419 OA
ATOM      4  N   UNL     1      12.905   7.047   1.336  0.00  0.00    -0.112 NA
ATOM      5  N   UNL     1      13.099   6.214   0.251  0.00  0.00    -0.106 NA
ATOM     22  C   UNL     1      11.816   6.617   1.929  0.00  0.00    +0.218 A 
ATOM     24  C   UNL     1      12.112   5.349   0.280  0.00  0.00    +0.266 A 
BRANCH  24  27
ATOM      7  N   UNL     1      10.946   4.250  -1.595  0.00  0.00    -0.329 N 
ATOM      9  N   UNL     1      12.204   2.454  -1.944  0.00  0.00    -0.243 NA
ATOM     27  C   UNL     1      11.956   4.316  -0.676  0.00  0.00    +0.125 A 
ATOM     30  C   UNL     1      12.719   3.197  -0.911  0.00  0.00    +0.143 A 
ATOM     31  C   UNL     1      11.138   3.115  -2.333  0.00  0.00    +0.199 A 
ATOM     32  C   UNL     1       9.866   5.192  -1.777  0.00  0.00    +0.150 C 
ENDBRANCH  24  27
ENDBRANCH  18  22
ENDBRANCH  13  18
TORSDOF 8
ENDMDL
MODEL 8
REMARK VINA RESULT:      -6.2     19.675     25.011
REMARK  Name = 45784117
REMARK  13 active torsions:
REMARK  status: ('A' for Active; 'I' for Inactive)
REMARK    1  A    between atoms: N_3  and  C_17
REMARK    2  A    between atoms: N_3  and  C_23
REMARK    3  A    between atoms: N_7  and  C_32
REMARK    4  A    between atoms: N_8  and  C_29
REMARK    5  A    between atoms: C_10  and  C_14
REMARK    6  A    between atoms: C_11  and  C_17
REMARK    7  A    between atoms: C_13  and  C_18
REMARK    8  A    between atoms: C_14  and  C_19
REMARK    9  A    between atoms: C_14  and  C_20
REMARK   10  A    between atoms: C_15  and  C_21
REMARK   11  A    between atoms: C_18  and  C_22
REMARK   12  A    between atoms: C_24  and  C_27
REMARK   13  A    between atoms: C_33  and  C_34
REMARK                            x       y       z     vdW  Elec       q    Type
REMARK                         _______ _______ _______ _____ _____    ______ ____
ROOT
ATOM     10  C   UNL     1     -17.310   6.886  32.035  0.00  0.00    +0.000 C 
ATOM     11  C   UNL     1     -17.831   5.636  32.787  0.00  0.00    +0.032 C 
ATOM     12  C   UNL     1     -18.213   7.204  30.834  0.00  0.00    +0.012 C 
ATOM     13  C   UNL     1     -18.293   6.032  29.838  0.00  0.00    +0.024 C 
ATOM     15  C   UNL     1     -18.540   4.713  30.539  0.00  0.00    -0.073 C 
ATOM     16  C   UNL     1     -18.340   4.558  31.859  0.00  0.00    -0.022 C 
ATOM     21  C   UNL     1     -19.065   3.585  29.695  0.00  0.00    +0.039 C 
ENDROOT
BRANCH  10  14
ATOM     14  C   UNL     1     -17.219   8.107  32.955  0.00  0.00    -0.013 C 
ATOM     19  C   UNL     1     -18.575   8.799  33.055  0.00  0.00    +0.007 C 
ATOM     20  C   UNL     1     -16.154   9.075  32.452  0.00  0.00    +0.007 C 
ENDBRANCH  10  14
BRANCH  11  17
ATOM     17  C   UNL     1     -16.750   5.051  33.704  0.00  0.00    +0.109 C 
BRANCH  17   3
ATOM      3  N   UNL     1     -15.479   5.093  33.035  0.00  0.00    -0.342 N 
ATOM     35  H   UNL     1     -14.941   5.953  33.030  0.00  0.00    +0.146 HD
BRANCH   3  23
ATOM      6  N   UNL     1     -13.931   1.825  32.370  0.00  0.00    -0.238 NA
ATOM     23  C   UNL     1     -14.937   4.023  32.332  0.00  0.00    +0.046 A 
ATOM     25  C   UNL     1     -14.847   4.050  30.945  0.00  0.00    +0.028 A 
ATOM     26  C   UNL     1     -14.469   2.898  32.991  0.00  0.00    +0.135 A 
ATOM     28  C   UNL     1     -14.299   2.965  30.269  0.00  0.00    +0.045 A 
ATOM     29  C   UNL     1     -13.859   1.887  31.020  0.00  0.00    +0.125 A 
BRANCH  29   8
ATOM      2  O   UNL     1     -15.138  -0.664  30.059  0.00  0.00    -0.276 OA
ATOM      8  N   UNL     1     -13.311   0.799  30.331  0.00  0.00    -0.271 N 
ATOM     33  C   UNL     1     -13.957  -0.367  29.908  0.00  0.00    +0.215 C 
ATOM     34  C   UNL     1     -13.012  -1.297  29.191  0.00  0.00    +0.109 C 
ATOM     36  H   UNL     1     -12.319   0.874  30.115  0.00  0.00    +0.156 HD
ENDBRANCH  29   8
ENDBRANCH   3  23
ENDBRANCH  17   3
ENDBRANCH  11  17
BRANCH  13  18
ATOM     18  C   UNL     1     -17.035   5.964  28.965  0.00  0.00    +0.105 C 
BRANCH  18  22
ATOM      1  O   UNL     1     -16.974   4.619  26.930  0.00  0.00    -0.419 OA
ATOM      4  N   UNL     1     -18.025   6.581  26.700  0.00  0.00    -0.112 NA
ATOM      5  N   UNL     1     -18.066   5.929  25.482  0.00  0.00    -0.106 NA
ATOM     22  C   UNL     1     -17.380   5.779  27.515  0.00  0.00    +0.218 A 
ATOM     24  C   UNL     1     -17.440   4.789  25.663  0.00  0.00    +0.266 A 
BRANCH  24  27
ATOM      7  N   UNL     1     -18.173   2.858  24.315  0.00  0.00    -0.329 N 
ATOM      9  N   UNL     1     -16.462   2.577  22.927  0.00  0.00    -0.243 NA
ATOM     27  C   UNL     1     -17.266   3.828  24.638  0.00  0.00    +0.125 A 
ATOM     30  C   UNL     1     -16.219   3.635  23.768  0.00  0.00    +0.143 A 
ATOM     31  C   UNL     1     -17.646   2.132  23.283  0.00  0.00    +0.199 A 
ATOM     32  C   UNL     1     -19.457   2.621  24.932  0.00  0.00    +0.150 C 
ENDBRANCH  24  27
ENDBRANCH  18  22
ENDBRANCH  13  18
TORSDOF 8
ENDMDL
MODEL 9
REMARK VINA RESULT:      -6.2     24.569     27.079
REMARK  Name = 45784117
REMARK  13 active torsions:
REMARK  status: ('A' for Active; 'I' for Inactive)
REMARK    1  A    between atoms: N_3  and  C_17
REMARK    2  A    between atoms: N_3  and  C_23
REMARK    3  A    between atoms: N_7  and  C_32
REMARK    4  A    between atoms: N_8  and  C_29
REMARK    5  A    between atoms: C_10  and  C_14
REMARK    6  A    between atoms: C_11  and  C_17
REMARK    7  A    between atoms: C_13  and  C_18
REMARK    8  A    between atoms: C_14  and  C_19
REMARK    9  A    between atoms: C_14  and  C_20
REMARK   10  A    between atoms: C_15  and  C_21
REMARK   11  A    between atoms: C_18  and  C_22
REMARK   12  A    between atoms: C_24  and  C_27
REMARK   13  A    between atoms: C_33  and  C_34
REMARK                            x       y       z     vdW  Elec       q    Type
REMARK                         _______ _______ _______ _____ _____    ______ ____
ROOT
ATOM     10  C   UNL     1      11.500   7.234   5.022  0.00  0.00    +0.000 C 
ATOM     11  C   UNL     1      11.030   5.776   5.245  0.00  0.00    +0.032 C 
ATOM     12  C   UNL     1      11.808   7.910   6.367  0.00  0.00    +0.012 C 
ATOM     13  C   UNL     1      10.585   7.928   7.303  0.00  0.00    +0.024 C 
ATOM     15  C   UNL     1       9.903   6.577   7.365  0.00  0.00    -0.073 C 
ATOM     16  C   UNL     1      10.124   5.623   6.444  0.00  0.00    -0.022 C 
ATOM     21  C   UNL     1       8.994   6.330   8.536  0.00  0.00    +0.039 C 
ENDROOT
BRANCH  10  14
ATOM     14  C   UNL     1      12.731   7.304   4.113  0.00  0.00    -0.013 C 
ATOM     19  C   UNL     1      13.993   7.517   4.942  0.00  0.00    +0.007 C 
ATOM     20  C   UNL     1      12.569   8.413   3.080  0.00  0.00    +0.007 C 
ENDBRANCH  10  14
BRANCH  11  17
ATOM     17  C   UNL     1      10.326   5.225   3.998  0.00  0.00    +0.109 C 
BRANCH  17   3
ATOM      3  N   UNL     1      11.118   4.171   3.427  0.00  0.00    -0.342 N 
ATOM     35  H   UNL     1      11.582   3.505   4.035  0.00  0.00    +0.146 HD
BRANCH   3  23
ATOM      6  N   UNL     1      10.521   4.242  -0.201  0.00  0.00    -0.238 NA
ATOM     23  C   UNL     1      11.341   4.021   2.063  0.00  0.00    +0.046 A 
ATOM     25  C   UNL     1      12.547   3.521   1.586  0.00  0.00    +0.028 A 
ATOM     26  C   UNL     1      10.369   4.364   1.137  0.00  0.00    +0.135 A 
ATOM     28  C   UNL     1      12.741   3.380   0.216  0.00  0.00    +0.045 A 
ATOM     29  C   UNL     1      11.707   3.752  -0.628  0.00  0.00    +0.125 A 
BRANCH  29   8
ATOM      2  O   UNL     1      10.430   1.879  -2.610  0.00  0.00    -0.276 OA
ATOM      8  N   UNL     1      11.912   3.609  -2.005  0.00  0.00    -0.271 N 
ATOM     33  C   UNL     1      11.287   2.716  -2.881  0.00  0.00    +0.215 C 
ATOM     34  C   UNL     1      11.786   2.882  -4.294  0.00  0.00    +0.109 C 
ATOM     36  H   UNL     1      12.604   4.236  -2.411  0.00  0.00    +0.156 HD
ENDBRANCH  29   8
ENDBRANCH   3  23
ENDBRANCH  17   3
ENDBRANCH  11  17
BRANCH  13  18
ATOM     18  C   UNL     1       9.596   9.025   6.897  0.00  0.00    +0.105 C 
BRANCH  18  22
ATOM      1  O   UNL     1      10.578  10.157   8.822  0.00  0.00    -0.419 OA
ATOM      4  N   UNL     1       9.254  11.457   7.573  0.00  0.00    -0.112 NA
ATOM      5  N   UNL     1       9.738  12.220   8.619  0.00  0.00    -0.106 NA
ATOM     22  C   UNL     1       9.771  10.261   7.731  0.00  0.00    +0.218 A 
ATOM     24  C   UNL     1      10.505  11.421   9.322  0.00  0.00    +0.266 A 
BRANCH  24  27
ATOM      7  N   UNL     1      10.599  12.100  11.691  0.00  0.00    -0.329 N 
ATOM      9  N   UNL     1      12.771  12.446  11.996  0.00  0.00    -0.243 NA
ATOM     27  C   UNL     1      11.193  11.832  10.490  0.00  0.00    +0.125 A 
ATOM     30  C   UNL     1      12.533  12.053  10.703  0.00  0.00    +0.143 A 
ATOM     31  C   UNL     1      11.586  12.464  12.564  0.00  0.00    +0.199 A 
ATOM     32  C   UNL     1       9.192  12.019  12.009  0.00  0.00    +0.150 C 
ENDBRANCH  24  27
ENDBRANCH  18  22
ENDBRANCH  13  18
TORSDOF 8
ENDMDL
MODEL 10
REMARK VINA RESULT:      -6.2     20.203     25.218
REMARK  Name = 45784117
REMARK  13 active torsions:
REMARK  status: ('A' for Active; 'I' for Inactive)
REMARK    1  A    between atoms: N_3  and  C_17
REMARK    2  A    between atoms: N_3  and  C_23
REMARK    3  A    between atoms: N_7  and  C_32
REMARK    4  A    between atoms: N_8  and  C_29
REMARK    5  A    between atoms: C_10  and  C_14
REMARK    6  A    between atoms: C_11  and  C_17
REMARK    7  A    between atoms: C_13  and  C_18
REMARK    8  A    between atoms: C_14  and  C_19
REMARK    9  A    between atoms: C_14  and  C_20
REMARK   10  A    between atoms: C_15  and  C_21
REMARK   11  A    between atoms: C_18  and  C_22
REMARK   12  A    between atoms: C_24  and  C_27
REMARK   13  A    between atoms: C_33  and  C_34
REMARK                            x       y       z     vdW  Elec       q    Type
REMARK                         _______ _______ _______ _____ _____    ______ ____
ROOT
ATOM     10  C   UNL     1     -15.767   2.756  31.055  0.00  0.00    +0.000 C 
ATOM     11  C   UNL     1     -16.160   4.145  31.614  0.00  0.00    +0.032 C 
ATOM     12  C   UNL     1     -15.062   2.905  29.698  0.00  0.00    +0.012 C 
ATOM     13  C   UNL     1     -15.945   3.619  28.658  0.00  0.00    +0.024 C 
ATOM     15  C   UNL     1     -16.588   4.866  29.226  0.00  0.00    -0.073 C 
ATOM     16  C   UNL     1     -16.663   5.091  30.550  0.00  0.00    -0.022 C 
ATOM     21  C   UNL     1     -17.104   5.874  28.236  0.00  0.00    +0.039 C 
ENDROOT
BRANCH  10  14
ATOM     14  C   UNL     1     -14.867   1.984  32.025  0.00  0.00    -0.013 C 
ATOM     19  C   UNL     1     -13.495   2.644  32.116  0.00  0.00    +0.007 C 
ATOM     20  C   UNL     1     -14.740   0.528  31.590  0.00  0.00    +0.007 C 
ENDBRANCH  10  14
BRANCH  11  17
ATOM     17  C   UNL     1     -17.212   4.018  32.723  0.00  0.00    +0.109 C 
BRANCH  17   3
ATOM      3  N   UNL     1     -16.647   4.447  33.972  0.00  0.00    -0.342 N 
ATOM     35  H   UNL     1     -16.981   4.043  34.840  0.00  0.00    +0.146 HD
BRANCH   3  23
ATOM      6  N   UNL     1     -14.992   7.713  33.640  0.00  0.00    -0.238 NA
ATOM     23  C   UNL     1     -15.680   5.439  34.086  0.00  0.00    +0.046 A 
ATOM     25  C   UNL     1     -14.472   5.191  34.728  0.00  0.00    +0.028 A 
ATOM     26  C   UNL     1     -15.890   6.705  33.564  0.00  0.00    +0.135 A 
ATOM     28  C   UNL     1     -13.523   6.203  34.826  0.00  0.00    +0.045 A 
ATOM     29  C   UNL     1     -13.829   7.435  34.271  0.00  0.00    +0.125 A 
BRANCH  29   8
ATOM      2  O   UNL     1     -11.898   8.518  32.229  0.00  0.00    -0.276 OA
ATOM      8  N   UNL     1     -12.869   8.448  34.376  0.00  0.00    -0.271 N 
ATOM     33  C   UNL     1     -11.994   8.912  33.388  0.00  0.00    +0.215 C 
ATOM     34  C   UNL     1     -11.114  10.023  33.902  0.00  0.00    +0.109 C 
ATOM     36  H   UNL     1     -12.806   8.898  35.288  0.00  0.00    +0.156 HD
ENDBRANCH  29   8
ENDBRANCH   3  23
ENDBRANCH  17   3
ENDBRANCH  11  17
BRANCH  13  18
ATOM     18  C   UNL     1     -17.002   2.668  28.085  0.00  0.00    +0.105 C 
BRANCH  18  22
ATOM      1  O   UNL     1     -16.872   3.507  25.798  0.00  0.00    -0.419 OA
ATOM      4  N   UNL     1     -16.529   1.304  25.987  0.00  0.00    -0.112 NA
ATOM      5  N   UNL     1     -16.427   1.639  24.650  0.00  0.00    -0.106 NA
ATOM     22  C   UNL     1     -16.788   2.425  26.619  0.00  0.00    +0.218 A 
ATOM     24  C   UNL     1     -16.634   2.933  24.586  0.00  0.00    +0.266 A 
BRANCH  24  27
ATOM      7  N   UNL     1     -15.604   4.497  22.982  0.00  0.00    -0.329 N 
ATOM      9  N   UNL     1     -17.115   4.567  21.356  0.00  0.00    -0.243 NA
ATOM     27  C   UNL     1     -16.614   3.665  23.374  0.00  0.00    +0.125 A 
ATOM     30  C   UNL     1     -17.535   3.725  22.355  0.00  0.00    +0.143 A 
ATOM     31  C   UNL     1     -15.949   5.016  21.765  0.00  0.00    +0.199 A 
ATOM     32  C   UNL     1     -14.385   4.792  23.699  0.00  0.00    +0.150 C 
ENDBRANCH  24  27
ENDBRANCH  18  22
ENDBRANCH  13  18
TORSDOF 8
ENDMDL
