MODEL 1
REMARK VINA RESULT:      -7.8      0.000      0.000
REMARK  Name = 75536314
REMARK  7 active torsions:
REMARK  status: ('A' for Active; 'I' for Inactive)
REMARK    1  A    between atoms: O_2  and  C_8
REMARK    2  A    between atoms: N_4  and  C_10
REMARK    3  A    between atoms: N_4  and  C_13
REMARK    4  A    between atoms: C_7  and  C_13
REMARK    5  A    between atoms: C_9  and  C_16
REMARK    6  A    between atoms: C_16  and  C_19
REMARK    7  A    between atoms: C_21  and  C_22
REMARK                            x       y       z     vdW  Elec       q    Type
REMARK                         _______ _______ _______ _____ _____    ______ ____
ROOT
ATOM      1  O   UNL     1      10.718   8.258  19.728  0.00  0.00    -0.369 OA
ATOM      7  C   UNL     1      10.939   8.085  21.133  0.00  0.00    +0.161 C 
ATOM      8  C   UNL     1      11.765   6.823  21.417  0.00  0.00    +0.145 C 
ATOM      9  C   UNL     1      11.900   8.290  18.925  0.00  0.00    +0.125 C 
ATOM     11  C   UNL     1      13.024   6.748  20.558  0.00  0.00    +0.036 C 
ATOM     12  C   UNL     1      12.698   6.997  19.088  0.00  0.00    +0.034 C 
ENDROOT
BRANCH   8   2
ATOM      2  O   UNL     1      10.967   5.673  21.123  0.00  0.00    -0.389 OA
ATOM     30  H   UNL     1      10.114   5.988  20.779  0.00  0.00    +0.210 HD
ENDBRANCH   8   2
BRANCH   7  13
ATOM     13  C   UNL     1      11.539   9.344  21.755  0.00  0.00    +0.115 C 
BRANCH  13   4
ATOM      4  N   UNL     1      11.200   9.437  23.167  0.00  0.00    -0.311 NA
ATOM     28  H   UNL     1      10.462   8.762  23.372  0.00  0.00    +0.122 HD
BRANCH   4  10
ATOM      5  N   UNL     1      11.310  13.553  24.239  0.00  0.00    -0.316 NA
ATOM     10  C   UNL     1      10.724  10.777  23.504  0.00  0.00    +0.056 C 
ATOM     14  C   UNL     1      11.213  11.807  22.480  0.00  0.00    +0.034 C 
ATOM     15  C   UNL     1      11.193  11.167  24.909  0.00  0.00    +0.034 C 
ATOM     17  C   UNL     1      10.816  13.222  22.899  0.00  0.00    +0.082 C 
ATOM     18  C   UNL     1      10.797  12.608  25.235  0.00  0.00    +0.082 C 
ATOM     29  H   UNL     1      11.010  14.496  24.484  0.00  0.00    +0.122 HD
ENDBRANCH   4  10
ENDBRANCH  13   4
ENDBRANCH   7  13
BRANCH   9  16
ATOM     16  C   UNL     1      11.467   8.481  17.477  0.00  0.00    +0.090 C 
BRANCH  16  19
ATOM      3  O   UNL     1      13.539   9.976  14.934  0.00  0.00    -0.354 OA
ATOM      6  N   UNL     1      12.454   9.211  15.343  0.00  0.00    -0.083 NA
ATOM     19  C   UNL     1      12.506   9.222  16.677  0.00  0.00    +0.087 A 
ATOM     20  C   UNL     1      13.592   9.971  17.163  0.00  0.00    +0.076 A 
ATOM     21  C   UNL     1      14.208  10.424  16.027  0.00  0.00    +0.167 A 
BRANCH  21  22
ATOM     22  C   UNL     1      15.360  11.236  15.761  0.00  0.00    +0.020 A 
ATOM     23  C   UNL     1      15.798  12.158  16.712  0.00  0.00    +0.011 A 
ATOM     24  C   UNL     1      16.042  11.104  14.551  0.00  0.00    +0.011 A 
ATOM     25  C   UNL     1      16.918  12.948  16.453  0.00  0.00    +0.001 A 
ATOM     26  C   UNL     1      17.162  11.894  14.293  0.00  0.00    +0.001 A 
ATOM     27  C   UNL     1      17.600  12.816  15.244  0.00  0.00    +0.000 A 
ENDBRANCH  21  22
ENDBRANCH  16  19
ENDBRANCH   9  16
TORSDOF 7
ENDMDL
MODEL 2
REMARK VINA RESULT:      -7.1     29.849     31.528
REMARK  Name = 75536314
REMARK  7 active torsions:
REMARK  status: ('A' for Active; 'I' for Inactive)
REMARK    1  A    between atoms: O_2  and  C_8
REMARK    2  A    between atoms: N_4  and  C_10
REMARK    3  A    between atoms: N_4  and  C_13
REMARK    4  A    between atoms: C_7  and  C_13
REMARK    5  A    between atoms: C_9  and  C_16
REMARK    6  A    between atoms: C_16  and  C_19
REMARK    7  A    between atoms: C_21  and  C_22
REMARK                            x       y       z     vdW  Elec       q    Type
REMARK                         _______ _______ _______ _____ _____    ______ ____
ROOT
ATOM      1  O   UNL     1     -13.945   1.874  31.191  0.00  0.00    -0.369 OA
ATOM      7  C   UNL     1     -13.978   1.474  29.815  0.00  0.00    +0.161 C 
ATOM      8  C   UNL     1     -13.987  -0.054  29.678  0.00  0.00    +0.145 C 
ATOM      9  C   UNL     1     -14.994   1.344  32.004  0.00  0.00    +0.125 C 
ATOM     11  C   UNL     1     -15.046  -0.710  30.560  0.00  0.00    +0.036 C 
ATOM     12  C   UNL     1     -14.967  -0.184  31.991  0.00  0.00    +0.034 C 
ENDROOT
BRANCH   8   2
ATOM      2  O   UNL     1     -12.711  -0.561  30.078  0.00  0.00    -0.389 OA
ATOM     30  H   UNL     1     -12.110  -0.477  29.318  0.00  0.00    +0.210 HD
ENDBRANCH   8   2
BRANCH   7  13
ATOM     13  C   UNL     1     -15.132   2.146  29.074  0.00  0.00    +0.115 C 
BRANCH  13   4
ATOM      4  N   UNL     1     -14.957   3.590  29.044  0.00  0.00    -0.311 NA
ATOM     28  H   UNL     1     -14.253   3.850  29.736  0.00  0.00    +0.122 HD
BRANCH   4  10
ATOM      5  N   UNL     1     -18.097   5.283  31.362  0.00  0.00    -0.316 NA
ATOM     10  C   UNL     1     -16.208   4.275  29.361  0.00  0.00    +0.056 C 
ATOM     14  C   UNL     1     -15.945   5.557  30.160  0.00  0.00    +0.034 C 
ATOM     15  C   UNL     1     -17.137   3.345  30.147  0.00  0.00    +0.034 C 
ATOM     17  C   UNL     1     -17.259   6.207  30.594  0.00  0.00    +0.082 C 
ATOM     18  C   UNL     1     -18.405   4.081  30.582  0.00  0.00    +0.082 C 
ATOM     29  H   UNL     1     -18.967   5.750  31.617  0.00  0.00    +0.122 HD
ENDBRANCH   4  10
ENDBRANCH  13   4
ENDBRANCH   7  13
BRANCH   9  16
ATOM     16  C   UNL     1     -14.793   1.877  33.418  0.00  0.00    +0.090 C 
BRANCH  16  19
ATOM      3  O   UNL     1     -15.723   5.357  33.539  0.00  0.00    -0.354 OA
ATOM      6  N   UNL     1     -16.030   4.003  33.512  0.00  0.00    -0.083 NA
ATOM     19  C   UNL     1     -14.850   3.381  33.459  0.00  0.00    +0.087 A 
ATOM     20  C   UNL     1     -13.771   4.283  33.450  0.00  0.00    +0.076 A 
ATOM     21  C   UNL     1     -14.375   5.512  33.502  0.00  0.00    +0.167 A 
BRANCH  21  22
ATOM     22  C   UNL     1     -13.903   6.866  33.525  0.00  0.00    +0.020 A 
ATOM     23  C   UNL     1     -13.393   7.406  34.706  0.00  0.00    +0.011 A 
ATOM     24  C   UNL     1     -13.954   7.643  32.368  0.00  0.00    +0.011 A 
ATOM     25  C   UNL     1     -12.935   8.723  34.729  0.00  0.00    +0.001 A 
ATOM     26  C   UNL     1     -13.496   8.959  32.391  0.00  0.00    +0.001 A 
ATOM     27  C   UNL     1     -12.986   9.500  33.572  0.00  0.00    +0.000 A 
ENDBRANCH  21  22
ENDBRANCH  16  19
ENDBRANCH   9  16
TORSDOF 7
ENDMDL
MODEL 3
REMARK VINA RESULT:      -6.9     26.623     28.366
REMARK  Name = 75536314
REMARK  7 active torsions:
REMARK  status: ('A' for Active; 'I' for Inactive)
REMARK    1  A    between atoms: O_2  and  C_8
REMARK    2  A    between atoms: N_4  and  C_10
REMARK    3  A    between atoms: N_4  and  C_13
REMARK    4  A    between atoms: C_7  and  C_13
REMARK    5  A    between atoms: C_9  and  C_16
REMARK    6  A    between atoms: C_16  and  C_19
REMARK    7  A    between atoms: C_21  and  C_22
REMARK                            x       y       z     vdW  Elec       q    Type
REMARK                         _______ _______ _______ _____ _____    ______ ____
ROOT
ATOM      1  O   UNL     1      -7.020  -9.840  17.281  0.00  0.00    -0.369 OA
ATOM      7  C   UNL     1      -6.122 -10.324  18.288  0.00  0.00    +0.161 C 
ATOM      8  C   UNL     1      -6.846 -11.228  19.294  0.00  0.00    +0.145 C 
ATOM      9  C   UNL     1      -7.732 -10.852  16.563  0.00  0.00    +0.125 C 
ATOM     11  C   UNL     1      -7.680 -12.308  18.609  0.00  0.00    +0.036 C 
ATOM     12  C   UNL     1      -8.563 -11.706  17.519  0.00  0.00    +0.034 C 
ENDROOT
BRANCH   8   2
ATOM      2  O   UNL     1      -7.731 -10.427  20.081  0.00  0.00    -0.389 OA
ATOM     30  H   UNL     1      -8.401 -10.054  19.482  0.00  0.00    +0.210 HD
ENDBRANCH   8   2
BRANCH   7  13
ATOM     13  C   UNL     1      -4.898 -10.989  17.660  0.00  0.00    +0.115 C 
BRANCH  13   4
ATOM      4  N   UNL     1      -4.205 -10.068  16.773  0.00  0.00    -0.311 NA
ATOM     28  H   UNL     1      -4.876  -9.383  16.423  0.00  0.00    +0.122 HD
BRANCH   4  10
ATOM      5  N   UNL     1      -2.005 -12.998  14.611  0.00  0.00    -0.316 NA
ATOM     10  C   UNL     1      -3.617 -10.777  15.639  0.00  0.00    +0.056 C 
ATOM     14  C   UNL     1      -4.163 -12.206  15.540  0.00  0.00    +0.034 C 
ATOM     15  C   UNL     1      -2.090 -10.804  15.766  0.00  0.00    +0.034 C 
ATOM     17  C   UNL     1      -3.458 -12.983  14.429  0.00  0.00    +0.082 C 
ATOM     18  C   UNL     1      -1.465 -11.636  14.645  0.00  0.00    +0.082 C 
ATOM     29  H   UNL     1      -1.575 -13.511  13.842  0.00  0.00    +0.122 HD
ENDBRANCH   4  10
ENDBRANCH  13   4
ENDBRANCH   7  13
BRANCH   9  16
ATOM     16  C   UNL     1      -8.625 -10.151  15.547  0.00  0.00    +0.090 C 
BRANCH  16  19
ATOM      3  O   UNL     1      -7.657  -9.511  12.134  0.00  0.00    -0.354 OA
ATOM      6  N   UNL     1      -8.610  -9.670  13.133  0.00  0.00    -0.083 NA
ATOM     19  C   UNL     1      -7.910  -9.921  14.242  0.00  0.00    +0.087 A 
ATOM     20  C   UNL     1      -6.523  -9.932  14.007  0.00  0.00    +0.076 A 
ATOM     21  C   UNL     1      -6.419  -9.669  12.667  0.00  0.00    +0.167 A 
BRANCH  21  22
ATOM     22  C   UNL     1      -5.325  -9.530  11.750  0.00  0.00    +0.020 A 
ATOM     23  C   UNL     1      -4.108 -10.159  12.017  0.00  0.00    +0.011 A 
ATOM     24  C   UNL     1      -5.477  -8.768  10.592  0.00  0.00    +0.011 A 
ATOM     25  C   UNL     1      -3.043 -10.023  11.126  0.00  0.00    +0.001 A 
ATOM     26  C   UNL     1      -4.413  -8.633   9.701  0.00  0.00    +0.001 A 
ATOM     27  C   UNL     1      -3.196  -9.260   9.968  0.00  0.00    +0.000 A 
ENDBRANCH  21  22
ENDBRANCH  16  19
ENDBRANCH   9  16
TORSDOF 7
ENDMDL
MODEL 4
REMARK VINA RESULT:      -6.8     27.446     29.117
REMARK  Name = 75536314
REMARK  7 active torsions:
REMARK  status: ('A' for Active; 'I' for Inactive)
REMARK    1  A    between atoms: O_2  and  C_8
REMARK    2  A    between atoms: N_4  and  C_10
REMARK    3  A    between atoms: N_4  and  C_13
REMARK    4  A    between atoms: C_7  and  C_13
REMARK    5  A    between atoms: C_9  and  C_16
REMARK    6  A    between atoms: C_16  and  C_19
REMARK    7  A    between atoms: C_21  and  C_22
REMARK                            x       y       z     vdW  Elec       q    Type
REMARK                         _______ _______ _______ _____ _____    ______ ____
ROOT
ATOM      1  O   UNL     1      -5.581 -10.912  10.847  0.00  0.00    -0.369 OA
ATOM      7  C   UNL     1      -4.735 -11.350   9.776  0.00  0.00    +0.161 C 
ATOM      8  C   UNL     1      -4.528 -10.239   8.738  0.00  0.00    +0.145 C 
ATOM      9  C   UNL     1      -5.149  -9.727  11.519  0.00  0.00    +0.125 C 
ATOM     11  C   UNL     1      -4.117  -8.916   9.377  0.00  0.00    +0.036 C 
ATOM     12  C   UNL     1      -5.041  -8.560  10.538  0.00  0.00    +0.034 C 
ENDROOT
BRANCH   8   2
ATOM      2  O   UNL     1      -5.759 -10.024   8.042  0.00  0.00    -0.389 OA
ATOM     30  H   UNL     1      -6.458  -9.915   8.708  0.00  0.00    +0.210 HD
ENDBRANCH   8   2
BRANCH   7  13
ATOM     13  C   UNL     1      -3.423 -11.920  10.310  0.00  0.00    +0.115 C 
BRANCH  13   4
ATOM      4  N   UNL     1      -3.571 -13.324  10.660  0.00  0.00    -0.311 NA
ATOM     28  H   UNL     1      -4.566 -13.551  10.688  0.00  0.00    +0.122 HD
BRANCH   4  10
ATOM      5  N   UNL     1      -2.710 -12.929  14.808  0.00  0.00    -0.316 NA
ATOM     10  C   UNL     1      -2.984 -13.603  11.969  0.00  0.00    +0.056 C 
ATOM     14  C   UNL     1      -4.069 -13.941  12.997  0.00  0.00    +0.034 C 
ATOM     15  C   UNL     1      -2.161 -12.402  12.446  0.00  0.00    +0.034 C 
ATOM     17  C   UNL     1      -3.464 -14.113  14.390  0.00  0.00    +0.082 C 
ATOM     18  C   UNL     1      -1.630 -12.633  13.862  0.00  0.00    +0.082 C 
ATOM     29  H   UNL     1      -2.312 -13.092  15.732  0.00  0.00    +0.122 HD
ENDBRANCH   4  10
ENDBRANCH  13   4
ENDBRANCH   7  13
BRANCH   9  16
ATOM     16  C   UNL     1      -6.164  -9.423  12.614  0.00  0.00    +0.090 C 
BRANCH  16  19
ATOM      3  O   UNL     1      -4.354 -10.733  15.442  0.00  0.00    -0.354 OA
ATOM      6  N   UNL     1      -4.454 -10.384  14.101  0.00  0.00    -0.083 NA
ATOM     19  C   UNL     1      -5.693  -9.906  13.960  0.00  0.00    +0.087 A 
ATOM     20  C   UNL     1      -6.415  -9.931  15.166  0.00  0.00    +0.076 A 
ATOM     21  C   UNL     1      -5.528 -10.459  16.066  0.00  0.00    +0.167 A 
BRANCH  21  22
ATOM     22  C   UNL     1      -5.576 -10.767  17.465  0.00  0.00    +0.020 A 
ATOM     23  C   UNL     1      -6.652 -10.331  18.239  0.00  0.00    +0.011 A 
ATOM     24  C   UNL     1      -4.546 -11.502  18.054  0.00  0.00    +0.011 A 
ATOM     25  C   UNL     1      -6.699 -10.631  19.600  0.00  0.00    +0.001 A 
ATOM     26  C   UNL     1      -4.593 -11.802  19.414  0.00  0.00    +0.001 A 
ATOM     27  C   UNL     1      -5.669 -11.366  20.189  0.00  0.00    +0.000 A 
ENDBRANCH  21  22
ENDBRANCH  16  19
ENDBRANCH   9  16
TORSDOF 7
ENDMDL
MODEL 5
REMARK VINA RESULT:      -6.8      5.082      6.186
REMARK  Name = 75536314
REMARK  7 active torsions:
REMARK  status: ('A' for Active; 'I' for Inactive)
REMARK    1  A    between atoms: O_2  and  C_8
REMARK    2  A    between atoms: N_4  and  C_10
REMARK    3  A    between atoms: N_4  and  C_13
REMARK    4  A    between atoms: C_7  and  C_13
REMARK    5  A    between atoms: C_9  and  C_16
REMARK    6  A    between atoms: C_16  and  C_19
REMARK    7  A    between atoms: C_21  and  C_22
REMARK                            x       y       z     vdW  Elec       q    Type
REMARK                         _______ _______ _______ _____ _____    ______ ____
ROOT
ATOM      1  O   UNL     1      13.465   7.380  18.793  0.00  0.00    -0.369 OA
ATOM      7  C   UNL     1      12.243   7.827  19.394  0.00  0.00    +0.161 C 
ATOM      8  C   UNL     1      11.904   7.006  20.645  0.00  0.00    +0.145 C 
ATOM      9  C   UNL     1      14.602   7.369  19.660  0.00  0.00    +0.125 C 
ATOM     11  C   UNL     1      13.085   6.895  21.605  0.00  0.00    +0.036 C 
ATOM     12  C   UNL     1      14.350   6.466  20.867  0.00  0.00    +0.034 C 
ENDROOT
BRANCH   8   2
ATOM      2  O   UNL     1      11.541   5.682  20.245  0.00  0.00    -0.389 OA
ATOM     30  H   UNL     1      10.570   5.641  20.211  0.00  0.00    +0.210 HD
ENDBRANCH   8   2
BRANCH   7  13
ATOM     13  C   UNL     1      12.277   9.331  19.658  0.00  0.00    +0.115 C 
BRANCH  13   4
ATOM      4  N   UNL     1      11.179   9.731  20.524  0.00  0.00    -0.311 NA
ATOM     28  H   UNL     1      10.468  10.195  19.957  0.00  0.00    +0.122 HD
BRANCH   4  10
ATOM      5  N   UNL     1      12.990  11.106  24.119  0.00  0.00    -0.316 NA
ATOM     10  C   UNL     1      11.638  10.654  21.559  0.00  0.00    +0.056 C 
ATOM     14  C   UNL     1      13.164  10.613  21.695  0.00  0.00    +0.034 C 
ATOM     15  C   UNL     1      10.980  10.315  22.900  0.00  0.00    +0.034 C 
ATOM     17  C   UNL     1      13.631  11.488  22.858  0.00  0.00    +0.082 C 
ATOM     18  C   UNL     1      11.532  11.201  24.018  0.00  0.00    +0.082 C 
ATOM     29  H   UNL     1      13.317  11.722  24.862  0.00  0.00    +0.122 HD
ENDBRANCH   4  10
ENDBRANCH  13   4
ENDBRANCH   7  13
BRANCH   9  16
ATOM     16  C   UNL     1      15.792   6.872  18.849  0.00  0.00    +0.090 C 
BRANCH  16  19
ATOM      3  O   UNL     1      18.527   7.474  21.119  0.00  0.00    -0.354 OA
ATOM      6  N   UNL     1      17.312   7.819  20.538  0.00  0.00    -0.083 NA
ATOM     19  C   UNL     1      17.051   6.834  19.674  0.00  0.00    +0.087 A 
ATOM     20  C   UNL     1      18.055   5.850  19.667  0.00  0.00    +0.076 A 
ATOM     21  C   UNL     1      18.959   6.300  20.593  0.00  0.00    +0.167 A 
BRANCH  21  22
ATOM     22  C   UNL     1      20.208   5.813  21.101  0.00  0.00    +0.020 A 
ATOM     23  C   UNL     1      20.784   4.667  20.552  0.00  0.00    +0.011 A 
ATOM     24  C   UNL     1      20.847   6.484  22.143  0.00  0.00    +0.011 A 
ATOM     25  C   UNL     1      22.000   4.193  21.046  0.00  0.00    +0.001 A 
ATOM     26  C   UNL     1      22.061   6.010  22.637  0.00  0.00    +0.001 A 
ATOM     27  C   UNL     1      22.638   4.864  22.089  0.00  0.00    +0.000 A 
ENDBRANCH  21  22
ENDBRANCH  16  19
ENDBRANCH   9  16
TORSDOF 7
ENDMDL
MODEL 6
REMARK VINA RESULT:      -6.7     26.761     28.979
REMARK  Name = 75536314
REMARK  7 active torsions:
REMARK  status: ('A' for Active; 'I' for Inactive)
REMARK    1  A    between atoms: O_2  and  C_8
REMARK    2  A    between atoms: N_4  and  C_10
REMARK    3  A    between atoms: N_4  and  C_13
REMARK    4  A    between atoms: C_7  and  C_13
REMARK    5  A    between atoms: C_9  and  C_16
REMARK    6  A    between atoms: C_16  and  C_19
REMARK    7  A    between atoms: C_21  and  C_22
REMARK                            x       y       z     vdW  Elec       q    Type
REMARK                         _______ _______ _______ _____ _____    ______ ____
ROOT
ATOM      1  O   UNL     1      -2.390 -11.416  15.690  0.00  0.00    -0.369 OA
ATOM      7  C   UNL     1      -2.070 -11.706  14.323  0.00  0.00    +0.161 C 
ATOM      8  C   UNL     1      -2.701 -13.030  13.872  0.00  0.00    +0.145 C 
ATOM      9  C   UNL     1      -3.786 -11.391  15.997  0.00  0.00    +0.125 C 
ATOM     11  C   UNL     1      -4.186 -13.112  14.213  0.00  0.00    +0.036 C 
ATOM     12  C   UNL     1      -4.434 -12.736  15.671  0.00  0.00    +0.034 C 
ENDROOT
BRANCH   8   2
ATOM      2  O   UNL     1      -2.040 -14.108  14.540  0.00  0.00    -0.389 OA
ATOM     30  H   UNL     1      -2.712 -14.779  14.750  0.00  0.00    +0.210 HD
ENDBRANCH   8   2
BRANCH   7  13
ATOM     13  C   UNL     1      -2.429 -10.533  13.414  0.00  0.00    +0.115 C 
BRANCH  13   4
ATOM      4  N   UNL     1      -2.222 -10.879  12.016  0.00  0.00    -0.311 NA
ATOM     28  H   UNL     1      -1.380 -10.407  11.683  0.00  0.00    +0.122 HD
BRANCH   4  10
ATOM      5  N   UNL     1      -5.242  -8.364  10.386  0.00  0.00    -0.316 NA
ATOM     10  C   UNL     1      -3.357 -10.456  11.199  0.00  0.00    +0.056 C 
ATOM     14  C   UNL     1      -2.958  -9.320  10.249  0.00  0.00    +0.034 C 
ATOM     15  C   UNL     1      -4.518 -10.011  12.094  0.00  0.00    +0.034 C 
ATOM     17  C   UNL     1      -4.173  -8.799   9.483  0.00  0.00    +0.082 C 
ATOM     18  C   UNL     1      -5.673  -9.462  11.256  0.00  0.00    +0.082 C 
ATOM     29  H   UNL     1      -6.036  -8.040   9.835  0.00  0.00    +0.122 HD
ENDBRANCH   4  10
ENDBRANCH  13   4
ENDBRANCH   7  13
BRANCH   9  16
ATOM     16  C   UNL     1      -3.924 -11.068  17.480  0.00  0.00    +0.090 C 
BRANCH  16  19
ATOM      3  O   UNL     1      -7.115 -10.494  19.055  0.00  0.00    -0.354 OA
ATOM      6  N   UNL     1      -5.804 -10.956  19.064  0.00  0.00    -0.083 NA
ATOM     19  C   UNL     1      -5.338 -10.697  17.840  0.00  0.00    +0.087 A 
ATOM     20  C   UNL     1      -6.300 -10.079  17.022  0.00  0.00    +0.076 A 
ATOM     21  C   UNL     1      -7.398  -9.974  17.834  0.00  0.00    +0.167 A 
BRANCH  21  22
ATOM     22  C   UNL     1      -8.724  -9.452  17.672  0.00  0.00    +0.020 A 
ATOM     23  C   UNL     1      -9.796 -10.059  18.326  0.00  0.00    +0.011 A 
ATOM     24  C   UNL     1      -8.941  -8.338  16.862  0.00  0.00    +0.011 A 
ATOM     25  C   UNL     1     -11.086  -9.552  18.169  0.00  0.00    +0.001 A 
ATOM     26  C   UNL     1     -10.230  -7.831  16.705  0.00  0.00    +0.001 A 
ATOM     27  C   UNL     1     -11.304  -8.438  17.358  0.00  0.00    +0.000 A 
ENDBRANCH  21  22
ENDBRANCH  16  19
ENDBRANCH   9  16
TORSDOF 7
ENDMDL
MODEL 7
REMARK VINA RESULT:      -6.5     27.236     28.496
REMARK  Name = 75536314
REMARK  7 active torsions:
REMARK  status: ('A' for Active; 'I' for Inactive)
REMARK    1  A    between atoms: O_2  and  C_8
REMARK    2  A    between atoms: N_4  and  C_10
REMARK    3  A    between atoms: N_4  and  C_13
REMARK    4  A    between atoms: C_7  and  C_13
REMARK    5  A    between atoms: C_9  and  C_16
REMARK    6  A    between atoms: C_16  and  C_19
REMARK    7  A    between atoms: C_21  and  C_22
REMARK                            x       y       z     vdW  Elec       q    Type
REMARK                         _______ _______ _______ _____ _____    ______ ____
ROOT
ATOM      1  O   UNL     1      -6.806 -11.717  17.195  0.00  0.00    -0.369 OA
ATOM      7  C   UNL     1      -7.809 -10.889  17.797  0.00  0.00    +0.161 C 
ATOM      8  C   UNL     1      -7.588 -10.755  19.310  0.00  0.00    +0.145 C 
ATOM      9  C   UNL     1      -5.457 -11.307  17.430  0.00  0.00    +0.125 C 
ATOM     11  C   UNL     1      -6.152 -10.372  19.655  0.00  0.00    +0.036 C 
ATOM     12  C   UNL     1      -5.157 -11.272  18.928  0.00  0.00    +0.034 C 
ENDROOT
BRANCH   8   2
ATOM      2  O   UNL     1      -7.866 -12.014  19.930  0.00  0.00    -0.389 OA
ATOM     30  H   UNL     1      -8.831 -12.135  19.930  0.00  0.00    +0.210 HD
ENDBRANCH   8   2
BRANCH   7  13
ATOM     13  C   UNL     1      -7.909  -9.541  17.087  0.00  0.00    +0.115 C 
BRANCH  13   4
ATOM      4  N   UNL     1      -8.937  -8.710  17.694  0.00  0.00    -0.311 NA
ATOM     28  H   UNL     1      -9.221  -9.134  18.578  0.00  0.00    +0.122 HD
BRANCH   4  10
ATOM      5  N   UNL     1     -11.493  -7.259  14.618  0.00  0.00    -0.316 NA
ATOM     10  C   UNL     1     -10.105  -8.601  16.823  0.00  0.00    +0.056 C 
ATOM     14  C   UNL     1      -9.720  -8.828  15.357  0.00  0.00    +0.034 C 
ATOM     15  C   UNL     1     -10.762  -7.227  16.989  0.00  0.00    +0.034 C 
ATOM     17  C   UNL     1     -10.918  -8.595  14.437  0.00  0.00    +0.082 C 
ATOM     18  C   UNL     1     -11.921  -7.055  16.005  0.00  0.00    +0.082 C 
ATOM     29  H   UNL     1     -12.296  -7.152  14.000  0.00  0.00    +0.122 HD
ENDBRANCH   4  10
ENDBRANCH  13   4
ENDBRANCH   7  13
BRANCH   9  16
ATOM     16  C   UNL     1      -4.545 -12.298  16.717  0.00  0.00    +0.090 C 
BRANCH  16  19
ATOM      3  O   UNL     1      -2.986 -11.613  13.541  0.00  0.00    -0.354 OA
ATOM      6  N   UNL     1      -3.031 -12.245  14.777  0.00  0.00    -0.083 NA
ATOM     19  C   UNL     1      -4.160 -11.813  15.345  0.00  0.00    +0.087 A 
ATOM     20  C   UNL     1      -4.862 -10.915  14.522  0.00  0.00    +0.076 A 
ATOM     21  C   UNL     1      -4.081 -10.824  13.400  0.00  0.00    +0.167 A 
BRANCH  21  22
ATOM     22  C   UNL     1      -4.174 -10.103  12.164  0.00  0.00    +0.020 A 
ATOM     23  C   UNL     1      -5.357  -9.444  11.829  0.00  0.00    +0.011 A 
ATOM     24  C   UNL     1      -3.083 -10.063  11.296  0.00  0.00    +0.011 A 
ATOM     25  C   UNL     1      -5.448  -8.743  10.626  0.00  0.00    +0.001 A 
ATOM     26  C   UNL     1      -3.174  -9.362  10.094  0.00  0.00    +0.001 A 
ATOM     27  C   UNL     1      -4.356  -8.702   9.758  0.00  0.00    +0.000 A 
ENDBRANCH  21  22
ENDBRANCH  16  19
ENDBRANCH   9  16
TORSDOF 7
ENDMDL
MODEL 8
REMARK VINA RESULT:      -6.5      4.246      6.244
REMARK  Name = 75536314
REMARK  7 active torsions:
REMARK  status: ('A' for Active; 'I' for Inactive)
REMARK    1  A    between atoms: O_2  and  C_8
REMARK    2  A    between atoms: N_4  and  C_10
REMARK    3  A    between atoms: N_4  and  C_13
REMARK    4  A    between atoms: C_7  and  C_13
REMARK    5  A    between atoms: C_9  and  C_16
REMARK    6  A    between atoms: C_16  and  C_19
REMARK    7  A    between atoms: C_21  and  C_22
REMARK                            x       y       z     vdW  Elec       q    Type
REMARK                         _______ _______ _______ _____ _____    ______ ____
ROOT
ATOM      1  O   UNL     1      14.271   8.487  18.008  0.00  0.00    -0.369 OA
ATOM      7  C   UNL     1      14.227   9.626  17.139  0.00  0.00    +0.161 C 
ATOM      8  C   UNL     1      13.119   9.483  16.087  0.00  0.00    +0.145 C 
ATOM      9  C   UNL     1      13.042   8.180  18.671  0.00  0.00    +0.125 C 
ATOM     11  C   UNL     1      11.778   9.099  16.705  0.00  0.00    +0.036 C 
ATOM     12  C   UNL     1      11.933   7.913  17.654  0.00  0.00    +0.034 C 
ENDROOT
BRANCH   8   2
ATOM      2  O   UNL     1      13.487   8.453  15.167  0.00  0.00    -0.389 OA
ATOM     30  H   UNL     1      13.373   7.600  15.620  0.00  0.00    +0.210 HD
ENDBRANCH   8   2
BRANCH   7  13
ATOM     13  C   UNL     1      14.128  10.925  17.938  0.00  0.00    +0.115 C 
BRANCH  13   4
ATOM      4  N   UNL     1      15.392  11.229  18.591  0.00  0.00    -0.311 NA
ATOM     28  H   UNL     1      16.136  10.710  18.123  0.00  0.00    +0.122 HD
BRANCH   4  10
ATOM      5  N   UNL     1      15.353  11.609  22.829  0.00  0.00    -0.316 NA
ATOM     10  C   UNL     1      15.358  10.842  20.000  0.00  0.00    +0.056 C 
ATOM     14  C   UNL     1      14.109  11.398  20.693  0.00  0.00    +0.034 C 
ATOM     15  C   UNL     1      16.621  11.335  20.714  0.00  0.00    +0.034 C 
ATOM     17  C   UNL     1      14.138  11.095  22.191  0.00  0.00    +0.082 C 
ATOM     18  C   UNL     1      16.552  11.035  22.213  0.00  0.00    +0.082 C 
ATOM     29  H   UNL     1      15.338  11.372  23.820  0.00  0.00    +0.122 HD
ENDBRANCH   4  10
ENDBRANCH  13   4
ENDBRANCH   7  13
BRANCH   9  16
ATOM     16  C   UNL     1      13.285   6.953  19.542  0.00  0.00    +0.090 C 
BRANCH  16  19
ATOM      3  O   UNL     1      16.168   7.513  21.632  0.00  0.00    -0.354 OA
ATOM      6  N   UNL     1      14.828   7.693  21.312  0.00  0.00    -0.083 NA
ATOM     19  C   UNL     1      14.643   6.990  20.191  0.00  0.00    +0.087 A 
ATOM     20  C   UNL     1      15.820   6.353  19.761  0.00  0.00    +0.076 A 
ATOM     21  C   UNL     1      16.748   6.713  20.701  0.00  0.00    +0.167 A 
BRANCH  21  22
ATOM     22  C   UNL     1      18.140   6.435  20.901  0.00  0.00    +0.020 A 
ATOM     23  C   UNL     1      18.845   7.095  21.909  0.00  0.00    +0.011 A 
ATOM     24  C   UNL     1      18.790   5.506  20.089  0.00  0.00    +0.011 A 
ATOM     25  C   UNL     1      20.200   6.824  22.103  0.00  0.00    +0.001 A 
ATOM     26  C   UNL     1      20.144   5.236  20.283  0.00  0.00    +0.001 A 
ATOM     27  C   UNL     1      20.850   5.895  21.290  0.00  0.00    +0.000 A 
ENDBRANCH  21  22
ENDBRANCH  16  19
ENDBRANCH   9  16
TORSDOF 7
ENDMDL
MODEL 9
REMARK VINA RESULT:      -6.5     26.394     28.334
REMARK  Name = 75536314
REMARK  7 active torsions:
REMARK  status: ('A' for Active; 'I' for Inactive)
REMARK    1  A    between atoms: O_2  and  C_8
REMARK    2  A    between atoms: N_4  and  C_10
REMARK    3  A    between atoms: N_4  and  C_13
REMARK    4  A    between atoms: C_7  and  C_13
REMARK    5  A    between atoms: C_9  and  C_16
REMARK    6  A    between atoms: C_16  and  C_19
REMARK    7  A    between atoms: C_21  and  C_22
REMARK                            x       y       z     vdW  Elec       q    Type
REMARK                         _______ _______ _______ _____ _____    ______ ____
ROOT
ATOM      1  O   UNL     1      -4.251 -11.674  13.145  0.00  0.00    -0.369 OA
ATOM      7  C   UNL     1      -4.240 -11.420  14.556  0.00  0.00    +0.161 C 
ATOM      8  C   UNL     1      -2.808 -11.266  15.084  0.00  0.00    +0.145 C 
ATOM      9  C   UNL     1      -3.565 -10.706  12.347  0.00  0.00    +0.125 C 
ATOM     11  C   UNL     1      -1.983 -10.288  14.252  0.00  0.00    +0.036 C 
ATOM     12  C   UNL     1      -2.099 -10.605  12.764  0.00  0.00    +0.034 C 
ENDROOT
BRANCH   8   2
ATOM      2  O   UNL     1      -2.157 -12.539  15.033  0.00  0.00    -0.389 OA
ATOM     30  H   UNL     1      -2.222 -12.865  14.119  0.00  0.00    +0.210 HD
ENDBRANCH   8   2
BRANCH   7  13
ATOM     13  C   UNL     1      -5.137 -10.235  14.908  0.00  0.00    +0.115 C 
BRANCH  13   4
ATOM      4  N   UNL     1      -4.921  -9.812  16.283  0.00  0.00    -0.311 NA
ATOM     28  H   UNL     1      -3.962 -10.039  16.550  0.00  0.00    +0.122 HD
BRANCH   4  10
ATOM      5  N   UNL     1      -7.391 -10.506  19.678  0.00  0.00    -0.316 NA
ATOM     10  C   UNL     1      -5.839 -10.496  17.191  0.00  0.00    +0.056 C 
ATOM     14  C   UNL     1      -7.150  -9.714  17.340  0.00  0.00    +0.034 C 
ATOM     15  C   UNL     1      -5.183 -10.690  18.562  0.00  0.00    +0.034 C 
ATOM     17  C   UNL     1      -8.058 -10.367  18.380  0.00  0.00    +0.082 C 
ATOM     18  C   UNL     1      -6.169 -11.305  19.556  0.00  0.00    +0.082 C 
ATOM     29  H   UNL     1      -8.025 -10.958  20.335  0.00  0.00    +0.122 HD
ENDBRANCH   4  10
ENDBRANCH  13   4
ENDBRANCH   7  13
BRANCH   9  16
ATOM     16  C   UNL     1      -3.687 -11.142  10.892  0.00  0.00    +0.090 C 
BRANCH  16  19
ATOM      3  O   UNL     1      -5.472  -9.119   8.503  0.00  0.00    -0.354 OA
ATOM      6  N   UNL     1      -4.372  -9.868   8.900  0.00  0.00    -0.083 NA
ATOM     19  C   UNL     1      -4.667 -10.288  10.134  0.00  0.00    +0.087 A 
ATOM     20  C   UNL     1      -5.928  -9.837  10.563  0.00  0.00    +0.076 A 
ATOM     21  C   UNL     1      -6.391  -9.108   9.501  0.00  0.00    +0.167 A 
BRANCH  21  22
ATOM     22  C   UNL     1      -7.591  -8.369   9.233  0.00  0.00    +0.020 A 
ATOM     23  C   UNL     1      -7.544  -7.233   8.424  0.00  0.00    +0.011 A 
ATOM     24  C   UNL     1      -8.804  -8.786   9.781  0.00  0.00    +0.011 A 
ATOM     25  C   UNL     1      -8.711  -6.514   8.164  0.00  0.00    +0.001 A 
ATOM     26  C   UNL     1      -9.970  -8.067   9.521  0.00  0.00    +0.001 A 
ATOM     27  C   UNL     1      -9.924  -6.930   8.713  0.00  0.00    +0.000 A 
ENDBRANCH  21  22
ENDBRANCH  16  19
ENDBRANCH   9  16
TORSDOF 7
ENDMDL
MODEL 10
REMARK VINA RESULT:      -6.2     15.433     19.119
REMARK  Name = 75536314
REMARK  7 active torsions:
REMARK  status: ('A' for Active; 'I' for Inactive)
REMARK    1  A    between atoms: O_2  and  C_8
REMARK    2  A    between atoms: N_4  and  C_10
REMARK    3  A    between atoms: N_4  and  C_13
REMARK    4  A    between atoms: C_7  and  C_13
REMARK    5  A    between atoms: C_9  and  C_16
REMARK    6  A    between atoms: C_16  and  C_19
REMARK    7  A    between atoms: C_21  and  C_22
REMARK                            x       y       z     vdW  Elec       q    Type
REMARK                         _______ _______ _______ _____ _____    ______ ____
ROOT
ATOM      1  O   UNL     1      14.976   4.316   0.381  0.00  0.00    -0.369 OA
ATOM      7  C   UNL     1      16.074   5.224   0.222  0.00  0.00    +0.161 C 
ATOM      8  C   UNL     1      16.725   5.076  -1.159  0.00  0.00    +0.145 C 
ATOM      9  C   UNL     1      13.960   4.408  -0.621  0.00  0.00    +0.125 C 
ATOM     11  C   UNL     1      15.702   5.107  -2.290  0.00  0.00    +0.036 C 
ATOM     12  C   UNL     1      14.547   4.150  -2.009  0.00  0.00    +0.034 C 
ENDROOT
BRANCH   8   2
ATOM      2  O   UNL     1      17.403   3.818  -1.217  0.00  0.00    -0.389 OA
ATOM     30  H   UNL     1      18.288   3.978  -1.588  0.00  0.00    +0.210 HD
ENDBRANCH   8   2
BRANCH   7  13
ATOM     13  C   UNL     1      15.650   6.658   0.532  0.00  0.00    +0.115 C 
BRANCH  13   4
ATOM      4  N   UNL     1      16.328   7.154   1.720  0.00  0.00    -0.311 NA
ATOM     28  H   UNL     1      16.872   6.392   2.129  0.00  0.00    +0.122 HD
BRANCH   4  10
ATOM      5  N   UNL     1      13.210   7.071   4.614  0.00  0.00    -0.316 NA
ATOM     10  C   UNL     1      15.366   7.633   2.710  0.00  0.00    +0.056 C 
ATOM     14  C   UNL     1      15.632   7.007   4.083  0.00  0.00    +0.034 C 
ATOM     15  C   UNL     1      13.937   7.319   2.255  0.00  0.00    +0.034 C 
ATOM     17  C   UNL     1      14.554   7.415   5.086  0.00  0.00    +0.082 C 
ATOM     18  C   UNL     1      12.924   7.716   3.330  0.00  0.00    +0.082 C 
ATOM     29  H   UNL     1      12.523   7.374   5.303  0.00  0.00    +0.122 HD
ENDBRANCH   4  10
ENDBRANCH  13   4
ENDBRANCH   7  13
BRANCH   9  16
ATOM     16  C   UNL     1      12.890   3.377  -0.286  0.00  0.00    +0.090 C 
BRANCH  16  19
ATOM      3  O   UNL     1       9.892   4.681   1.232  0.00  0.00    -0.354 OA
ATOM      6  N   UNL     1      10.598   4.160   0.155  0.00  0.00    -0.083 NA
ATOM     19  C   UNL     1      11.832   3.947   0.621  0.00  0.00    +0.087 A 
ATOM     20  C   UNL     1      11.962   4.313   1.972  0.00  0.00    +0.076 A 
ATOM     21  C   UNL     1      10.715   4.767   2.308  0.00  0.00    +0.167 A 
BRANCH  21  22
ATOM     22  C   UNL     1      10.122   5.290   3.504  0.00  0.00    +0.020 A 
ATOM     23  C   UNL     1      10.234   4.585   4.704  0.00  0.00    +0.011 A 
ATOM     24  C   UNL     1       9.432   6.502   3.470  0.00  0.00    +0.011 A 
ATOM     25  C   UNL     1       9.656   5.093   5.867  0.00  0.00    +0.001 A 
ATOM     26  C   UNL     1       8.855   7.010   4.633  0.00  0.00    +0.001 A 
ATOM     27  C   UNL     1       8.967   6.306   5.832  0.00  0.00    +0.000 A 
ENDBRANCH  21  22
ENDBRANCH  16  19
ENDBRANCH   9  16
TORSDOF 7
ENDMDL
