REMARK  Name = 75536033
REMARK  8 active torsions:
REMARK  status: ('A' for Active; 'I' for Inactive)
REMARK    1  A    between atoms: O_4  and  C_31
REMARK    2  A    between atoms: O_4  and  C_32
REMARK    3  A    between atoms: N_8  and  C_11
REMARK    4  A    between atoms: N_10  and  C_29
REMARK    5  A    between atoms: C_12  and  C_28
REMARK    6  A    between atoms: C_13  and  C_19
REMARK    7  A    between atoms: C_29  and  C_30
REMARK    8  A    between atoms: C_29  and  C_31
REMARK                            x       y       z     vdW  Elec       q    Type
REMARK                         _______ _______ _______ _____ _____    ______ ____
ROOT
ATOM      1  O   UNL     1       3.769  -1.064  -1.100  0.00  0.00    -0.275 OA
ATOM      2  O   UNL     1      -1.405   3.906   0.394  0.00  0.00    -0.253 OA
ATOM      6  N   UNL     1       2.427   0.670  -0.326  0.00  0.00    -0.298 N 
ATOM      7  N   UNL     1      -0.143   2.037  -0.173  0.00  0.00    -0.271 N 
ATOM      8  N   UNL     1      -2.503   2.023  -0.337  0.00  0.00    -0.296 N 
ATOM     12  C   UNL     1      -0.020   0.716  -0.809  0.00  0.00    +0.181 C 
ATOM     14  C   UNL     1       1.390   0.437  -1.334  0.00  0.00    +0.139 C 
ATOM     15  C   UNL     1       2.196   1.766   0.620  0.00  0.00    +0.127 C 
ATOM     18  C   UNL     1       1.108   2.725   0.156  0.00  0.00    +0.129 C 
ATOM     19  C   UNL     1       3.564  -0.139  -0.310  0.00  0.00    +0.219 C 
ATOM     25  C   UNL     1      -1.355   2.740  -0.011  0.00  0.00    +0.303 C 
ATOM     33  H   UNL     1      -2.437   1.036  -0.552  0.00  0.00    +0.151 HD
ENDROOT
BRANCH  19  13
ATOM      9  N   UNL     1       7.277  -0.519  -0.185  0.00  0.00    -0.316 NA
ATOM     13  C   UNL     1       4.584   0.172   0.750  0.00  0.00    +0.078 C 
ATOM     22  C   UNL     1       5.309  -1.099   1.198  0.00  0.00    +0.028 C 
ATOM     23  C   UNL     1       5.578   1.225   0.256  0.00  0.00    +0.028 C 
ATOM     26  C   UNL     1       6.331  -1.578   0.165  0.00  0.00    +0.081 C 
ATOM     27  C   UNL     1       6.588   0.648  -0.737  0.00  0.00    +0.081 C 
ATOM     34  H   UNL     1       7.941  -0.874  -0.872  0.00  0.00    +0.122 HD
ENDBRANCH  19  13
BRANCH   8  11
ATOM     11  C   UNL     1      -3.825   2.597  -0.224  0.00  0.00    +0.074 C 
ATOM     16  C   UNL     1      -4.396   2.391   1.183  0.00  0.00    +0.022 C 
ATOM     17  C   UNL     1      -4.765   2.029  -1.293  0.00  0.00    +0.022 C 
ATOM     20  C   UNL     1      -4.782   0.936   1.451  0.00  0.00    +0.002 C 
ATOM     21  C   UNL     1      -5.150   0.575  -1.021  0.00  0.00    +0.002 C 
ATOM     24  C   UNL     1      -5.726   0.397   0.380  0.00  0.00    +0.000 C 
ENDBRANCH   8  11
BRANCH  12  28
ATOM      3  O   UNL     1      -0.193  -0.144   1.414  0.00  0.00    -0.274 OA
ATOM     10  N   UNL     1      -0.953  -1.446  -0.360  0.00  0.00    -0.301 N 
ATOM     28  C   UNL     1      -0.395  -0.317   0.215  0.00  0.00    +0.236 C 
ATOM     35  H   UNL     1      -1.050  -1.491  -1.371  0.00  0.00    +0.150 HD
BRANCH  10  29
ATOM     29  C   UNL     1      -1.379  -2.595   0.406  0.00  0.00    +0.179 C 
ATOM     30  C   UNL     1      -0.230  -3.581   0.550  0.00  0.00    +0.040 C 
BRANCH  29  31
ATOM      5  O   UNL     1      -3.078  -2.916  -1.281  0.00  0.00    -0.249 OA
ATOM     31  C   UNL     1      -2.587  -3.279  -0.216  0.00  0.00    +0.327 C 
BRANCH  31   4
ATOM      4  O   UNL     1      -3.046  -4.311   0.546  0.00  0.00    -0.467 OA
ATOM     32  C   UNL     1      -4.190  -5.002   0.034  0.00  0.00    +0.280 C 
ENDBRANCH  31   4
ENDBRANCH  29  31
ENDBRANCH  10  29
ENDBRANCH  12  28
TORSDOF 6
