MODEL 1
REMARK VINA RESULT:      -7.2      0.000      0.000
REMARK  Name = 45784004
REMARK  11 active torsions:
REMARK  status: ('A' for Active; 'I' for Inactive)
REMARK    1  A    between atoms: N_2  and  C_13
REMARK    2  A    between atoms: C_8  and  C_12
REMARK    3  A    between atoms: C_9  and  C_13
REMARK    4  A    between atoms: C_11  and  C_16
REMARK    5  A    between atoms: C_12  and  C_17
REMARK    6  A    between atoms: C_12  and  C_18
REMARK    7  A    between atoms: C_15  and  C_21
REMARK    8  A    between atoms: C_16  and  C_24
REMARK    9  A    between atoms: C_26  and  C_27
REMARK   10  A    between atoms: C_27  and  C_28
REMARK   11  A    between atoms: C_28  and  C_32
REMARK                            x       y       z     vdW  Elec       q    Type
REMARK                         _______ _______ _______ _____ _____    ______ ____
ROOT
ATOM      8  C   UNL     1      13.191  10.636  21.490  0.00  0.00    +0.000 C 
ATOM      9  C   UNL     1      14.208   9.503  21.763  0.00  0.00    +0.029 C 
ATOM     10  C   UNL     1      12.277  10.265  20.314  0.00  0.00    +0.012 C 
ATOM     11  C   UNL     1      11.521   8.935  20.522  0.00  0.00    +0.024 C 
ATOM     14  C   UNL     1      13.576   8.135  21.723  0.00  0.00    -0.023 C 
ATOM     15  C   UNL     1      12.374   7.863  21.184  0.00  0.00    -0.073 C 
ATOM     21  C   UNL     1      11.799   6.476  21.275  0.00  0.00    +0.039 C 
ENDROOT
BRANCH   8  12
ATOM     12  C   UNL     1      12.373  10.967  22.746  0.00  0.00    -0.013 C 
ATOM     17  C   UNL     1      13.283  11.505  23.846  0.00  0.00    +0.007 C 
ATOM     18  C   UNL     1      11.274  11.972  22.415  0.00  0.00    +0.007 C 
ENDBRANCH   8  12
BRANCH   9  13
ATOM     13  C   UNL     1      15.381   9.546  20.778  0.00  0.00    +0.092 C 
BRANCH  13   2
ATOM      2  N   UNL     1      16.422   8.598  21.173  0.00  0.00    -0.299 NA
ATOM      3  N   UNL     1      18.931   7.248  20.971  0.00  0.00    -0.297 N 
ATOM      6  N   UNL     1      20.027   5.229  20.549  0.00  0.00    -0.223 NA
ATOM      7  N   UNL     1      21.230   7.150  21.368  0.00  0.00    -0.223 NA
ATOM     19  C   UNL     1      17.672   9.305  21.475  0.00  0.00    +0.103 C 
ATOM     20  C   UNL     1      16.651   7.612  20.109  0.00  0.00    +0.103 C 
ATOM     22  C   UNL     1      18.756   8.329  21.945  0.00  0.00    +0.123 C 
ATOM     23  C   UNL     1      17.699   6.580  20.534  0.00  0.00    +0.123 C 
ATOM     25  C   UNL     1      20.118   6.508  20.962  0.00  0.00    +0.218 A 
ATOM     29  C   UNL     1      21.190   4.545  20.553  0.00  0.00    +0.116 A 
ATOM     30  C   UNL     1      22.356   6.406  21.348  0.00  0.00    +0.116 A 
ATOM     31  C   UNL     1      22.396   5.086  20.947  0.00  0.00    +0.039 A 
ENDBRANCH  13   2
ENDBRANCH   9  13
BRANCH  11  16
ATOM     16  C   UNL     1      10.939   8.487  19.176  0.00  0.00    +0.105 C 
BRANCH  16  24
ATOM      1  O   UNL     1      12.413   9.461  17.493  0.00  0.00    -0.425 OA
ATOM      4  N   UNL     1      12.647   7.250  17.745  0.00  0.00    -0.112 NA
ATOM      5  N   UNL     1      13.535   7.665  16.771  0.00  0.00    -0.112 NA
ATOM     24  C   UNL     1      12.014   8.330  18.139  0.00  0.00    +0.218 A 
ATOM     26  C   UNL     1      13.363   8.961  16.657  0.00  0.00    +0.217 A 
BRANCH  26  27
ATOM     27  C   UNL     1      14.042   9.921  15.775  0.00  0.00    +0.097 C 
BRANCH  27  28
ATOM     28  C   UNL     1      14.144  11.335  16.387  0.00  0.00    +0.006 C 
ATOM     32  C   UNL     1      15.580  11.821  16.506  0.00  0.00    +0.004 C 
ENDBRANCH  27  28
ENDBRANCH  26  27
ENDBRANCH  16  24
ENDBRANCH  11  16
TORSDOF 7
ENDMDL
MODEL 2
REMARK VINA RESULT:      -6.7     27.335     30.856
REMARK  Name = 45784004
REMARK  11 active torsions:
REMARK  status: ('A' for Active; 'I' for Inactive)
REMARK    1  A    between atoms: N_2  and  C_13
REMARK    2  A    between atoms: C_8  and  C_12
REMARK    3  A    between atoms: C_9  and  C_13
REMARK    4  A    between atoms: C_11  and  C_16
REMARK    5  A    between atoms: C_12  and  C_17
REMARK    6  A    between atoms: C_12  and  C_18
REMARK    7  A    between atoms: C_15  and  C_21
REMARK    8  A    between atoms: C_16  and  C_24
REMARK    9  A    between atoms: C_26  and  C_27
REMARK   10  A    between atoms: C_27  and  C_28
REMARK   11  A    between atoms: C_28  and  C_32
REMARK                            x       y       z     vdW  Elec       q    Type
REMARK                         _______ _______ _______ _____ _____    ______ ____
ROOT
ATOM      8  C   UNL     1      -7.031 -12.025  16.923  0.00  0.00    +0.000 C 
ATOM      9  C   UNL     1      -7.114 -11.726  18.438  0.00  0.00    +0.029 C 
ATOM     10  C   UNL     1      -5.780 -11.376  16.315  0.00  0.00    +0.012 C 
ATOM     11  C   UNL     1      -4.467 -11.817  16.999  0.00  0.00    +0.024 C 
ATOM     14  C   UNL     1      -5.787 -11.888  19.135  0.00  0.00    -0.023 C 
ATOM     15  C   UNL     1      -4.597 -11.942  18.510  0.00  0.00    -0.073 C 
ATOM     21  C   UNL     1      -3.339 -12.193  19.297  0.00  0.00    +0.039 C 
ENDROOT
BRANCH   8  12
ATOM     12  C   UNL     1      -7.061 -13.535  16.649  0.00  0.00    -0.013 C 
ATOM     17  C   UNL     1      -8.222 -14.187  17.394  0.00  0.00    +0.007 C 
ATOM     18  C   UNL     1      -7.162 -13.802  15.151  0.00  0.00    +0.007 C 
ENDBRANCH   8  12
BRANCH   9  13
ATOM     13  C   UNL     1      -7.657 -10.319  18.707  0.00  0.00    +0.092 C 
BRANCH  13   2
ATOM      2  N   UNL     1      -8.811 -10.038  17.852  0.00  0.00    -0.299 NA
ATOM      3  N   UNL     1     -11.088  -8.572  16.945  0.00  0.00    -0.297 N 
ATOM      6  N   UNL     1     -13.412  -8.531  16.715  0.00  0.00    -0.223 NA
ATOM      7  N   UNL     1     -12.031  -6.842  15.692  0.00  0.00    -0.223 NA
ATOM     19  C   UNL     1      -8.641  -8.752  17.166  0.00  0.00    +0.103 C 
ATOM     20  C   UNL     1     -10.047 -10.021  18.645  0.00  0.00    +0.103 C 
ATOM     22  C   UNL     1      -9.816  -8.472  16.225  0.00  0.00    +0.123 C 
ATOM     23  C   UNL     1     -11.268  -9.785  17.752  0.00  0.00    +0.123 C 
ATOM     25  C   UNL     1     -12.230  -7.952  16.427  0.00  0.00    +0.218 A 
ATOM     29  C   UNL     1     -14.491  -7.908  16.199  0.00  0.00    +0.116 A 
ATOM     30  C   UNL     1     -13.153  -6.271  15.206  0.00  0.00    +0.116 A 
ATOM     31  C   UNL     1     -14.422  -6.765  15.430  0.00  0.00    +0.039 A 
ENDBRANCH  13   2
ENDBRANCH   9  13
BRANCH  11  16
ATOM     16  C   UNL     1      -3.347 -10.860  16.574  0.00  0.00    +0.105 C 
BRANCH  16  24
ATOM      1  O   UNL     1      -2.713 -10.316  14.282  0.00  0.00    -0.425 OA
ATOM      4  N   UNL     1      -2.244 -12.419  14.886  0.00  0.00    -0.112 NA
ATOM      5  N   UNL     1      -1.835 -12.250  13.577  0.00  0.00    -0.112 NA
ATOM     24  C   UNL     1      -2.750 -11.266  15.257  0.00  0.00    +0.218 A 
ATOM     26  C   UNL     1      -2.128 -11.009  13.266  0.00  0.00    +0.217 A 
BRANCH  26  27
ATOM     27  C   UNL     1      -1.913 -10.284  12.007  0.00  0.00    +0.097 C 
BRANCH  27  28
ATOM     28  C   UNL     1      -3.128 -10.351  11.057  0.00  0.00    +0.006 C 
ATOM     32  C   UNL     1      -3.187  -9.177  10.093  0.00  0.00    +0.004 C 
ENDBRANCH  27  28
ENDBRANCH  26  27
ENDBRANCH  16  24
ENDBRANCH  11  16
TORSDOF 7
ENDMDL
MODEL 3
REMARK VINA RESULT:      -6.6      2.800      5.599
REMARK  Name = 45784004
REMARK  11 active torsions:
REMARK  status: ('A' for Active; 'I' for Inactive)
REMARK    1  A    between atoms: N_2  and  C_13
REMARK    2  A    between atoms: C_8  and  C_12
REMARK    3  A    between atoms: C_9  and  C_13
REMARK    4  A    between atoms: C_11  and  C_16
REMARK    5  A    between atoms: C_12  and  C_17
REMARK    6  A    between atoms: C_12  and  C_18
REMARK    7  A    between atoms: C_15  and  C_21
REMARK    8  A    between atoms: C_16  and  C_24
REMARK    9  A    between atoms: C_26  and  C_27
REMARK   10  A    between atoms: C_27  and  C_28
REMARK   11  A    between atoms: C_28  and  C_32
REMARK                            x       y       z     vdW  Elec       q    Type
REMARK                         _______ _______ _______ _____ _____    ______ ____
ROOT
ATOM      8  C   UNL     1      17.214   6.780  20.970  0.00  0.00    +0.000 C 
ATOM      9  C   UNL     1      18.618   7.388  21.192  0.00  0.00    +0.029 C 
ATOM     10  C   UNL     1      16.149   7.602  21.711  0.00  0.00    +0.012 C 
ATOM     11  C   UNL     1      16.134   9.092  21.306  0.00  0.00    +0.024 C 
ATOM     14  C   UNL     1      18.626   8.891  21.066  0.00  0.00    -0.023 C 
ATOM     15  C   UNL     1      17.528   9.667  21.102  0.00  0.00    -0.073 C 
ATOM     21  C   UNL     1      17.641  11.151  20.880  0.00  0.00    +0.039 C 
ENDROOT
BRANCH   8  12
ATOM     12  C   UNL     1      16.884   6.665  19.475  0.00  0.00    -0.013 C 
ATOM     17  C   UNL     1      17.584   5.453  18.868  0.00  0.00    +0.007 C 
ATOM     18  C   UNL     1      15.375   6.578  19.268  0.00  0.00    +0.007 C 
ENDBRANCH   8  12
BRANCH   9  13
ATOM     13  C   UNL     1      19.196   6.994  22.555  0.00  0.00    +0.092 C 
BRANCH  13   2
ATOM      2  N   UNL     1      20.195   5.935  22.405  0.00  0.00    -0.299 NA
ATOM      3  N   UNL     1      22.745   4.832  21.745  0.00  0.00    -0.297 N 
ATOM      6  N   UNL     1      23.952   3.445  20.304  0.00  0.00    -0.223 NA
ATOM      7  N   UNL     1      24.960   4.344  22.300  0.00  0.00    -0.223 NA
ATOM     19  C   UNL     1      21.363   6.208  23.250  0.00  0.00    +0.103 C 
ATOM     20  C   UNL     1      20.610   5.815  21.002  0.00  0.00    +0.103 C 
ATOM     22  C   UNL     1      22.393   5.079  23.146  0.00  0.00    +0.123 C 
ATOM     23  C   UNL     1      21.613   4.672  20.823  0.00  0.00    +0.123 C 
ATOM     25  C   UNL     1      23.942   4.177  21.435  0.00  0.00    +0.218 A 
ATOM     29  C   UNL     1      25.121   2.828  20.037  0.00  0.00    +0.116 A 
ATOM     30  C   UNL     1      26.098   3.698  21.971  0.00  0.00    +0.116 A 
ATOM     31  C   UNL     1      26.238   2.918  20.841  0.00  0.00    +0.039 A 
ENDBRANCH  13   2
ENDBRANCH   9  13
BRANCH  11  16
ATOM     16  C   UNL     1      15.312   9.872  22.339  0.00  0.00    +0.105 C 
BRANCH  16  24
ATOM      1  O   UNL     1      13.302   8.856  21.400  0.00  0.00    -0.425 OA
ATOM      4  N   UNL     1      13.051  10.998  21.998  0.00  0.00    -0.112 NA
ATOM      5  N   UNL     1      11.846  10.553  21.488  0.00  0.00    -0.112 NA
ATOM     24  C   UNL     1      13.871   9.975  21.928  0.00  0.00    +0.218 A 
ATOM     26  C   UNL     1      12.039   9.299  21.151  0.00  0.00    +0.217 A 
BRANCH  26  27
ATOM     27  C   UNL     1      11.101   8.334  20.562  0.00  0.00    +0.097 C 
BRANCH  27  28
ATOM     28  C   UNL     1      10.543   7.328  21.593  0.00  0.00    +0.006 C 
ATOM     32  C   UNL     1      11.291   6.005  21.588  0.00  0.00    +0.004 C 
ENDBRANCH  27  28
ENDBRANCH  26  27
ENDBRANCH  16  24
ENDBRANCH  11  16
TORSDOF 7
ENDMDL
MODEL 4
REMARK VINA RESULT:      -6.6     26.633     30.040
REMARK  Name = 45784004
REMARK  11 active torsions:
REMARK  status: ('A' for Active; 'I' for Inactive)
REMARK    1  A    between atoms: N_2  and  C_13
REMARK    2  A    between atoms: C_8  and  C_12
REMARK    3  A    between atoms: C_9  and  C_13
REMARK    4  A    between atoms: C_11  and  C_16
REMARK    5  A    between atoms: C_12  and  C_17
REMARK    6  A    between atoms: C_12  and  C_18
REMARK    7  A    between atoms: C_15  and  C_21
REMARK    8  A    between atoms: C_16  and  C_24
REMARK    9  A    between atoms: C_26  and  C_27
REMARK   10  A    between atoms: C_27  and  C_28
REMARK   11  A    between atoms: C_28  and  C_32
REMARK                            x       y       z     vdW  Elec       q    Type
REMARK                         _______ _______ _______ _____ _____    ______ ____
ROOT
ATOM      8  C   UNL     1      -3.521 -10.557  15.306  0.00  0.00    +0.000 C 
ATOM      9  C   UNL     1      -4.611 -11.352  14.550  0.00  0.00    +0.029 C 
ATOM     10  C   UNL     1      -3.951 -10.303  16.758  0.00  0.00    +0.012 C 
ATOM     11  C   UNL     1      -4.276 -11.598  17.535  0.00  0.00    +0.024 C 
ATOM     14  C   UNL     1      -5.167 -12.492  15.364  0.00  0.00    -0.023 C 
ATOM     15  C   UNL     1      -5.019 -12.626  16.694  0.00  0.00    -0.073 C 
ATOM     21  C   UNL     1      -5.542 -13.850  17.396  0.00  0.00    +0.039 C 
ENDROOT
BRANCH   8  12
ATOM     12  C   UNL     1      -2.164 -11.273  15.247  0.00  0.00    -0.013 C 
ATOM     17  C   UNL     1      -1.890 -11.774  13.832  0.00  0.00    +0.007 C 
ATOM     18  C   UNL     1      -1.051 -10.342  15.716  0.00  0.00    +0.007 C 
ENDBRANCH   8  12
BRANCH   9  13
ATOM     13  C   UNL     1      -5.761 -10.446  14.099  0.00  0.00    +0.092 C 
BRANCH  13   2
ATOM      2  N   UNL     1      -5.563 -10.008  12.717  0.00  0.00    -0.299 NA
ATOM      3  N   UNL     1      -6.132  -9.862   9.922  0.00  0.00    -0.297 N 
ATOM      6  N   UNL     1      -5.429 -10.403   7.761  0.00  0.00    -0.223 NA
ATOM      7  N   UNL     1      -7.314  -8.947   8.128  0.00  0.00    -0.223 NA
ATOM     19  C   UNL     1      -6.740  -9.276  12.236  0.00  0.00    +0.103 C 
ATOM     20  C   UNL     1      -5.302 -11.161  11.845  0.00  0.00    +0.103 C 
ATOM     22  C   UNL     1      -6.524  -8.764  10.809  0.00  0.00    +0.123 C 
ATOM     23  C   UNL     1      -5.036 -10.711  10.406  0.00  0.00    +0.123 C 
ATOM     25  C   UNL     1      -6.300  -9.732   8.540  0.00  0.00    +0.218 A 
ATOM     29  C   UNL     1      -5.620 -10.254   6.434  0.00  0.00    +0.116 A 
ATOM     30  C   UNL     1      -7.446  -8.842   6.789  0.00  0.00    +0.116 A 
ATOM     31  C   UNL     1      -6.621  -9.479   5.885  0.00  0.00    +0.039 A 
ENDBRANCH  13   2
ENDBRANCH   9  13
BRANCH  11  16
ATOM     16  C   UNL     1      -5.027 -11.223  18.819  0.00  0.00    +0.105 C 
BRANCH  16  24
ATOM      1  O   UNL     1      -6.675  -9.841  17.667  0.00  0.00    -0.425 OA
ATOM      4  N   UNL     1      -7.562 -11.406  18.998  0.00  0.00    -0.112 NA
ATOM      5  N   UNL     1      -8.599 -10.704  18.413  0.00  0.00    -0.112 NA
ATOM     24  C   UNL     1      -6.458 -10.869  18.533  0.00  0.00    +0.218 A 
ATOM     26  C   UNL     1      -8.035  -9.802  17.645  0.00  0.00    +0.217 A 
BRANCH  26  27
ATOM     27  C   UNL     1      -8.656  -8.785  16.786  0.00  0.00    +0.097 C 
BRANCH  27  28
ATOM     28  C   UNL     1      -9.965  -8.214  17.375  0.00  0.00    +0.006 C 
ATOM     32  C   UNL     1     -10.567  -7.116  16.512  0.00  0.00    +0.004 C 
ENDBRANCH  27  28
ENDBRANCH  26  27
ENDBRANCH  16  24
ENDBRANCH  11  16
TORSDOF 7
ENDMDL
MODEL 5
REMARK VINA RESULT:      -6.5     27.061     31.162
REMARK  Name = 45784004
REMARK  11 active torsions:
REMARK  status: ('A' for Active; 'I' for Inactive)
REMARK    1  A    between atoms: N_2  and  C_13
REMARK    2  A    between atoms: C_8  and  C_12
REMARK    3  A    between atoms: C_9  and  C_13
REMARK    4  A    between atoms: C_11  and  C_16
REMARK    5  A    between atoms: C_12  and  C_17
REMARK    6  A    between atoms: C_12  and  C_18
REMARK    7  A    between atoms: C_15  and  C_21
REMARK    8  A    between atoms: C_16  and  C_24
REMARK    9  A    between atoms: C_26  and  C_27
REMARK   10  A    between atoms: C_27  and  C_28
REMARK   11  A    between atoms: C_28  and  C_32
REMARK                            x       y       z     vdW  Elec       q    Type
REMARK                         _______ _______ _______ _____ _____    ______ ____
ROOT
ATOM      8  C   UNL     1      -5.658 -10.410  10.429  0.00  0.00    +0.000 C 
ATOM      9  C   UNL     1      -4.832  -9.990   9.191  0.00  0.00    +0.029 C 
ATOM     10  C   UNL     1      -4.785 -11.200  11.415  0.00  0.00    +0.012 C 
ATOM     11  C   UNL     1      -3.528 -10.428  11.873  0.00  0.00    +0.024 C 
ATOM     14  C   UNL     1      -3.468  -9.461   9.556  0.00  0.00    -0.023 C 
ATOM     15  C   UNL     1      -2.874  -9.635  10.751  0.00  0.00    -0.073 C 
ATOM     21  C   UNL     1      -1.546  -8.990  11.038  0.00  0.00    +0.039 C 
ENDROOT
BRANCH   8  12
ATOM     12  C   UNL     1      -6.302  -9.194  11.110  0.00  0.00    -0.013 C 
ATOM     17  C   UNL     1      -7.473  -8.679  10.279  0.00  0.00    +0.007 C 
ATOM     18  C   UNL     1      -6.756  -9.553  12.521  0.00  0.00    +0.007 C 
ENDBRANCH   8  12
BRANCH   9  13
ATOM     13  C   UNL     1      -4.675 -11.146   8.198  0.00  0.00    +0.092 C 
BRANCH  13   2
ATOM      2  N   UNL     1      -5.107 -10.740   6.861  0.00  0.00    -0.299 NA
ATOM      3  N   UNL     1      -6.946 -10.430   4.697  0.00  0.00    -0.297 N 
ATOM      6  N   UNL     1      -7.528 -11.075   2.529  0.00  0.00    -0.223 NA
ATOM      7  N   UNL     1      -8.656  -9.251   3.630  0.00  0.00    -0.223 NA
ATOM     19  C   UNL     1      -6.197  -9.763   6.948  0.00  0.00    +0.103 C 
ATOM     20  C   UNL     1      -5.544 -11.908   6.084  0.00  0.00    +0.103 C 
ATOM     22  C   UNL     1      -6.622  -9.286   5.555  0.00  0.00    +0.123 C 
ATOM     23  C   UNL     1      -5.944 -11.503   4.663  0.00  0.00    +0.123 C 
ATOM     25  C   UNL     1      -7.748 -10.243   3.567  0.00  0.00    +0.218 A 
ATOM     29  C   UNL     1      -8.318 -10.867   1.456  0.00  0.00    +0.116 A 
ATOM     30  C   UNL     1      -9.411  -9.099   2.522  0.00  0.00    +0.116 A 
ATOM     31  C   UNL     1      -9.286  -9.885   1.394  0.00  0.00    +0.039 A 
ENDBRANCH  13   2
ENDBRANCH   9  13
BRANCH  11  16
ATOM     16  C   UNL     1      -2.565 -11.415  12.545  0.00  0.00    +0.105 C 
BRANCH  16  24
ATOM      1  O   UNL     1      -3.649 -10.946  14.680  0.00  0.00    -0.425 OA
ATOM      4  N   UNL     1      -1.424 -11.147  14.808  0.00  0.00    -0.112 NA
ATOM      5  N   UNL     1      -1.903 -10.886  16.078  0.00  0.00    -0.112 NA
ATOM     24  C   UNL     1      -2.477 -11.174  14.025  0.00  0.00    +0.218 A 
ATOM     26  C   UNL     1      -3.206 -10.776  15.956  0.00  0.00    +0.217 A 
BRANCH  26  27
ATOM     27  C   UNL     1      -4.222 -10.505  16.981  0.00  0.00    +0.097 C 
BRANCH  27  28
ATOM     28  C   UNL     1      -4.681 -11.777  17.727  0.00  0.00    +0.006 C 
ATOM     32  C   UNL     1      -4.000 -11.945  19.076  0.00  0.00    +0.004 C 
ENDBRANCH  27  28
ENDBRANCH  26  27
ENDBRANCH  16  24
ENDBRANCH  11  16
TORSDOF 7
ENDMDL
MODEL 6
REMARK VINA RESULT:      -6.5     26.646     29.898
REMARK  Name = 45784004
REMARK  11 active torsions:
REMARK  status: ('A' for Active; 'I' for Inactive)
REMARK    1  A    between atoms: N_2  and  C_13
REMARK    2  A    between atoms: C_8  and  C_12
REMARK    3  A    between atoms: C_9  and  C_13
REMARK    4  A    between atoms: C_11  and  C_16
REMARK    5  A    between atoms: C_12  and  C_17
REMARK    6  A    between atoms: C_12  and  C_18
REMARK    7  A    between atoms: C_15  and  C_21
REMARK    8  A    between atoms: C_16  and  C_24
REMARK    9  A    between atoms: C_26  and  C_27
REMARK   10  A    between atoms: C_27  and  C_28
REMARK   11  A    between atoms: C_28  and  C_32
REMARK                            x       y       z     vdW  Elec       q    Type
REMARK                         _______ _______ _______ _____ _____    ______ ____
ROOT
ATOM      8  C   UNL     1      -3.797 -11.771  12.922  0.00  0.00    +0.000 C 
ATOM      9  C   UNL     1      -2.663 -11.209  13.812  0.00  0.00    +0.029 C 
ATOM     10  C   UNL     1      -4.307 -10.691  11.957  0.00  0.00    +0.012 C 
ATOM     11  C   UNL     1      -3.198 -10.097  11.062  0.00  0.00    +0.024 C 
ATOM     14  C   UNL     1      -1.668 -10.387  13.033  0.00  0.00    -0.023 C 
ATOM     15  C   UNL     1      -1.883  -9.892  11.800  0.00  0.00    -0.073 C 
ATOM     21  C   UNL     1      -0.788  -9.156  11.077  0.00  0.00    +0.039 C 
ENDROOT
BRANCH   8  12
ATOM     12  C   UNL     1      -3.342 -13.024  12.162  0.00  0.00    -0.013 C 
ATOM     17  C   UNL     1      -2.722 -14.033  13.124  0.00  0.00    +0.007 C 
ATOM     18  C   UNL     1      -4.515 -13.646  11.411  0.00  0.00    +0.007 C 
ENDBRANCH   8  12
BRANCH   9  13
ATOM     13  C   UNL     1      -3.215 -10.370  14.968  0.00  0.00    +0.092 C 
BRANCH  13   2
ATOM      2  N   UNL     1      -4.413 -10.992  15.532  0.00  0.00    -0.299 NA
ATOM      3  N   UNL     1      -6.497 -11.375  17.448  0.00  0.00    -0.297 N 
ATOM      6  N   UNL     1      -7.413 -12.781  19.073  0.00  0.00    -0.223 NA
ATOM      7  N   UNL     1      -8.584 -10.809  18.330  0.00  0.00    -0.223 NA
ATOM     19  C   UNL     1      -5.491 -10.006  15.664  0.00  0.00    +0.103 C 
ATOM     20  C   UNL     1      -4.117 -11.586  16.843  0.00  0.00    +0.103 C 
ATOM     22  C   UNL     1      -6.770 -10.656  16.201  0.00  0.00    +0.123 C 
ATOM     23  C   UNL     1      -5.349 -12.290  17.416  0.00  0.00    +0.123 C 
ATOM     25  C   UNL     1      -7.547 -11.668  18.325  0.00  0.00    +0.218 A 
ATOM     29  C   UNL     1      -8.444 -13.033  19.906  0.00  0.00    +0.116 A 
ATOM     30  C   UNL     1      -9.579 -11.123  19.186  0.00  0.00    +0.116 A 
ATOM     31  C   UNL     1      -9.563 -12.233  20.006  0.00  0.00    +0.039 A 
ENDBRANCH  13   2
ENDBRANCH   9  13
BRANCH  11  16
ATOM     16  C   UNL     1      -3.726  -8.810  10.416  0.00  0.00    +0.105 C 
BRANCH  16  24
ATOM      1  O   UNL     1      -4.386  -9.966   8.371  0.00  0.00    -0.425 OA
ATOM      4  N   UNL     1      -5.982  -8.662   9.240  0.00  0.00    -0.112 NA
ATOM      5  N   UNL     1      -6.488  -9.251   8.097  0.00  0.00    -0.112 NA
ATOM     24  C   UNL     1      -4.754  -9.108   9.362  0.00  0.00    +0.218 A 
ATOM     26  C   UNL     1      -5.522 -10.002   7.622  0.00  0.00    +0.217 A 
BRANCH  26  27
ATOM     27  C   UNL     1      -5.503 -10.857   6.428  0.00  0.00    +0.097 C 
BRANCH  27  28
ATOM     28  C   UNL     1      -4.467 -11.999   6.519  0.00  0.00    +0.006 C 
ATOM     32  C   UNL     1      -3.668 -12.171   5.237  0.00  0.00    +0.004 C 
ENDBRANCH  27  28
ENDBRANCH  26  27
ENDBRANCH  16  24
ENDBRANCH  11  16
TORSDOF 7
ENDMDL
MODEL 7
REMARK VINA RESULT:      -6.4     27.910     32.081
REMARK  Name = 45784004
REMARK  11 active torsions:
REMARK  status: ('A' for Active; 'I' for Inactive)
REMARK    1  A    between atoms: N_2  and  C_13
REMARK    2  A    between atoms: C_8  and  C_12
REMARK    3  A    between atoms: C_9  and  C_13
REMARK    4  A    between atoms: C_11  and  C_16
REMARK    5  A    between atoms: C_12  and  C_17
REMARK    6  A    between atoms: C_12  and  C_18
REMARK    7  A    between atoms: C_15  and  C_21
REMARK    8  A    between atoms: C_16  and  C_24
REMARK    9  A    between atoms: C_26  and  C_27
REMARK   10  A    between atoms: C_27  and  C_28
REMARK   11  A    between atoms: C_28  and  C_32
REMARK                            x       y       z     vdW  Elec       q    Type
REMARK                         _______ _______ _______ _____ _____    ______ ____
ROOT
ATOM      8  C   UNL     1      -7.627 -12.306  17.175  0.00  0.00    +0.000 C 
ATOM      9  C   UNL     1      -7.645 -12.287  18.721  0.00  0.00    +0.029 C 
ATOM     10  C   UNL     1      -6.612 -11.288  16.637  0.00  0.00    +0.012 C 
ATOM     11  C   UNL     1      -5.180 -11.510  17.171  0.00  0.00    +0.024 C 
ATOM     14  C   UNL     1      -6.261 -12.240  19.317  0.00  0.00    -0.023 C 
ATOM     15  C   UNL     1      -5.148 -11.907  18.640  0.00  0.00    -0.073 C 
ATOM     21  C   UNL     1      -3.803 -11.976  19.311  0.00  0.00    +0.039 C 
ENDROOT
BRANCH   8  12
ATOM     12  C   UNL     1      -7.338 -13.715  16.637  0.00  0.00    -0.013 C 
ATOM     17  C   UNL     1      -8.237 -14.740  17.322  0.00  0.00    +0.007 C 
ATOM     18  C   UNL     1      -7.527 -13.755  15.124  0.00  0.00    +0.007 C 
ENDBRANCH   8  12
BRANCH   9  13
ATOM     13  C   UNL     1      -8.467 -11.112  19.262  0.00  0.00    +0.092 C 
BRANCH  13   2
ATOM      2  N   UNL     1      -9.872 -11.493  19.417  0.00  0.00    -0.299 NA
ATOM      3  N   UNL     1     -12.269 -12.085  20.851  0.00  0.00    -0.297 N 
ATOM      6  N   UNL     1     -13.815 -13.725  21.467  0.00  0.00    -0.223 NA
ATOM      7  N   UNL     1     -14.221 -11.395  21.931  0.00  0.00    -0.223 NA
ATOM     19  C   UNL     1     -10.624 -10.422  20.080  0.00  0.00    +0.103 C 
ATOM     20  C   UNL     1      -9.986 -12.736  20.190  0.00  0.00    +0.103 C 
ATOM     22  C   UNL     1     -12.108 -10.783  20.198  0.00  0.00    +0.123 C 
ATOM     23  C   UNL     1     -11.447 -13.175  20.310  0.00  0.00    +0.123 C 
ATOM     25  C   UNL     1     -13.492 -12.417  21.445  0.00  0.00    +0.218 A 
ATOM     29  C   UNL     1     -15.000 -14.008  22.046  0.00  0.00    +0.116 A 
ATOM     30  C   UNL     1     -15.394 -11.751  22.495  0.00  0.00    +0.116 A 
ATOM     31  C   UNL     1     -15.840 -13.054  22.582  0.00  0.00    +0.039 A 
ENDBRANCH  13   2
ENDBRANCH   9  13
BRANCH  11  16
ATOM     16  C   UNL     1      -4.346 -10.258  16.873  0.00  0.00    +0.105 C 
BRANCH  16  24
ATOM      1  O   UNL     1      -3.408 -10.619  14.651  0.00  0.00    -0.425 OA
ATOM      4  N   UNL     1      -1.926 -10.828  16.314  0.00  0.00    -0.112 NA
ATOM      5  N   UNL     1      -1.265 -11.055  15.122  0.00  0.00    -0.112 NA
ATOM     24  C   UNL     1      -3.173 -10.577  15.991  0.00  0.00    +0.218 A 
ATOM     26  C   UNL     1      -2.167 -10.923  14.179  0.00  0.00    +0.217 A 
BRANCH  26  27
ATOM     27  C   UNL     1      -2.025 -11.052  12.723  0.00  0.00    +0.097 C 
BRANCH  27  28
ATOM     28  C   UNL     1      -3.179 -10.388  11.942  0.00  0.00    +0.006 C 
ATOM     32  C   UNL     1      -2.698  -9.626  10.717  0.00  0.00    +0.004 C 
ENDBRANCH  27  28
ENDBRANCH  26  27
ENDBRANCH  16  24
ENDBRANCH  11  16
TORSDOF 7
ENDMDL
MODEL 8
REMARK VINA RESULT:      -6.4      3.727      7.513
REMARK  Name = 45784004
REMARK  11 active torsions:
REMARK  status: ('A' for Active; 'I' for Inactive)
REMARK    1  A    between atoms: N_2  and  C_13
REMARK    2  A    between atoms: C_8  and  C_12
REMARK    3  A    between atoms: C_9  and  C_13
REMARK    4  A    between atoms: C_11  and  C_16
REMARK    5  A    between atoms: C_12  and  C_17
REMARK    6  A    between atoms: C_12  and  C_18
REMARK    7  A    between atoms: C_15  and  C_21
REMARK    8  A    between atoms: C_16  and  C_24
REMARK    9  A    between atoms: C_26  and  C_27
REMARK   10  A    between atoms: C_27  and  C_28
REMARK   11  A    between atoms: C_28  and  C_32
REMARK                            x       y       z     vdW  Elec       q    Type
REMARK                         _______ _______ _______ _____ _____    ______ ____
ROOT
ATOM      8  C   UNL     1      14.041   8.691  20.201  0.00  0.00    +0.000 C 
ATOM      9  C   UNL     1      13.555   7.607  19.210  0.00  0.00    +0.029 C 
ATOM     10  C   UNL     1      12.868   9.212  21.044  0.00  0.00    +0.012 C 
ATOM     11  C   UNL     1      12.132   8.098  21.821  0.00  0.00    +0.024 C 
ATOM     14  C   UNL     1      12.611   6.620  19.847  0.00  0.00    -0.023 C 
ATOM     15  C   UNL     1      11.975   6.816  21.017  0.00  0.00    -0.073 C 
ATOM     21  C   UNL     1      11.119   5.727  21.605  0.00  0.00    +0.039 C 
ENDROOT
BRANCH   8  12
ATOM     12  C   UNL     1      15.175   8.166  21.092  0.00  0.00    -0.013 C 
ATOM     17  C   UNL     1      16.236   7.469  20.246  0.00  0.00    +0.007 C 
ATOM     18  C   UNL     1      15.790   9.307  21.897  0.00  0.00    +0.007 C 
ENDBRANCH   8  12
BRANCH   9  13
ATOM     13  C   UNL     1      12.884   8.226  17.979  0.00  0.00    +0.092 C 
BRANCH  13   2
ATOM      2  N   UNL     1      13.794   9.153  17.306  0.00  0.00    -0.299 NA
ATOM      3  N   UNL     1      14.550  11.139  15.398  0.00  0.00    -0.297 N 
ATOM      6  N   UNL     1      15.819  11.631  13.499  0.00  0.00    -0.223 NA
ATOM      7  N   UNL     1      14.686  13.370  14.724  0.00  0.00    -0.223 NA
ATOM     19  C   UNL     1      13.314  10.533  17.441  0.00  0.00    +0.103 C 
ATOM     20  C   UNL     1      13.923   8.805  15.885  0.00  0.00    +0.103 C 
ATOM     22  C   UNL     1      14.287  11.519  16.788  0.00  0.00    +0.123 C 
ATOM     23  C   UNL     1      14.918   9.733  15.182  0.00  0.00    +0.123 C 
ATOM     25  C   UNL     1      15.041  12.091  14.498  0.00  0.00    +0.218 A 
ATOM     29  C   UNL     1      16.274  12.576  12.652  0.00  0.00    +0.116 A 
ATOM     30  C   UNL     1      15.177  14.262  13.838  0.00  0.00    +0.116 A 
ATOM     31  C   UNL     1      15.984  13.920  12.773  0.00  0.00    +0.039 A 
ENDBRANCH  13   2
ENDBRANCH   9  13
BRANCH  11  16
ATOM     16  C   UNL     1      10.793   8.654  22.323  0.00  0.00    +0.105 C 
BRANCH  16  24
ATOM      1  O   UNL     1      10.902  10.370  24.054  0.00  0.00    -0.425 OA
ATOM      4  N   UNL     1      11.032  11.167  21.967  0.00  0.00    -0.112 NA
ATOM      5  N   UNL     1      11.107  12.237  22.837  0.00  0.00    -0.112 NA
ATOM     24  C   UNL     1      10.914  10.098  22.720  0.00  0.00    +0.218 A 
ATOM     26  C   UNL     1      11.027  11.726  24.044  0.00  0.00    +0.217 A 
BRANCH  26  27
ATOM     27  C   UNL     1      11.056  12.399  25.349  0.00  0.00    +0.097 C 
BRANCH  27  28
ATOM     28  C   UNL     1      10.490  13.835  25.300  0.00  0.00    +0.006 C 
ATOM     32  C   UNL     1      11.002  14.708  26.436  0.00  0.00    +0.004 C 
ENDBRANCH  27  28
ENDBRANCH  26  27
ENDBRANCH  16  24
ENDBRANCH  11  16
TORSDOF 7
ENDMDL
MODEL 9
REMARK VINA RESULT:      -6.4      3.424      8.188
REMARK  Name = 45784004
REMARK  11 active torsions:
REMARK  status: ('A' for Active; 'I' for Inactive)
REMARK    1  A    between atoms: N_2  and  C_13
REMARK    2  A    between atoms: C_8  and  C_12
REMARK    3  A    between atoms: C_9  and  C_13
REMARK    4  A    between atoms: C_11  and  C_16
REMARK    5  A    between atoms: C_12  and  C_17
REMARK    6  A    between atoms: C_12  and  C_18
REMARK    7  A    between atoms: C_15  and  C_21
REMARK    8  A    between atoms: C_16  and  C_24
REMARK    9  A    between atoms: C_26  and  C_27
REMARK   10  A    between atoms: C_27  and  C_28
REMARK   11  A    between atoms: C_28  and  C_32
REMARK                            x       y       z     vdW  Elec       q    Type
REMARK                         _______ _______ _______ _____ _____    ______ ____
ROOT
ATOM      8  C   UNL     1      13.972   9.372  18.024  0.00  0.00    +0.000 C 
ATOM      9  C   UNL     1      12.995  10.173  18.916  0.00  0.00    +0.029 C 
ATOM     10  C   UNL     1      14.794   8.391  18.873  0.00  0.00    +0.012 C 
ATOM     11  C   UNL     1      13.924   7.412  19.691  0.00  0.00    +0.024 C 
ATOM     14  C   UNL     1      12.292   9.306  19.930  0.00  0.00    -0.023 C 
ATOM     15  C   UNL     1      12.683   8.068  20.280  0.00  0.00    -0.073 C 
ATOM     21  C   UNL     1      11.858   7.255  21.241  0.00  0.00    +0.039 C 
ENDROOT
BRANCH   8  12
ATOM     12  C   UNL     1      13.228   8.642  16.897  0.00  0.00    -0.013 C 
ATOM     17  C   UNL     1      12.219   9.574  16.235  0.00  0.00    +0.007 C 
ATOM     18  C   UNL     1      14.218   8.100  15.870  0.00  0.00    +0.007 C 
ENDBRANCH   8  12
BRANCH   9  13
ATOM     13  C   UNL     1      13.704  11.322  19.640  0.00  0.00    +0.092 C 
BRANCH  13   2
ATOM      2  N   UNL     1      13.022  11.641  20.895  0.00  0.00    -0.299 NA
ATOM      3  N   UNL     1      12.344  13.244  23.159  0.00  0.00    -0.297 N 
ATOM      6  N   UNL     1      12.489  13.500  25.476  0.00  0.00    -0.223 NA
ATOM      7  N   UNL     1      11.083  14.940  24.151  0.00  0.00    -0.223 NA
ATOM     19  C   UNL     1      12.185  12.835  20.735  0.00  0.00    +0.103 C 
ATOM     20  C   UNL     1      13.997  11.855  21.971  0.00  0.00    +0.103 C 
ATOM     22  C   UNL     1      11.421  13.148  22.025  0.00  0.00    +0.123 C 
ATOM     23  C   UNL     1      13.293  12.133  23.302  0.00  0.00    +0.123 C 
ATOM     25  C   UNL     1      11.954  13.927  24.316  0.00  0.00    +0.218 A 
ATOM     29  C   UNL     1      12.091  14.181  26.571  0.00  0.00    +0.116 A 
ATOM     30  C   UNL     1      10.727  15.577  25.287  0.00  0.00    +0.116 A 
ATOM     31  C   UNL     1      11.204  15.237  26.537  0.00  0.00    +0.039 A 
ENDBRANCH  13   2
ENDBRANCH   9  13
BRANCH  11  16
ATOM     16  C   UNL     1      14.806   6.743  20.752  0.00  0.00    +0.105 C 
BRANCH  16  24
ATOM      1  O   UNL     1      17.237   6.825  20.934  0.00  0.00    -0.425 OA
ATOM      4  N   UNL     1      16.492   5.766  19.109  0.00  0.00    -0.112 NA
ATOM      5  N   UNL     1      17.873   5.737  19.085  0.00  0.00    -0.112 NA
ATOM     24  C   UNL     1      16.164   6.410  20.205  0.00  0.00    +0.218 A 
ATOM     26  C   UNL     1      18.265   6.367  20.168  0.00  0.00    +0.217 A 
BRANCH  26  27
ATOM     27  C   UNL     1      19.625   6.634  20.654  0.00  0.00    +0.097 C 
BRANCH  27  28
ATOM     28  C   UNL     1      20.513   5.371  20.688  0.00  0.00    +0.006 C 
ATOM     32  C   UNL     1      21.247   5.204  22.009  0.00  0.00    +0.004 C 
ENDBRANCH  27  28
ENDBRANCH  26  27
ENDBRANCH  16  24
ENDBRANCH  11  16
TORSDOF 7
ENDMDL
MODEL 10
REMARK VINA RESULT:      -6.3      2.526      5.023
REMARK  Name = 45784004
REMARK  11 active torsions:
REMARK  status: ('A' for Active; 'I' for Inactive)
REMARK    1  A    between atoms: N_2  and  C_13
REMARK    2  A    between atoms: C_8  and  C_12
REMARK    3  A    between atoms: C_9  and  C_13
REMARK    4  A    between atoms: C_11  and  C_16
REMARK    5  A    between atoms: C_12  and  C_17
REMARK    6  A    between atoms: C_12  and  C_18
REMARK    7  A    between atoms: C_15  and  C_21
REMARK    8  A    between atoms: C_16  and  C_24
REMARK    9  A    between atoms: C_26  and  C_27
REMARK   10  A    between atoms: C_27  and  C_28
REMARK   11  A    between atoms: C_28  and  C_32
REMARK                            x       y       z     vdW  Elec       q    Type
REMARK                         _______ _______ _______ _____ _____    ______ ____
ROOT
ATOM      8  C   UNL     1      12.738   8.764  21.649  0.00  0.00    +0.000 C 
ATOM      9  C   UNL     1      13.952   9.429  20.959  0.00  0.00    +0.029 C 
ATOM     10  C   UNL     1      12.043   9.759  22.590  0.00  0.00    +0.012 C 
ATOM     11  C   UNL     1      11.586  11.053  21.882  0.00  0.00    +0.024 C 
ATOM     14  C   UNL     1      13.648  10.821  20.466  0.00  0.00    -0.023 C 
ATOM     15  C   UNL     1      12.591  11.557  20.856  0.00  0.00    -0.073 C 
ATOM     21  C   UNL     1      12.334  12.903  20.235  0.00  0.00    +0.039 C 
ENDROOT
BRANCH   8  12
ATOM     12  C   UNL     1      11.753   8.193  20.619  0.00  0.00    -0.013 C 
ATOM     17  C   UNL     1      12.494   7.348  19.588  0.00  0.00    +0.007 C 
ATOM     18  C   UNL     1      10.672   7.373  21.316  0.00  0.00    +0.007 C 
ENDBRANCH   8  12
BRANCH   9  13
ATOM     13  C   UNL     1      15.172   9.478  21.885  0.00  0.00    +0.092 C 
BRANCH  13   2
ATOM      2  N   UNL     1      16.350   8.927  21.216  0.00  0.00    -0.299 NA
ATOM      3  N   UNL     1      18.770   7.422  21.016  0.00  0.00    -0.297 N 
ATOM      6  N   UNL     1      21.086   7.490  20.721  0.00  0.00    -0.223 NA
ATOM      7  N   UNL     1      19.891   5.398  20.704  0.00  0.00    -0.223 NA
ATOM     19  C   UNL     1      16.317   7.460  21.241  0.00  0.00    +0.103 C 
ATOM     20  C   UNL     1      17.580   9.410  21.858  0.00  0.00    +0.103 C 
ATOM     22  C   UNL     1      17.517   6.870  20.494  0.00  0.00    +0.123 C 
ATOM     23  C   UNL     1      18.821   8.885  21.130  0.00  0.00    +0.123 C 
ATOM     25  C   UNL     1      19.971   6.738  20.804  0.00  0.00    +0.218 A 
ATOM     29  C   UNL     1      22.225   6.798  20.516  0.00  0.00    +0.116 A 
ATOM     30  C   UNL     1      21.067   4.770  20.499  0.00  0.00    +0.116 A 
ATOM     31  C   UNL     1      22.278   5.425  20.396  0.00  0.00    +0.039 A 
ENDBRANCH  13   2
ENDBRANCH   9  13
BRANCH  11  16
ATOM     16  C   UNL     1      11.247  12.102  22.949  0.00  0.00    +0.105 C 
BRANCH  16  24
ATOM      1  O   UNL     1      13.515  12.357  23.812  0.00  0.00    -0.425 OA
ATOM      4  N   UNL     1      12.011  11.757  25.356  0.00  0.00    -0.112 NA
ATOM      5  N   UNL     1      13.241  11.865  25.977  0.00  0.00    -0.112 NA
ATOM     24  C   UNL     1      12.218  12.053  24.094  0.00  0.00    +0.218 A 
ATOM     26  C   UNL     1      14.088  12.216  25.038  0.00  0.00    +0.217 A 
BRANCH  26  27
ATOM     27  C   UNL     1      15.531  12.475  25.130  0.00  0.00    +0.097 C 
BRANCH  27  28
ATOM     28  C   UNL     1      16.235  12.466  23.756  0.00  0.00    +0.006 C 
ATOM     32  C   UNL     1      17.746  12.595  23.868  0.00  0.00    +0.004 C 
ENDBRANCH  27  28
ENDBRANCH  26  27
ENDBRANCH  16  24
ENDBRANCH  11  16
TORSDOF 7
ENDMDL
