MODEL 1
REMARK VINA RESULT:      -6.9      0.000      0.000
REMARK  Name = 75536035
REMARK  8 active torsions:
REMARK  status: ('A' for Active; 'I' for Inactive)
REMARK    1  A    between atoms: O_5  and  C_31
REMARK    2  A    between atoms: O_5  and  C_36
REMARK    3  A    between atoms: N_11  and  C_27
REMARK    4  A    between atoms: C_13  and  C_18
REMARK    5  A    between atoms: C_14  and  C_23
REMARK    6  A    between atoms: C_27  and  C_30
REMARK    7  A    between atoms: C_27  and  C_31
REMARK    8  A    between atoms: C_30  and  C_32
REMARK                            x       y       z     vdW  Elec       q    Type
REMARK                         _______ _______ _______ _____ _____    ______ ____
ROOT
ATOM      1  O   UNL     1      15.481   6.220  19.329  0.00  0.00    -0.275 OA
ATOM      2  O   UNL     1      21.464  11.139  25.026  0.00  0.00    -0.377 OA
ATOM      4  O   UNL     1      20.098   6.474  23.917  0.00  0.00    -0.252 OA
ATOM      7  N   UNL     1      17.006   7.504  20.525  0.00  0.00    -0.298 N 
ATOM      8  N   UNL     1      19.441   7.666  22.048  0.00  0.00    -0.271 N 
ATOM     10  N   UNL     1      20.581   8.726  23.867  0.00  0.00    -0.281 N 
ATOM     14  C   UNL     1      19.095   6.443  21.312  0.00  0.00    +0.181 C 
ATOM     15  C   UNL     1      18.154   6.692  20.132  0.00  0.00    +0.139 C 
ATOM     16  C   UNL     1      17.286   8.656  21.390  0.00  0.00    +0.127 C 
ATOM     17  C   UNL     1      18.782   8.898  21.588  0.00  0.00    +0.129 C 
ATOM     18  C   UNL     1      15.731   7.184  20.056  0.00  0.00    +0.219 C 
ATOM     24  C   UNL     1      20.041   7.555  23.317  0.00  0.00    +0.306 C 
ATOM     25  C   UNL     1      21.515   9.606  23.155  0.00  0.00    +0.137 C 
ATOM     26  C   UNL     1      20.617   8.884  25.320  0.00  0.00    +0.137 C 
ATOM     28  C   UNL     1      21.329  11.047  23.604  0.00  0.00    +0.179 C 
ATOM     29  C   UNL     1      20.472  10.353  25.692  0.00  0.00    +0.179 C 
ENDROOT
BRANCH  18  13
ATOM      9  N   UNL     1      12.140   7.438  19.066  0.00  0.00    -0.316 NA
ATOM     13  C   UNL     1      14.621   8.102  20.483  0.00  0.00    +0.078 C 
ATOM     19  C   UNL     1      14.105   8.923  19.299  0.00  0.00    +0.028 C 
ATOM     20  C   UNL     1      13.485   7.315  21.139  0.00  0.00    +0.028 C 
ATOM     21  C   UNL     1      13.237   8.092  18.353  0.00  0.00    +0.081 C 
ATOM     22  C   UNL     1      12.642   6.552  20.116  0.00  0.00    +0.081 C 
ATOM     38  H   UNL     1      11.582   6.898  18.407  0.00  0.00    +0.122 HD
ENDBRANCH  18  13
BRANCH  14  23
ATOM      3  O   UNL     1      20.490   4.759  20.356  0.00  0.00    -0.274 OA
ATOM     11  N   UNL     1      21.427   6.816  20.919  0.00  0.00    -0.301 N 
ATOM     23  C   UNL     1      20.394   5.900  20.801  0.00  0.00    +0.236 C 
ATOM     39  H   UNL     1      21.236   7.727  21.325  0.00  0.00    +0.150 HD
BRANCH  11  27
ATOM     27  C   UNL     1      22.786   6.529  20.518  0.00  0.00    +0.186 C 
BRANCH  27  31
ATOM      6  O   UNL     1      24.711   7.953  20.189  0.00  0.00    -0.249 OA
ATOM     31  C   UNL     1      23.509   7.773  20.017  0.00  0.00    +0.328 C 
BRANCH  31   5
ATOM      5  O   UNL     1      22.667   8.638  19.388  0.00  0.00    -0.467 OA
ATOM     36  C   UNL     1      22.905  10.027  19.635  0.00  0.00    +0.280 C 
ENDBRANCH  31   5
ENDBRANCH  27  31
BRANCH  27  30
ATOM     30  C   UNL     1      23.570   5.815  21.628  0.00  0.00    +0.070 C 
BRANCH  30  32
ATOM     12  N   UNL     1      24.700   2.630  19.907  0.00  0.00    -0.263 NA
ATOM     32  C   UNL     1      23.834   4.348  21.372  0.00  0.00    -0.027 A 
ATOM     33  C   UNL     1      23.478   3.382  22.306  0.00  0.00    +0.006 A 
ATOM     34  C   UNL     1      24.436   3.924  20.198  0.00  0.00    +0.114 A 
ATOM     35  C   UNL     1      23.733   2.040  22.042  0.00  0.00    +0.020 A 
ATOM     37  C   UNL     1      24.340   1.720  20.839  0.00  0.00    +0.111 A 
ENDBRANCH  30  32
ENDBRANCH  27  30
ENDBRANCH  11  27
ENDBRANCH  14  23
TORSDOF 7
ENDMDL
MODEL 2
REMARK VINA RESULT:      -6.8      5.247      8.955
REMARK  Name = 75536035
REMARK  8 active torsions:
REMARK  status: ('A' for Active; 'I' for Inactive)
REMARK    1  A    between atoms: O_5  and  C_31
REMARK    2  A    between atoms: O_5  and  C_36
REMARK    3  A    between atoms: N_11  and  C_27
REMARK    4  A    between atoms: C_13  and  C_18
REMARK    5  A    between atoms: C_14  and  C_23
REMARK    6  A    between atoms: C_27  and  C_30
REMARK    7  A    between atoms: C_27  and  C_31
REMARK    8  A    between atoms: C_30  and  C_32
REMARK                            x       y       z     vdW  Elec       q    Type
REMARK                         _______ _______ _______ _____ _____    ______ ____
ROOT
ATOM      1  O   UNL     1      14.812  11.098  13.404  0.00  0.00    -0.275 OA
ATOM      2  O   UNL     1      14.480  12.646  22.888  0.00  0.00    -0.377 OA
ATOM      4  O   UNL     1      12.090  10.207  19.255  0.00  0.00    -0.252 OA
ATOM      7  N   UNL     1      14.938  11.400  15.706  0.00  0.00    -0.298 N 
ATOM      8  N   UNL     1      14.190  10.556  18.353  0.00  0.00    -0.271 N 
ATOM     10  N   UNL     1      13.660  11.247  20.583  0.00  0.00    -0.281 N 
ATOM     14  C   UNL     1      13.897   9.715  17.184  0.00  0.00    +0.181 C 
ATOM     15  C   UNL     1      14.832   9.973  16.002  0.00  0.00    +0.139 C 
ATOM     16  C   UNL     1      15.081  12.297  16.858  0.00  0.00    +0.127 C 
ATOM     17  C   UNL     1      15.265  11.545  18.175  0.00  0.00    +0.129 C 
ATOM     18  C   UNL     1      14.930  11.839  14.381  0.00  0.00    +0.219 C 
ATOM     24  C   UNL     1      13.240  10.646  19.388  0.00  0.00    +0.306 C 
ATOM     25  C   UNL     1      14.877  10.858  21.307  0.00  0.00    +0.137 C 
ATOM     26  C   UNL     1      12.685  11.952  21.411  0.00  0.00    +0.137 C 
ATOM     28  C   UNL     1      15.466  12.060  22.031  0.00  0.00    +0.179 C 
ATOM     29  C   UNL     1      13.354  13.110  22.139  0.00  0.00    +0.179 C 
ENDROOT
BRANCH  18  13
ATOM      9  N   UNL     1      13.825  14.147  11.661  0.00  0.00    -0.316 NA
ATOM     13  C   UNL     1      15.085  13.320  14.177  0.00  0.00    +0.078 C 
ATOM     19  C   UNL     1      15.892  13.616  12.911  0.00  0.00    +0.028 C 
ATOM     20  C   UNL     1      13.720  14.010  14.129  0.00  0.00    +0.028 C 
ATOM     21  C   UNL     1      15.076  13.389  11.638  0.00  0.00    +0.081 C 
ATOM     22  C   UNL     1      12.995  13.767  12.805  0.00  0.00    +0.081 C 
ATOM     38  H   UNL     1      13.309  13.975  10.799  0.00  0.00    +0.122 HD
ENDBRANCH  18  13
BRANCH  14  23
ATOM      3  O   UNL     1      13.649   7.348  17.007  0.00  0.00    -0.274 OA
ATOM     11  N   UNL     1      14.730   8.232  18.870  0.00  0.00    -0.301 N 
ATOM     23  C   UNL     1      14.073   8.303  17.653  0.00  0.00    +0.236 C 
ATOM     39  H   UNL     1      15.017   9.093  19.328  0.00  0.00    +0.150 HD
BRANCH  11  27
ATOM     27  C   UNL     1      15.004   6.986  19.549  0.00  0.00    +0.186 C 
BRANCH  27  31
ATOM      6  O   UNL     1      16.708   5.563  18.596  0.00  0.00    -0.249 OA
ATOM     31  C   UNL     1      16.434   6.512  19.322  0.00  0.00    +0.328 C 
BRANCH  31   5
ATOM      5  O   UNL     1      17.336   7.251  20.025  0.00  0.00    -0.467 OA
ATOM     36  C   UNL     1      18.010   6.563  21.085  0.00  0.00    +0.280 C 
ENDBRANCH  31   5
ENDBRANCH  27  31
BRANCH  27  30
ATOM     30  C   UNL     1      14.651   7.059  21.042  0.00  0.00    +0.070 C 
BRANCH  30  32
ATOM     12  N   UNL     1      10.922   6.372  21.086  0.00  0.00    -0.263 NA
ATOM     32  C   UNL     1      13.176   7.212  21.336  0.00  0.00    -0.027 A 
ATOM     33  C   UNL     1      12.702   8.278  22.091  0.00  0.00    +0.006 A 
ATOM     34  C   UNL     1      12.253   6.294  20.860  0.00  0.00    +0.114 A 
ATOM     35  C   UNL     1      11.339   8.392  22.345  0.00  0.00    +0.020 A 
ATOM     37  C   UNL     1      10.499   7.421  21.824  0.00  0.00    +0.111 A 
ENDBRANCH  30  32
ENDBRANCH  27  30
ENDBRANCH  11  27
ENDBRANCH  14  23
TORSDOF 7
ENDMDL
MODEL 3
REMARK VINA RESULT:      -6.7     15.727     19.998
REMARK  Name = 75536035
REMARK  8 active torsions:
REMARK  status: ('A' for Active; 'I' for Inactive)
REMARK    1  A    between atoms: O_5  and  C_31
REMARK    2  A    between atoms: O_5  and  C_36
REMARK    3  A    between atoms: N_11  and  C_27
REMARK    4  A    between atoms: C_13  and  C_18
REMARK    5  A    between atoms: C_14  and  C_23
REMARK    6  A    between atoms: C_27  and  C_30
REMARK    7  A    between atoms: C_27  and  C_31
REMARK    8  A    between atoms: C_30  and  C_32
REMARK                            x       y       z     vdW  Elec       q    Type
REMARK                         _______ _______ _______ _____ _____    ______ ____
ROOT
ATOM      1  O   UNL     1      19.049   8.893   4.196  0.00  0.00    -0.275 OA
ATOM      2  O   UNL     1      10.209   7.252   7.605  0.00  0.00    -0.377 OA
ATOM      4  O   UNL     1      12.575   9.516   3.845  0.00  0.00    -0.252 OA
ATOM      7  N   UNL     1      16.960   8.282   5.015  0.00  0.00    -0.298 N 
ATOM      8  N   UNL     1      14.132   7.977   4.587  0.00  0.00    -0.271 N 
ATOM     10  N   UNL     1      11.949   8.111   5.561  0.00  0.00    -0.281 N 
ATOM     14  C   UNL     1      15.037   8.257   3.464  0.00  0.00    +0.181 C 
ATOM     15  C   UNL     1      16.477   7.810   3.720  0.00  0.00    +0.139 C 
ATOM     16  C   UNL     1      16.030   8.162   6.143  0.00  0.00    +0.127 C 
ATOM     17  C   UNL     1      14.760   7.394   5.783  0.00  0.00    +0.129 C 
ATOM     18  C   UNL     1      18.256   8.786   5.134  0.00  0.00    +0.219 C 
ATOM     24  C   UNL     1      12.867   8.595   4.618  0.00  0.00    +0.306 C 
ATOM     25  C   UNL     1      11.608   6.691   5.712  0.00  0.00    +0.137 C 
ATOM     26  C   UNL     1      10.945   9.018   6.113  0.00  0.00    +0.137 C 
ATOM     28  C   UNL     1      11.258   6.385   7.160  0.00  0.00    +0.179 C 
ATOM     29  C   UNL     1      10.612   8.622   7.545  0.00  0.00    +0.179 C 
ENDROOT
BRANCH  18  13
ATOM      9  N   UNL     1      21.424  10.234   6.482  0.00  0.00    -0.316 NA
ATOM     13  C   UNL     1      18.676   9.208   6.514  0.00  0.00    +0.078 C 
ATOM     19  C   UNL     1      19.868   8.381   7.000  0.00  0.00    +0.028 C 
ATOM     20  C   UNL     1      18.996  10.704   6.553  0.00  0.00    +0.028 C 
ATOM     21  C   UNL     1      21.176   8.800   6.327  0.00  0.00    +0.081 C 
ATOM     22  C   UNL     1      20.341  11.026   5.899  0.00  0.00    +0.081 C 
ATOM     38  H   UNL     1      22.302  10.476   6.026  0.00  0.00    +0.122 HD
ENDBRANCH  18  13
BRANCH  14  23
ATOM      3  O   UNL     1      14.011   8.055   1.318  0.00  0.00    -0.274 OA
ATOM     11  N   UNL     1      14.552   6.121   2.496  0.00  0.00    -0.301 N 
ATOM     23  C   UNL     1      14.482   7.490   2.302  0.00  0.00    +0.236 C 
ATOM     39  H   UNL     1      14.943   5.764   3.363  0.00  0.00    +0.150 HD
BRANCH  11  27
ATOM     27  C   UNL     1      14.062   5.160   1.534  0.00  0.00    +0.186 C 
BRANCH  27  31
ATOM      6  O   UNL     1      15.054   3.028   2.090  0.00  0.00    -0.249 OA
ATOM     31  C   UNL     1      15.029   3.999   1.340  0.00  0.00    +0.328 C 
BRANCH  31   5
ATOM      5  O   UNL     1      15.847   4.186   0.268  0.00  0.00    -0.467 OA
ATOM     36  C   UNL     1      15.189   4.442  -0.977  0.00  0.00    +0.280 C 
ENDBRANCH  31   5
ENDBRANCH  27  31
BRANCH  27  30
ATOM     30  C   UNL     1      12.645   4.678   1.877  0.00  0.00    +0.070 C 
BRANCH  30  32
ATOM     12  N   UNL     1      10.524   4.179  -1.227  0.00  0.00    -0.263 NA
ATOM     32  C   UNL     1      11.615   4.925   0.798  0.00  0.00    -0.027 A 
ATOM     33  C   UNL     1      10.828   6.072   0.807  0.00  0.00    +0.006 A 
ATOM     34  C   UNL     1      11.426   4.018  -0.232  0.00  0.00    +0.114 A 
ATOM     35  C   UNL     1       9.889   6.272  -0.199  0.00  0.00    +0.020 A 
ATOM     37  C   UNL     1       9.778   5.304  -1.184  0.00  0.00    +0.111 A 
ENDBRANCH  30  32
ENDBRANCH  27  30
ENDBRANCH  11  27
ENDBRANCH  14  23
TORSDOF 7
ENDMDL
MODEL 4
REMARK VINA RESULT:      -6.5     29.012     33.631
REMARK  Name = 75536035
REMARK  8 active torsions:
REMARK  status: ('A' for Active; 'I' for Inactive)
REMARK    1  A    between atoms: O_5  and  C_31
REMARK    2  A    between atoms: O_5  and  C_36
REMARK    3  A    between atoms: N_11  and  C_27
REMARK    4  A    between atoms: C_13  and  C_18
REMARK    5  A    between atoms: C_14  and  C_23
REMARK    6  A    between atoms: C_27  and  C_30
REMARK    7  A    between atoms: C_27  and  C_31
REMARK    8  A    between atoms: C_30  and  C_32
REMARK                            x       y       z     vdW  Elec       q    Type
REMARK                         _______ _______ _______ _____ _____    ______ ____
ROOT
ATOM      1  O   UNL     1     -11.229  -8.905  16.038  0.00  0.00    -0.275 OA
ATOM      2  O   UNL     1      -6.908 -10.462   7.591  0.00  0.00    -0.377 OA
ATOM      4  O   UNL     1      -5.988  -8.727  12.174  0.00  0.00    -0.252 OA
ATOM      7  N   UNL     1     -10.250  -9.490  14.012  0.00  0.00    -0.298 N 
ATOM      8  N   UNL     1      -7.875 -10.027  12.479  0.00  0.00    -0.271 N 
ATOM     10  N   UNL     1      -6.809  -9.858  10.342  0.00  0.00    -0.281 N 
ATOM     14  C   UNL     1      -7.812  -9.887  13.940  0.00  0.00    +0.181 C 
ATOM     15  C   UNL     1      -9.137 -10.200  14.637  0.00  0.00    +0.139 C 
ATOM     16  C   UNL     1     -10.273  -9.473  12.545  0.00  0.00    +0.127 C 
ATOM     17  C   UNL     1      -9.196 -10.363  11.926  0.00  0.00    +0.129 C 
ATOM     18  C   UNL     1     -11.234  -8.899  14.806  0.00  0.00    +0.219 C 
ATOM     24  C   UNL     1      -6.839  -9.487  11.694  0.00  0.00    +0.306 C 
ATOM     25  C   UNL     1      -6.862 -11.250   9.878  0.00  0.00    +0.137 C 
ATOM     26  C   UNL     1      -6.256  -8.931   9.357  0.00  0.00    +0.137 C 
ATOM     28  C   UNL     1      -7.557 -11.328   8.527  0.00  0.00    +0.179 C 
ATOM     29  C   UNL     1      -6.966  -9.099   8.021  0.00  0.00    +0.179 C 
ENDROOT
BRANCH  18  13
ATOM      9  N   UNL     1     -13.969  -6.611  15.914  0.00  0.00    -0.316 NA
ATOM     13  C   UNL     1     -12.359  -8.228  14.070  0.00  0.00    +0.078 C 
ATOM     19  C   UNL     1     -13.716  -8.694  14.603  0.00  0.00    +0.028 C 
ATOM     20  C   UNL     1     -12.233  -6.705  14.154  0.00  0.00    +0.028 C 
ATOM     21  C   UNL     1     -14.050  -8.071  15.960  0.00  0.00    +0.081 C 
ATOM     22  C   UNL     1     -12.630  -6.165  15.529  0.00  0.00    +0.081 C 
ATOM     38  H   UNL     1     -14.201  -6.231  16.831  0.00  0.00    +0.122 HD
ENDBRANCH  18  13
BRANCH  14  23
ATOM      3  O   UNL     1      -6.890 -12.075  14.187  0.00  0.00    -0.274 OA
ATOM     11  N   UNL     1      -5.728 -10.256  15.061  0.00  0.00    -0.301 N 
ATOM     23  C   UNL     1      -6.774 -10.869  14.392  0.00  0.00    +0.236 C 
ATOM     39  H   UNL     1      -5.748  -9.249  15.193  0.00  0.00    +0.150 HD
BRANCH  11  27
ATOM     27  C   UNL     1      -4.611 -10.984  15.617  0.00  0.00    +0.186 C 
BRANCH  27  31
ATOM      6  O   UNL     1      -3.336 -10.367  13.659  0.00  0.00    -0.249 OA
ATOM     31  C   UNL     1      -3.331 -10.769  14.818  0.00  0.00    +0.328 C 
BRANCH  31   5
ATOM      5  O   UNL     1      -2.219 -11.089  15.535  0.00  0.00    -0.467 OA
ATOM     36  C   UNL     1      -1.160 -10.126  15.501  0.00  0.00    +0.280 C 
ENDBRANCH  31   5
ENDBRANCH  27  31
BRANCH  27  30
ATOM     30  C   UNL     1      -4.415 -10.680  17.109  0.00  0.00    +0.070 C 
BRANCH  30  32
ATOM     12  N   UNL     1      -6.890 -10.924  19.973  0.00  0.00    -0.263 NA
ATOM     32  C   UNL     1      -5.506 -11.213  18.011  0.00  0.00    -0.027 A 
ATOM     33  C   UNL     1      -6.121 -12.432  17.748  0.00  0.00    +0.006 A 
ATOM     34  C   UNL     1      -5.922 -10.504  19.126  0.00  0.00    +0.114 A 
ATOM     35  C   UNL     1      -7.120 -12.897  18.597  0.00  0.00    +0.020 A 
ATOM     37  C   UNL     1      -7.464 -12.113  19.685  0.00  0.00    +0.111 A 
ENDBRANCH  30  32
ENDBRANCH  27  30
ENDBRANCH  11  27
ENDBRANCH  14  23
TORSDOF 7
ENDMDL
MODEL 5
REMARK VINA RESULT:      -6.5      1.522      2.044
REMARK  Name = 75536035
REMARK  8 active torsions:
REMARK  status: ('A' for Active; 'I' for Inactive)
REMARK    1  A    between atoms: O_5  and  C_31
REMARK    2  A    between atoms: O_5  and  C_36
REMARK    3  A    between atoms: N_11  and  C_27
REMARK    4  A    between atoms: C_13  and  C_18
REMARK    5  A    between atoms: C_14  and  C_23
REMARK    6  A    between atoms: C_27  and  C_30
REMARK    7  A    between atoms: C_27  and  C_31
REMARK    8  A    between atoms: C_30  and  C_32
REMARK                            x       y       z     vdW  Elec       q    Type
REMARK                         _______ _______ _______ _____ _____    ______ ____
ROOT
ATOM      1  O   UNL     1      15.529   6.160  20.022  0.00  0.00    -0.275 OA
ATOM      2  O   UNL     1      21.372  12.738  23.901  0.00  0.00    -0.377 OA
ATOM      4  O   UNL     1      20.163   7.913  24.252  0.00  0.00    -0.252 OA
ATOM      7  N   UNL     1      17.016   7.789  20.758  0.00  0.00    -0.298 N 
ATOM      8  N   UNL     1      19.453   8.474  22.124  0.00  0.00    -0.271 N 
ATOM     10  N   UNL     1      20.566  10.063  23.527  0.00  0.00    -0.281 N 
ATOM     14  C   UNL     1      19.145   7.077  21.790  0.00  0.00    +0.181 C 
ATOM     15  C   UNL     1      18.190   6.933  20.605  0.00  0.00    +0.139 C 
ATOM     16  C   UNL     1      17.261   9.155  21.236  0.00  0.00    +0.127 C 
ATOM     17  C   UNL     1      18.748   9.491  21.329  0.00  0.00    +0.129 C 
ATOM     18  C   UNL     1      15.751   7.303  20.426  0.00  0.00    +0.219 C 
ATOM     24  C   UNL     1      20.064   8.764  23.359  0.00  0.00    +0.306 C 
ATOM     25  C   UNL     1      21.465  10.720  22.569  0.00  0.00    +0.137 C 
ATOM     26  C   UNL     1      20.606  10.647  24.866  0.00  0.00    +0.137 C 
ATOM     28  C   UNL     1      21.231  12.223  22.573  0.00  0.00    +0.179 C 
ATOM     29  C   UNL     1      20.412  12.155  24.786  0.00  0.00    +0.179 C 
ENDROOT
BRANCH  18  13
ATOM      9  N   UNL     1      12.110   7.070  19.628  0.00  0.00    -0.316 NA
ATOM     13  C   UNL     1      14.611   8.272  20.578  0.00  0.00    +0.078 C 
ATOM     19  C   UNL     1      13.999   8.614  19.218  0.00  0.00    +0.028 C 
ATOM     20  C   UNL     1      13.550   7.719  21.532  0.00  0.00    +0.028 C 
ATOM     21  C   UNL     1      13.137   7.476  18.668  0.00  0.00    +0.081 C 
ATOM     22  C   UNL     1      12.706   6.620  20.885  0.00  0.00    +0.081 C 
ATOM     38  H   UNL     1      11.554   6.315  19.228  0.00  0.00    +0.122 HD
ENDBRANCH  18  13
BRANCH  14  23
ATOM      3  O   UNL     1      20.961   6.568  20.327  0.00  0.00    -0.274 OA
ATOM     11  N   UNL     1      20.992   5.728  22.499  0.00  0.00    -0.301 N 
ATOM     23  C   UNL     1      20.460   6.448  21.443  0.00  0.00    +0.236 C 
ATOM     39  H   UNL     1      20.477   5.678  23.373  0.00  0.00    +0.150 HD
BRANCH  11  27
ATOM     27  C   UNL     1      22.242   5.007  22.413  0.00  0.00    +0.186 C 
BRANCH  27  31
ATOM      6  O   UNL     1      23.810   5.763  24.089  0.00  0.00    -0.249 OA
ATOM     31  C   UNL     1      23.415   5.831  22.930  0.00  0.00    +0.328 C 
BRANCH  31   5
ATOM      5  O   UNL     1      23.938   6.639  21.967  0.00  0.00    -0.467 OA
ATOM     36  C   UNL     1      24.391   5.978  20.781  0.00  0.00    +0.280 C 
ENDBRANCH  31   5
ENDBRANCH  27  31
BRANCH  27  30
ATOM     30  C   UNL     1      22.158   3.634  23.095  0.00  0.00    +0.070 C 
BRANCH  30  32
ATOM     12  N   UNL     1      24.773   0.888  23.115  0.00  0.00    -0.263 NA
ATOM     32  C   UNL     1      23.166   2.621  22.602  0.00  0.00    -0.027 A 
ATOM     33  C   UNL     1      23.429   2.472  21.245  0.00  0.00    +0.006 A 
ATOM     34  C   UNL     1      23.859   1.812  23.489  0.00  0.00    +0.114 A 
ATOM     35  C   UNL     1      24.362   1.532  20.822  0.00  0.00    +0.020 A 
ATOM     37  C   UNL     1      25.001   0.772  21.788  0.00  0.00    +0.111 A 
ENDBRANCH  30  32
ENDBRANCH  27  30
ENDBRANCH  11  27
ENDBRANCH  14  23
TORSDOF 7
ENDMDL
MODEL 6
REMARK VINA RESULT:      -6.4     15.050     18.688
REMARK  Name = 75536035
REMARK  8 active torsions:
REMARK  status: ('A' for Active; 'I' for Inactive)
REMARK    1  A    between atoms: O_5  and  C_31
REMARK    2  A    between atoms: O_5  and  C_36
REMARK    3  A    between atoms: N_11  and  C_27
REMARK    4  A    between atoms: C_13  and  C_18
REMARK    5  A    between atoms: C_14  and  C_23
REMARK    6  A    between atoms: C_27  and  C_30
REMARK    7  A    between atoms: C_27  and  C_31
REMARK    8  A    between atoms: C_30  and  C_32
REMARK                            x       y       z     vdW  Elec       q    Type
REMARK                         _______ _______ _______ _____ _____    ______ ____
ROOT
ATOM      1  O   UNL     1       8.588  11.143  10.450  0.00  0.00    -0.275 OA
ATOM      2  O   UNL     1      15.937   8.744   4.731  0.00  0.00    -0.377 OA
ATOM      4  O   UNL     1      12.224   6.706   7.363  0.00  0.00    -0.252 OA
ATOM      7  N   UNL     1      10.279  10.697   8.917  0.00  0.00    -0.298 N 
ATOM      8  N   UNL     1      11.508   8.883   7.054  0.00  0.00    -0.271 N 
ATOM     10  N   UNL     1      13.561   8.098   6.105  0.00  0.00    -0.281 N 
ATOM     14  C   UNL     1      10.184   8.595   7.621  0.00  0.00    +0.181 C 
ATOM     15  C   UNL     1       9.436   9.847   8.080  0.00  0.00    +0.139 C 
ATOM     16  C   UNL     1      11.662  10.892   8.468  0.00  0.00    +0.127 C 
ATOM     17  C   UNL     1      11.924  10.293   7.086  0.00  0.00    +0.129 C 
ATOM     18  C   UNL     1       9.748  11.296  10.060  0.00  0.00    +0.219 C 
ATOM     24  C   UNL     1      12.421   7.826   6.874  0.00  0.00    +0.306 C 
ATOM     25  C   UNL     1      13.517   8.706   4.769  0.00  0.00    +0.137 C 
ATOM     26  C   UNL     1      14.800   7.373   6.379  0.00  0.00    +0.137 C 
ATOM     28  C   UNL     1      14.765   9.542   4.529  0.00  0.00    +0.179 C 
ATOM     29  C   UNL     1      16.003   8.254   6.073  0.00  0.00    +0.179 C 
ENDROOT
BRANCH  18  13
ATOM      9  N   UNL     1       9.164  14.072  12.489  0.00  0.00    -0.316 NA
ATOM     13  C   UNL     1      10.681  12.185  10.833  0.00  0.00    +0.078 C 
ATOM     19  C   UNL     1      10.489  13.652  10.442  0.00  0.00    +0.028 C 
ATOM     20  C   UNL     1      10.494  11.991  12.340  0.00  0.00    +0.028 C 
ATOM     21  C   UNL     1       9.211  14.247  11.037  0.00  0.00    +0.081 C 
ATOM     22  C   UNL     1       9.217  12.657  12.855  0.00  0.00    +0.081 C 
ATOM     38  H   UNL     1       8.304  14.483  12.851  0.00  0.00    +0.122 HD
ENDBRANCH  18  13
BRANCH  14  23
ATOM      3  O   UNL     1       8.852   6.852   6.682  0.00  0.00    -0.274 OA
ATOM     11  N   UNL     1       9.437   8.669   5.348  0.00  0.00    -0.301 N 
ATOM     23  C   UNL     1       9.411   7.934   6.521  0.00  0.00    +0.236 C 
ATOM     39  H   UNL     1       9.953   9.543   5.323  0.00  0.00    +0.150 HD
BRANCH  11  27
ATOM     27  C   UNL     1       8.787   8.238   4.131  0.00  0.00    +0.186 C 
BRANCH  27  31
ATOM      6  O   UNL     1       7.171   9.187   2.605  0.00  0.00    -0.249 OA
ATOM     31  C   UNL     1       7.636   9.157   3.740  0.00  0.00    +0.328 C 
BRANCH  31   5
ATOM      5  O   UNL     1       7.219   9.928   4.782  0.00  0.00    -0.467 OA
ATOM     36  C   UNL     1       5.997  10.644   4.573  0.00  0.00    +0.280 C 
ENDBRANCH  31   5
ENDBRANCH  27  31
BRANCH  27  30
ATOM     30  C   UNL     1       9.789   8.049   2.984  0.00  0.00    +0.070 C 
BRANCH  30  32
ATOM     12  N   UNL     1      10.367   4.864   1.008  0.00  0.00    -0.263 NA
ATOM     32  C   UNL     1      10.120   6.609   2.664  0.00  0.00    -0.027 A 
ATOM     33  C   UNL     1      10.470   5.714   3.669  0.00  0.00    +0.006 A 
ATOM     34  C   UNL     1      10.083   6.138   1.361  0.00  0.00    +0.114 A 
ATOM     35  C   UNL     1      10.768   4.394   3.344  0.00  0.00    +0.020 A 
ATOM     37  C   UNL     1      10.703   4.024   2.011  0.00  0.00    +0.111 A 
ENDBRANCH  30  32
ENDBRANCH  27  30
ENDBRANCH  11  27
ENDBRANCH  14  23
TORSDOF 7
ENDMDL
MODEL 7
REMARK VINA RESULT:      -6.3     29.613     34.656
REMARK  Name = 75536035
REMARK  8 active torsions:
REMARK  status: ('A' for Active; 'I' for Inactive)
REMARK    1  A    between atoms: O_5  and  C_31
REMARK    2  A    between atoms: O_5  and  C_36
REMARK    3  A    between atoms: N_11  and  C_27
REMARK    4  A    between atoms: C_13  and  C_18
REMARK    5  A    between atoms: C_14  and  C_23
REMARK    6  A    between atoms: C_27  and  C_30
REMARK    7  A    between atoms: C_27  and  C_31
REMARK    8  A    between atoms: C_30  and  C_32
REMARK                            x       y       z     vdW  Elec       q    Type
REMARK                         _______ _______ _______ _____ _____    ______ ____
ROOT
ATOM      1  O   UNL     1      -4.939  -9.966  13.881  0.00  0.00    -0.275 OA
ATOM      2  O   UNL     1      -4.636 -13.128   4.805  0.00  0.00    -0.377 OA
ATOM      4  O   UNL     1      -7.854 -11.574   8.282  0.00  0.00    -0.252 OA
ATOM      7  N   UNL     1      -4.723 -10.569  11.646  0.00  0.00    -0.298 N 
ATOM      8  N   UNL     1      -5.845 -10.684   8.999  0.00  0.00    -0.271 N 
ATOM     10  N   UNL     1      -6.001 -11.928   6.959  0.00  0.00    -0.281 N 
ATOM     14  C   UNL     1      -6.497  -9.903  10.059  0.00  0.00    +0.181 C 
ATOM     15  C   UNL     1      -5.535  -9.456  11.161  0.00  0.00    +0.139 C 
ATOM     16  C   UNL     1      -4.173 -11.469  10.626  0.00  0.00    +0.127 C 
ATOM     17  C   UNL     1      -4.416 -10.970   9.203  0.00  0.00    +0.129 C 
ATOM     18  C   UNL     1      -4.484 -10.714  13.013  0.00  0.00    +0.219 C 
ATOM     24  C   UNL     1      -6.642 -11.409   8.093  0.00  0.00    +0.306 C 
ATOM     25  C   UNL     1      -5.157 -11.128   6.063  0.00  0.00    +0.137 C 
ATOM     26  C   UNL     1      -6.509 -13.154   6.348  0.00  0.00    +0.137 C 
ATOM     28  C   UNL     1      -4.060 -11.993   5.461  0.00  0.00    +0.179 C 
ATOM     29  C   UNL     1      -5.364 -13.943   5.727  0.00  0.00    +0.179 C 
ENDROOT
BRANCH  18  13
ATOM      9  N   UNL     1      -2.309 -11.327  15.986  0.00  0.00    -0.316 NA
ATOM     13  C   UNL     1      -3.604 -11.866  13.410  0.00  0.00    +0.078 C 
ATOM     19  C   UNL     1      -2.143 -11.425  13.520  0.00  0.00    +0.028 C 
ATOM     20  C   UNL     1      -4.086 -12.494  14.720  0.00  0.00    +0.028 C 
ATOM     21  C   UNL     1      -1.878 -10.610  14.786  0.00  0.00    +0.081 C 
ATOM     22  C   UNL     1      -3.739 -11.633  15.936  0.00  0.00    +0.081 C 
ATOM     38  H   UNL     1      -2.115 -10.757  16.808  0.00  0.00    +0.122 HD
ENDBRANCH  18  13
BRANCH  14  23
ATOM      3  O   UNL     1      -6.354  -7.739   9.061  0.00  0.00    -0.274 OA
ATOM     11  N   UNL     1      -8.428  -8.791   9.183  0.00  0.00    -0.301 N 
ATOM     23  C   UNL     1      -7.060  -8.694   9.376  0.00  0.00    +0.236 C 
ATOM     39  H   UNL     1      -8.915  -9.621   9.506  0.00  0.00    +0.150 HD
BRANCH  11  27
ATOM     27  C   UNL     1      -9.215  -7.747   8.567  0.00  0.00    +0.186 C 
BRANCH  27  31
ATOM      6  O   UNL     1     -10.260  -8.595   6.560  0.00  0.00    -0.249 OA
ATOM     31  C   UNL     1      -9.350  -7.944   7.062  0.00  0.00    +0.328 C 
BRANCH  31   5
ATOM      5  O   UNL     1      -8.347  -7.333   6.373  0.00  0.00    -0.467 OA
ATOM     36  C   UNL     1      -7.485  -8.202   5.630  0.00  0.00    +0.280 C 
ENDBRANCH  31   5
ENDBRANCH  27  31
BRANCH  27  30
ATOM     30  C   UNL     1     -10.580  -7.581   9.250  0.00  0.00    +0.070 C 
BRANCH  30  32
ATOM     12  N   UNL     1     -12.308  -4.596  10.827  0.00  0.00    -0.263 NA
ATOM     32  C   UNL     1     -10.968  -6.150   9.547  0.00  0.00    -0.027 A 
ATOM     33  C   UNL     1     -10.386  -5.092   8.858  0.00  0.00    +0.006 A 
ATOM     34  C   UNL     1     -11.916  -5.852  10.513  0.00  0.00    +0.114 A 
ATOM     35  C   UNL     1     -10.764  -3.786   9.153  0.00  0.00    +0.020 A 
ATOM     37  C   UNL     1     -11.720  -3.594  10.137  0.00  0.00    +0.111 A 
ENDBRANCH  30  32
ENDBRANCH  27  30
ENDBRANCH  11  27
ENDBRANCH  14  23
TORSDOF 7
ENDMDL
MODEL 8
REMARK VINA RESULT:      -6.3     17.142     21.051
REMARK  Name = 75536035
REMARK  8 active torsions:
REMARK  status: ('A' for Active; 'I' for Inactive)
REMARK    1  A    between atoms: O_5  and  C_31
REMARK    2  A    between atoms: O_5  and  C_36
REMARK    3  A    between atoms: N_11  and  C_27
REMARK    4  A    between atoms: C_13  and  C_18
REMARK    5  A    between atoms: C_14  and  C_23
REMARK    6  A    between atoms: C_27  and  C_30
REMARK    7  A    between atoms: C_27  and  C_31
REMARK    8  A    between atoms: C_30  and  C_32
REMARK                            x       y       z     vdW  Elec       q    Type
REMARK                         _______ _______ _______ _____ _____    ______ ____
ROOT
ATOM      1  O   UNL     1      10.108   3.968  -0.533  0.00  0.00    -0.275 OA
ATOM      2  O   UNL     1      16.215   9.092   4.843  0.00  0.00    -0.377 OA
ATOM      4  O   UNL     1      11.340   8.502   3.979  0.00  0.00    -0.252 OA
ATOM      7  N   UNL     1      11.667   5.017   0.838  0.00  0.00    -0.298 N 
ATOM      8  N   UNL     1      12.246   6.513   3.225  0.00  0.00    -0.271 N 
ATOM     10  N   UNL     1      13.612   8.205   4.227  0.00  0.00    -0.281 N 
ATOM     14  C   UNL     1      10.920   5.916   3.015  0.00  0.00    +0.181 C 
ATOM     15  C   UNL     1      10.940   4.715   2.068  0.00  0.00    +0.139 C 
ATOM     16  C   UNL     1      12.929   5.749   0.987  0.00  0.00    +0.127 C 
ATOM     17  C   UNL     1      13.345   5.920   2.447  0.00  0.00    +0.129 C 
ATOM     18  C   UNL     1      11.166   4.585  -0.391  0.00  0.00    +0.219 C 
ATOM     24  C   UNL     1      12.337   7.787   3.818  0.00  0.00    +0.306 C 
ATOM     25  C   UNL     1      14.501   7.401   5.074  0.00  0.00    +0.137 C 
ATOM     26  C   UNL     1      13.930   9.632   4.230  0.00  0.00    +0.137 C 
ATOM     28  C   UNL     1      15.955   7.689   4.734  0.00  0.00    +0.179 C 
ATOM     29  C   UNL     1      15.408   9.840   3.929  0.00  0.00    +0.179 C 
ENDROOT
BRANCH  18  13
ATOM      9  N   UNL     1      11.374   3.082  -3.804  0.00  0.00    -0.316 NA
ATOM     13  C   UNL     1      12.005   4.907  -1.596  0.00  0.00    +0.078 C 
ATOM     19  C   UNL     1      12.903   3.726  -1.968  0.00  0.00    +0.028 C 
ATOM     20  C   UNL     1      11.125   5.320  -2.778  0.00  0.00    +0.028 C 
ATOM     21  C   UNL     1      12.124   2.597  -2.645  0.00  0.00    +0.081 C 
ATOM     22  C   UNL     1      10.421   4.124  -3.421  0.00  0.00    +0.081 C 
ATOM     38  H   UNL     1      10.872   2.306  -4.231  0.00  0.00    +0.122 HD
ENDBRANCH  18  13
BRANCH  14  23
ATOM      3  O   UNL     1      10.543   4.295   4.726  0.00  0.00    -0.274 OA
ATOM     11  N   UNL     1       9.943   6.510   5.118  0.00  0.00    -0.301 N 
ATOM     23  C   UNL     1      10.464   5.468   4.370  0.00  0.00    +0.236 C 
ATOM     39  H   UNL     1       9.906   7.441   4.712  0.00  0.00    +0.150 HD
BRANCH  11  27
ATOM     27  C   UNL     1       9.412   6.337   6.452  0.00  0.00    +0.186 C 
BRANCH  27  31
ATOM      6  O   UNL     1      11.592   6.904   7.328  0.00  0.00    -0.249 OA
ATOM     31  C   UNL     1      10.507   6.362   7.511  0.00  0.00    +0.328 C 
BRANCH  31   5
ATOM      5  O   UNL     1      10.136   5.708   8.646  0.00  0.00    -0.467 OA
ATOM     36  C   UNL     1       9.793   4.328   8.483  0.00  0.00    +0.280 C 
ENDBRANCH  31   5
ENDBRANCH  27  31
BRANCH  27  30
ATOM     30  C   UNL     1       8.293   7.343   6.757  0.00  0.00    +0.070 C 
BRANCH  30  32
ATOM     12  N   UNL     1       9.639  10.877   6.464  0.00  0.00    -0.263 NA
ATOM     32  C   UNL     1       8.535   8.738   6.225  0.00  0.00    -0.027 A 
ATOM     33  C   UNL     1       7.917   9.179   5.061  0.00  0.00    +0.006 A 
ATOM     34  C   UNL     1       9.380   9.618   6.884  0.00  0.00    +0.114 A 
ATOM     35  C   UNL     1       8.158  10.468   4.597  0.00  0.00    +0.020 A 
ATOM     37  C   UNL     1       9.020  11.270   5.329  0.00  0.00    +0.111 A 
ENDBRANCH  30  32
ENDBRANCH  27  30
ENDBRANCH  11  27
ENDBRANCH  14  23
TORSDOF 7
ENDMDL
MODEL 9
REMARK VINA RESULT:      -6.3     31.157     34.304
REMARK  Name = 75536035
REMARK  8 active torsions:
REMARK  status: ('A' for Active; 'I' for Inactive)
REMARK    1  A    between atoms: O_5  and  C_31
REMARK    2  A    between atoms: O_5  and  C_36
REMARK    3  A    between atoms: N_11  and  C_27
REMARK    4  A    between atoms: C_13  and  C_18
REMARK    5  A    between atoms: C_14  and  C_23
REMARK    6  A    between atoms: C_27  and  C_30
REMARK    7  A    between atoms: C_27  and  C_31
REMARK    8  A    between atoms: C_30  and  C_32
REMARK                            x       y       z     vdW  Elec       q    Type
REMARK                         _______ _______ _______ _____ _____    ______ ____
ROOT
ATOM      1  O   UNL     1      -7.591  -9.892  10.282  0.00  0.00    -0.275 OA
ATOM      2  O   UNL     1      -4.484 -12.939  18.857  0.00  0.00    -0.377 OA
ATOM      4  O   UNL     1      -6.896  -9.137  16.715  0.00  0.00    -0.252 OA
ATOM      7  N   UNL     1      -6.953 -10.813  12.320  0.00  0.00    -0.298 N 
ATOM      8  N   UNL     1      -7.169 -10.852  15.189  0.00  0.00    -0.271 N 
ATOM     10  N   UNL     1      -6.025 -11.198  17.263  0.00  0.00    -0.281 N 
ATOM     14  C   UNL     1      -8.104 -10.063  14.375  0.00  0.00    +0.181 C 
ATOM     15  C   UNL     1      -8.254 -10.587  12.946  0.00  0.00    +0.139 C 
ATOM     16  C   UNL     1      -5.934 -11.465  13.150  0.00  0.00    +0.127 C 
ATOM     17  C   UNL     1      -6.484 -11.950  14.490  0.00  0.00    +0.129 C 
ATOM     18  C   UNL     1      -6.744 -10.440  10.992  0.00  0.00    +0.219 C 
ATOM     24  C   UNL     1      -6.706 -10.320  16.407  0.00  0.00    +0.306 C 
ATOM     25  C   UNL     1      -6.549 -12.508  17.670  0.00  0.00    +0.137 C 
ATOM     26  C   UNL     1      -4.997 -10.672  18.159  0.00  0.00    +0.137 C 
ATOM     28  C   UNL     1      -5.404 -13.483  17.904  0.00  0.00    +0.179 C 
ATOM     29  C   UNL     1      -3.912 -11.717  18.383  0.00  0.00    +0.179 C 
ENDROOT
BRANCH  18  13
ATOM      9  N   UNL     1      -4.596  -8.705   8.478  0.00  0.00    -0.316 NA
ATOM     13  C   UNL     1      -5.387 -10.751  10.425  0.00  0.00    +0.078 C 
ATOM     19  C   UNL     1      -5.465 -10.979   8.914  0.00  0.00    +0.028 C 
ATOM     20  C   UNL     1      -4.390  -9.639  10.760  0.00  0.00    +0.028 C 
ATOM     21  C   UNL     1      -5.639  -9.672   8.139  0.00  0.00    +0.081 C 
ATOM     22  C   UNL     1      -4.608  -8.389   9.906  0.00  0.00    +0.081 C 
ATOM     38  H   UNL     1      -4.741  -7.850   7.942  0.00  0.00    +0.122 HD
ENDBRANCH  18  13
BRANCH  14  23
ATOM      3  O   UNL     1     -10.122 -11.168  15.009  0.00  0.00    -0.274 OA
ATOM     11  N   UNL     1      -9.743  -8.995  15.756  0.00  0.00    -0.301 N 
ATOM     23  C   UNL     1      -9.425 -10.159  15.076  0.00  0.00    +0.236 C 
ATOM     39  H   UNL     1      -9.098  -8.211  15.722  0.00  0.00    +0.150 HD
BRANCH  11  27
ATOM     27  C   UNL     1     -10.974  -8.823  16.494  0.00  0.00    +0.186 C 
BRANCH  27  31
ATOM      6  O   UNL     1     -12.009 -10.232  18.161  0.00  0.00    -0.249 OA
ATOM     31  C   UNL     1     -10.999  -9.657  17.768  0.00  0.00    +0.328 C 
BRANCH  31   5
ATOM      5  O   UNL     1      -9.794  -9.665  18.400  0.00  0.00    -0.467 OA
ATOM     36  C   UNL     1      -9.461 -10.876  19.088  0.00  0.00    +0.280 C 
ENDBRANCH  31   5
ENDBRANCH  27  31
BRANCH  27  30
ATOM     30  C   UNL     1     -11.272  -7.342  16.769  0.00  0.00    +0.070 C 
BRANCH  30  32
ATOM     12  N   UNL     1     -14.333  -6.340  14.767  0.00  0.00    -0.263 NA
ATOM     32  C   UNL     1     -12.139  -6.668  15.730  0.00  0.00    -0.027 A 
ATOM     33  C   UNL     1     -11.593  -5.789  14.802  0.00  0.00    +0.006 A 
ATOM     34  C   UNL     1     -13.503  -6.909  15.670  0.00  0.00    +0.114 A 
ATOM     35  C   UNL     1     -12.416  -5.185  13.857  0.00  0.00    +0.020 A 
ATOM     37  C   UNL     1     -13.767  -5.491  13.882  0.00  0.00    +0.111 A 
ENDBRANCH  30  32
ENDBRANCH  27  30
ENDBRANCH  11  27
ENDBRANCH  14  23
TORSDOF 7
ENDMDL
MODEL 10
REMARK VINA RESULT:      -6.3     16.186     20.851
REMARK  Name = 75536035
REMARK  8 active torsions:
REMARK  status: ('A' for Active; 'I' for Inactive)
REMARK    1  A    between atoms: O_5  and  C_31
REMARK    2  A    between atoms: O_5  and  C_36
REMARK    3  A    between atoms: N_11  and  C_27
REMARK    4  A    between atoms: C_13  and  C_18
REMARK    5  A    between atoms: C_14  and  C_23
REMARK    6  A    between atoms: C_27  and  C_30
REMARK    7  A    between atoms: C_27  and  C_31
REMARK    8  A    between atoms: C_30  and  C_32
REMARK                            x       y       z     vdW  Elec       q    Type
REMARK                         _______ _______ _______ _____ _____    ______ ____
ROOT
ATOM      1  O   UNL     1      16.916   8.891   6.018  0.00  0.00    -0.275 OA
ATOM      2  O   UNL     1      15.703   5.611  -2.939  0.00  0.00    -0.377 OA
ATOM      4  O   UNL     1      14.472   4.587   1.783  0.00  0.00    -0.252 OA
ATOM      7  N   UNL     1      16.545   8.296   3.801  0.00  0.00    -0.298 N 
ATOM      8  N   UNL     1      15.003   6.836   1.860  0.00  0.00    -0.271 N 
ATOM     10  N   UNL     1      15.043   5.615  -0.199  0.00  0.00    -0.281 N 
ATOM     14  C   UNL     1      14.539   6.962   3.248  0.00  0.00    +0.181 C 
ATOM     15  C   UNL     1      15.097   8.194   3.963  0.00  0.00    +0.139 C 
ATOM     16  C   UNL     1      17.072   8.028   2.458  0.00  0.00    +0.127 C 
ATOM     17  C   UNL     1      15.970   7.851   1.414  0.00  0.00    +0.129 C 
ATOM     18  C   UNL     1      17.344   8.662   4.884  0.00  0.00    +0.219 C 
ATOM     24  C   UNL     1      14.821   5.614   1.185  0.00  0.00    +0.306 C 
ATOM     25  C   UNL     1      14.430   6.577  -1.123  0.00  0.00    +0.137 C 
ATOM     26  C   UNL     1      15.511   4.393  -0.850  0.00  0.00    +0.137 C 
ATOM     28  C   UNL     1      15.357   6.844  -2.298  0.00  0.00    +0.179 C 
ATOM     29  C   UNL     1      16.393   4.738  -2.042  0.00  0.00    +0.179 C 
ENDROOT
BRANCH  18  13
ATOM      9  N   UNL     1      20.155  10.226   6.781  0.00  0.00    -0.316 NA
ATOM     13  C   UNL     1      18.816   8.781   4.608  0.00  0.00    +0.078 C 
ATOM     19  C   UNL     1      19.233  10.248   4.485  0.00  0.00    +0.028 C 
ATOM     20  C   UNL     1      19.633   8.068   5.688  0.00  0.00    +0.028 C 
ATOM     21  C   UNL     1      19.294  10.948   5.844  0.00  0.00    +0.081 C 
ATOM     22  C   UNL     1      19.678   8.860   6.996  0.00  0.00    +0.081 C 
ATOM     38  H   UNL     1      20.175  10.720   7.672  0.00  0.00    +0.122 HD
ENDBRANCH  18  13
BRANCH  14  23
ATOM      3  O   UNL     1      12.495   8.108   2.792  0.00  0.00    -0.274 OA
ATOM     11  N   UNL     1      12.410   5.914   3.567  0.00  0.00    -0.301 N 
ATOM     23  C   UNL     1      13.047   7.075   3.163  0.00  0.00    +0.236 C 
ATOM     39  H   UNL     1      12.969   5.125   3.878  0.00  0.00    +0.150 HD
BRANCH  11  27
ATOM     27  C   UNL     1      10.972   5.773   3.600  0.00  0.00    +0.186 C 
BRANCH  27  31
ATOM      6  O   UNL     1      10.509   4.001   2.024  0.00  0.00    -0.249 OA
ATOM     31  C   UNL     1      10.423   5.192   2.303  0.00  0.00    +0.328 C 
BRANCH  31   5
ATOM      5  O   UNL     1       9.857   6.146   1.514  0.00  0.00    -0.467 OA
ATOM     36  C   UNL     1      10.497   6.370   0.253  0.00  0.00    +0.280 C 
ENDBRANCH  31   5
ENDBRANCH  27  31
BRANCH  27  30
ATOM     30  C   UNL     1      10.504   4.980   4.829  0.00  0.00    +0.070 C 
BRANCH  30  32
ATOM     12  N   UNL     1       8.987   7.929   6.668  0.00  0.00    -0.263 NA
ATOM     32  C   UNL     1       9.934   5.824   5.946  0.00  0.00    -0.027 A 
ATOM     33  C   UNL     1       9.824   5.324   7.239  0.00  0.00    +0.006 A 
ATOM     34  C   UNL     1       9.505   7.122   5.715  0.00  0.00    +0.114 A 
ATOM     35  C   UNL     1       9.296   6.125   8.246  0.00  0.00    +0.020 A 
ATOM     37  C   UNL     1       8.896   7.408   7.912  0.00  0.00    +0.111 A 
ENDBRANCH  30  32
ENDBRANCH  27  30
ENDBRANCH  11  27
ENDBRANCH  14  23
TORSDOF 7
ENDMDL
