REMARK  Name = 71694021
REMARK  8 active torsions:
REMARK  status: ('A' for Active; 'I' for Inactive)
REMARK    1  A    between atoms: S_1  and  N_9
REMARK    2  A    between atoms: S_1  and  C_18
REMARK    3  A    between atoms: O_5  and  C_12
REMARK    4  A    between atoms: O_6  and  C_14
REMARK    5  A    between atoms: N_9  and  C_11
REMARK    6  A    between atoms: C_10  and  C_15
REMARK    7  A    between atoms: C_16  and  C_20
REMARK    8  A    between atoms: C_27  and  C_28
REMARK                            x       y       z     vdW  Elec       q    Type
REMARK                         _______ _______ _______ _____ _____    ______ ____
ROOT
ATOM     10  C   UNL     1      -1.986  -0.773  -0.718  0.00  0.00    +0.043 C 
ATOM     11  C   UNL     1      -2.324   0.437   0.196  0.00  0.00    +0.115 C 
ATOM     12  C   UNL     1      -3.807   0.286   0.561  0.00  0.00    +0.162 C 
ATOM     13  C   UNL     1      -3.256  -1.641  -0.734  0.00  0.00    +0.043 C 
ATOM     14  C   UNL     1      -4.369  -0.625  -0.526  0.00  0.00    +0.145 C 
ENDROOT
BRANCH  10  15
ATOM     15  C   UNL     1      -0.751  -1.537  -0.295  0.00  0.00    -0.040 A 
ATOM     16  C   UNL     1       0.332  -1.687  -1.161  0.00  0.00    -0.047 A 
ATOM     17  C   UNL     1      -0.705  -2.096   0.983  0.00  0.00    +0.004 A 
ATOM     19  C   UNL     1       1.461  -2.396  -0.750  0.00  0.00    +0.003 A 
ATOM     20  C   UNL     1       0.306  -1.098  -2.533  0.00  0.00    +0.044 C 
ATOM     21  C   UNL     1       0.424  -2.805   1.393  0.00  0.00    +0.000 A 
ATOM     22  C   UNL     1       1.507  -2.955   0.527  0.00  0.00    +0.000 A 
ENDBRANCH  10  15
BRANCH  12   5
ATOM      5  O   UNL     1      -3.884  -0.346   1.838  0.00  0.00    -0.388 OA
ATOM     30  H   UNL     1      -3.512   0.271   2.491  0.00  0.00    +0.210 HD
ENDBRANCH  12   5
BRANCH  14   6
ATOM      6  O   UNL     1      -5.577  -1.251  -0.143  0.00  0.00    -0.389 OA
ATOM     31  H   UNL     1      -5.819  -1.876  -0.848  0.00  0.00    +0.210 HD
ENDBRANCH  14   6
BRANCH  11   9
ATOM      9  N   UNL     1      -2.131   1.698  -0.569  0.00  0.00    -0.184 NA
ATOM     29  H   UNL     1      -2.479   1.731  -1.535  0.00  0.00    +0.148 HD
BRANCH   9   1
ATOM      1  S   UNL     1      -1.071   2.889   0.016  0.00  0.00    +0.059 S 
ATOM      7  O   UNL     1      -1.435   3.234   1.376  0.00  0.00    -0.153 OA
ATOM      8  O   UNL     1      -0.933   3.926  -0.988  0.00  0.00    -0.153 OA
BRANCH   1  18
ATOM     18  C   UNL     1       0.465   2.014   0.069  0.00  0.00    +0.105 A 
ATOM     23  C   UNL     1       0.834   1.324   1.223  0.00  0.00    +0.029 A 
ATOM     24  C   UNL     1       1.308   2.016  -1.043  0.00  0.00    +0.029 A 
ATOM     25  C   UNL     1       2.046   0.634   1.266  0.00  0.00    +0.014 A 
ATOM     26  C   UNL     1       2.520   1.327  -1.000  0.00  0.00    +0.014 A 
ATOM     27  C   UNL     1       2.889   0.636   0.154  0.00  0.00    +0.055 A 
BRANCH  27  28
ATOM      2  F   UNL     1       4.393  -0.722   1.397  0.00  0.00    -0.166 F 
ATOM      3  F   UNL     1       4.289  -1.083  -0.744  0.00  0.00    -0.166 F 
ATOM      4  F   UNL     1       5.275   0.697   0.006  0.00  0.00    -0.166 F 
ATOM     28  C   UNL     1       4.184  -0.102   0.200  0.00  0.00    +0.417 C 
ENDBRANCH  27  28
ENDBRANCH   1  18
ENDBRANCH   9   1
ENDBRANCH  11   9
TORSDOF 7
