REMARK  Name = 40777896
REMARK  12 active torsions:
REMARK  status: ('A' for Active; 'I' for Inactive)
REMARK    1  A    between atoms: O_2  and  C_11
REMARK    2  A    between atoms: O_3  and  C_12
REMARK    3  A    between atoms: O_4  and  C_21
REMARK    4  A    between atoms: O_4  and  C_23
REMARK    5  A    between atoms: N_8  and  C_20
REMARK    6  A    between atoms: N_9  and  C_24
REMARK    7  A    between atoms: C_10  and  C_15
REMARK    8  A    between atoms: C_13  and  C_20
REMARK    9  A    between atoms: C_14  and  C_21
REMARK   10  A    between atoms: C_15  and  C_19
REMARK   11  A    between atoms: C_24  and  C_25
REMARK   12  A    between atoms: C_24  and  C_26
REMARK                            x       y       z     vdW  Elec       q    Type
REMARK                         _______ _______ _______ _____ _____    ______ ____
ROOT
ATOM      1  O   UNL     1       1.605   0.803  -0.611  0.00  0.00    -0.366 OA
ATOM     10  C   UNL     1       1.013   2.053  -0.213  0.00  0.00    +0.159 C 
ATOM     11  C   UNL     1       2.114   2.821   0.498  0.00  0.00    +0.175 C 
ATOM     12  C   UNL     1       3.335   2.405  -0.295  0.00  0.00    +0.176 C 
ATOM     13  C   UNL     1       3.044   0.935  -0.577  0.00  0.00    +0.167 C 
ENDROOT
BRANCH  11   2
ATOM      2  O   UNL     1       1.884   4.214   0.480  0.00  0.00    -0.387 OA
ATOM     27  H   UNL     1       2.676   4.644   0.845  0.00  0.00    +0.210 HD
ENDBRANCH  11   2
BRANCH  12   3
ATOM      3  O   UNL     1       3.375   3.095  -1.543  0.00  0.00    -0.387 OA
ATOM     28  H   UNL     1       4.151   2.770  -2.030  0.00  0.00    +0.210 HD
ENDBRANCH  12   3
BRANCH  10  15
ATOM     15  C   UNL     1      -0.200   1.789   0.662  0.00  0.00    +0.130 C 
BRANCH  15  19
ATOM      5  O   UNL     1      -1.262   1.335  -1.420  0.00  0.00    -0.276 OA
ATOM      7  N   UNL     1      -2.539   1.086   0.494  0.00  0.00    -0.296 N 
ATOM     14  C   UNL     1      -3.797   0.771  -0.186  0.00  0.00    +0.102 C 
ATOM     16  C   UNL     1      -4.855   0.950   0.906  0.00  0.00    +0.026 C 
ATOM     17  C   UNL     1      -2.717   1.133   1.943  0.00  0.00    +0.108 C 
ATOM     18  C   UNL     1      -4.112   0.575   2.183  0.00  0.00    +0.021 C 
ATOM     19  C   UNL     1      -1.374   1.386  -0.194  0.00  0.00    +0.218 C 
BRANCH  14  21
ATOM     21  C   UNL     1      -3.787  -0.649  -0.750  0.00  0.00    +0.181 C 
BRANCH  21   4
ATOM      4  O   UNL     1      -3.163  -0.622  -2.020  0.00  0.00    -0.381 OA
ATOM     23  C   UNL     1      -3.115  -1.915  -2.612  0.00  0.00    +0.194 C 
ENDBRANCH  21   4
ENDBRANCH  14  21
ENDBRANCH  15  19
ENDBRANCH  10  15
BRANCH  13  20
ATOM     20  C   UNL     1       3.571   0.004   0.506  0.00  0.00    +0.140 C 
BRANCH  20   8
ATOM      6  O   UNL     1       1.212  -1.471   1.270  0.00  0.00    -0.253 OA
ATOM      8  N   UNL     1       3.273  -1.365   0.204  0.00  0.00    -0.297 N 
ATOM      9  N   UNL     1       2.068  -3.334   0.183  0.00  0.00    -0.297 N 
ATOM     22  C   UNL     1       2.102  -2.010   0.613  0.00  0.00    +0.300 C 
ATOM     29  H   UNL     1       3.945  -1.891  -0.346  0.00  0.00    +0.150 HD
ATOM     30  H   UNL     1       2.815  -3.665  -0.419  0.00  0.00    +0.150 HD
BRANCH   9  24
ATOM     24  C   UNL     1       0.967  -4.223   0.473  0.00  0.00    +0.068 C 
ATOM     25  C   UNL     1       1.465  -5.655   0.610  0.00  0.00    +0.027 C 
ATOM     26  C   UNL     1      -0.106  -4.112  -0.604  0.00  0.00    +0.027 C 
ENDBRANCH   9  24
ENDBRANCH  20   8
ENDBRANCH  13  20
TORSDOF 9
