REMARK  Name = 75536243
REMARK  10 active torsions:
REMARK  status: ('A' for Active; 'I' for Inactive)
REMARK    1  A    between atoms: O_3  and  C_9
REMARK    2  A    between atoms: N_6  and  C_13
REMARK    3  A    between atoms: C_8  and  C_13
REMARK    4  A    between atoms: C_10  and  C_14
REMARK    5  A    between atoms: C_14  and  C_15
REMARK    6  A    between atoms: C_16  and  C_17
REMARK    7  A    between atoms: C_16  and  C_19
REMARK    8  A    between atoms: C_16  and  C_20
REMARK    9  A    between atoms: C_16  and  C_21
REMARK   10  A    between atoms: C_22  and  C_23
REMARK                            x       y       z     vdW  Elec       q    Type
REMARK                         _______ _______ _______ _____ _____    ______ ____
ROOT
ATOM      2  O   UNL     1       2.674  -0.690   0.792  0.00  0.00    -0.369 OA
ATOM      8  C   UNL     1       3.540   0.428   0.556  0.00  0.00    +0.164 C 
ATOM      9  C   UNL     1       5.001  -0.018   0.413  0.00  0.00    +0.145 C 
ATOM     10  C   UNL     1       2.745  -1.732  -0.184  0.00  0.00    +0.125 C 
ATOM     11  C   UNL     1       5.162  -1.172  -0.573  0.00  0.00    +0.036 C 
ATOM     12  C   UNL     1       4.165  -2.288  -0.275  0.00  0.00    +0.034 C 
ENDROOT
BRANCH   9   3
ATOM      3  O   UNL     1       5.473  -0.464   1.688  0.00  0.00    -0.389 OA
ATOM     30  H   UNL     1       6.412  -0.697   1.588  0.00  0.00    +0.210 HD
ENDBRANCH   9   3
BRANCH   8  13
ATOM     13  C   UNL     1       3.052   1.261  -0.628  0.00  0.00    +0.138 C 
BRANCH  13   6
ATOM      5  O   UNL     1       2.061   3.930  -0.504  0.00  0.00    -0.275 OA
ATOM      6  N   UNL     1       1.686   1.651  -0.453  0.00  0.00    -0.312 N 
ATOM     17  C   UNL     1       1.280   2.983  -0.403  0.00  0.00    +0.218 C 
ATOM     29  H   UNL     1       0.991   0.913  -0.403  0.00  0.00    +0.149 HD
BRANCH  17  16
ATOM     16  C   UNL     1      -0.238   3.186  -0.212  0.00  0.00    +0.039 C 
ATOM     19  C   UNL     1      -0.549   4.693  -0.154  0.00  0.00    +0.020 C 
ATOM     20  C   UNL     1      -0.695   2.541   1.105  0.00  0.00    +0.020 C 
ATOM     21  C   UNL     1      -1.004   2.574  -1.394  0.00  0.00    +0.020 C 
ENDBRANCH  17  16
ENDBRANCH  13   6
ENDBRANCH   8  13
BRANCH  10  14
ATOM     14  C   UNL     1       1.762  -2.819   0.233  0.00  0.00    +0.090 C 
BRANCH  14  15
ATOM      4  O   UNL     1      -1.470  -2.299  -1.274  0.00  0.00    -0.354 OA
ATOM      7  N   UNL     1      -0.169  -2.786  -1.292  0.00  0.00    -0.083 NA
ATOM     15  C   UNL     1       0.343  -2.447  -0.106  0.00  0.00    +0.087 A 
ATOM     18  C   UNL     1      -0.579  -1.753   0.696  0.00  0.00    +0.076 A 
ATOM     22  C   UNL     1      -1.703  -1.686  -0.085  0.00  0.00    +0.167 A 
BRANCH  22  23
ATOM      1  F   UNL     1      -6.793   0.463   0.569  0.00  0.00    -0.205 F 
ATOM     23  C   UNL     1      -3.014  -1.131   0.083  0.00  0.00    +0.020 A 
ATOM     24  C   UNL     1      -3.350  -0.483   1.272  0.00  0.00    +0.014 A 
ATOM     25  C   UNL     1      -3.954  -1.240  -0.941  0.00  0.00    +0.014 A 
ATOM     26  C   UNL     1      -4.627   0.055   1.436  0.00  0.00    +0.039 A 
ATOM     27  C   UNL     1      -5.231  -0.702  -0.777  0.00  0.00    +0.039 A 
ATOM     28  C   UNL     1      -5.567  -0.054   0.411  0.00  0.00    +0.123 A 
ENDBRANCH  22  23
ENDBRANCH  14  15
ENDBRANCH  10  14
TORSDOF 7
