MODEL 1
REMARK VINA RESULT:      -7.1      0.000      0.000
REMARK  Name = 51137737
REMARK  3 active torsions:
REMARK  status: ('A' for Active; 'I' for Inactive)
REMARK    1  A    between atoms: C_7  and  C_11
REMARK    2  A    between atoms: C_12  and  C_13
REMARK    3  A    between atoms: C_14  and  C_15
REMARK                            x       y       z     vdW  Elec       q    Type
REMARK                         _______ _______ _______ _____ _____    ______ ____
ROOT
ATOM      2  O   UNL     1      12.841  10.968  23.397  0.00  0.00    -0.268 OA
ATOM      3  N   UNL     1      11.965   9.708  21.654  0.00  0.00    -0.296 N 
ATOM      7  C   UNL     1      11.626   8.075  19.956  0.00  0.00    +0.095 C 
ATOM      8  C   UNL     1      11.554   7.406  21.337  0.00  0.00    +0.033 C 
ATOM      9  C   UNL     1      11.410   9.554  20.308  0.00  0.00    +0.121 C 
ATOM     10  C   UNL     1      12.219   8.412  22.266  0.00  0.00    +0.109 C 
ATOM     12  C   UNL     1      12.308  10.890  22.292  0.00  0.00    +0.265 C 
ENDROOT
BRANCH  12  13
ATOM      6  N   UNL     1      12.920  12.501  20.635  0.00  0.00    -0.250 NA
ATOM     13  C   UNL     1      12.027  12.149  21.587  0.00  0.00    +0.126 A 
ATOM     16  C   UNL     1      10.905  12.895  21.912  0.00  0.00    +0.033 A 
ATOM     19  C   UNL     1      10.686  14.078  21.215  0.00  0.00    +0.004 A 
ATOM     20  C   UNL     1      12.674  13.658  19.979  0.00  0.00    +0.111 A 
ATOM     21  C   UNL     1      11.582  14.473  20.229  0.00  0.00    +0.020 A 
ENDBRANCH  12  13
BRANCH   7  11
ATOM      1  O   UNL     1      13.999   7.447  20.007  0.00  0.00    -0.420 OA
ATOM      4  N   UNL     1      13.159   7.660  17.944  0.00  0.00    -0.112 NA
ATOM      5  N   UNL     1      14.491   7.307  17.830  0.00  0.00    -0.107 NA
ATOM     11  C   UNL     1      12.916   7.730  19.232  0.00  0.00    +0.222 A 
ATOM     14  C   UNL     1      14.940   7.193  19.058  0.00  0.00    +0.248 A 
BRANCH  14  15
ATOM     15  C   UNL     1      16.244   6.849  19.543  0.00  0.00    +0.038 A 
ATOM     17  C   UNL     1      16.780   7.522  20.642  0.00  0.00    +0.013 A 
ATOM     18  C   UNL     1      16.979   5.842  18.917  0.00  0.00    +0.013 A 
ATOM     22  C   UNL     1      18.049   7.187  21.115  0.00  0.00    +0.001 A 
ATOM     23  C   UNL     1      18.248   5.508  19.389  0.00  0.00    +0.001 A 
ATOM     24  C   UNL     1      18.782   6.180  20.488  0.00  0.00    +0.000 A 
ENDBRANCH  14  15
ENDBRANCH   7  11
TORSDOF 3
ENDMDL
MODEL 2
REMARK VINA RESULT:      -7.0      1.726      2.483
REMARK  Name = 51137737
REMARK  3 active torsions:
REMARK  status: ('A' for Active; 'I' for Inactive)
REMARK    1  A    between atoms: C_7  and  C_11
REMARK    2  A    between atoms: C_12  and  C_13
REMARK    3  A    between atoms: C_14  and  C_15
REMARK                            x       y       z     vdW  Elec       q    Type
REMARK                         _______ _______ _______ _____ _____    ______ ____
ROOT
ATOM      2  O   UNL     1      10.334   9.441  22.333  0.00  0.00    -0.268 OA
ATOM      3  N   UNL     1      11.751   9.614  20.500  0.00  0.00    -0.296 N 
ATOM      7  C   UNL     1      13.253   9.140  18.717  0.00  0.00    +0.095 C 
ATOM      8  C   UNL     1      11.882   8.513  18.418  0.00  0.00    +0.033 C 
ATOM      9  C   UNL     1      12.899  10.179  19.791  0.00  0.00    +0.121 C 
ATOM     10  C   UNL     1      11.189   8.486  19.773  0.00  0.00    +0.109 C 
ATOM     12  C   UNL     1      11.259   9.993  21.740  0.00  0.00    +0.265 C 
ENDROOT
BRANCH  12  13
ATOM      6  N   UNL     1      13.009  10.851  23.124  0.00  0.00    -0.250 NA
ATOM     13  C   UNL     1      11.901  11.137  22.405  0.00  0.00    +0.126 A 
ATOM     16  C   UNL     1      11.368  12.409  22.274  0.00  0.00    +0.033 A 
ATOM     19  C   UNL     1      12.014  13.455  22.925  0.00  0.00    +0.004 A 
ATOM     20  C   UNL     1      13.610  11.893  23.742  0.00  0.00    +0.111 A 
ATOM     21  C   UNL     1      13.157  13.200  23.673  0.00  0.00    +0.020 A 
ENDBRANCH  12  13
BRANCH   7  11
ATOM      1  O   UNL     1      15.431   8.533  19.674  0.00  0.00    -0.420 OA
ATOM      4  N   UNL     1      14.231   6.784  18.965  0.00  0.00    -0.112 NA
ATOM      5  N   UNL     1      15.423   6.305  19.475  0.00  0.00    -0.107 NA
ATOM     11  C   UNL     1      14.279   8.088  19.101  0.00  0.00    +0.222 A 
ATOM     14  C   UNL     1      16.091   7.361  19.877  0.00  0.00    +0.248 A 
BRANCH  14  15
ATOM     15  C   UNL     1      17.385   7.467  20.486  0.00  0.00    +0.038 A 
ATOM     17  C   UNL     1      18.313   6.436  20.337  0.00  0.00    +0.013 A 
ATOM     18  C   UNL     1      17.715   8.601  21.229  0.00  0.00    +0.013 A 
ATOM     22  C   UNL     1      19.572   6.540  20.929  0.00  0.00    +0.001 A 
ATOM     23  C   UNL     1      18.974   8.704  21.823  0.00  0.00    +0.001 A 
ATOM     24  C   UNL     1      19.901   7.673  21.672  0.00  0.00    +0.000 A 
ENDBRANCH  14  15
ENDBRANCH   7  11
TORSDOF 3
ENDMDL
MODEL 3
REMARK VINA RESULT:      -7.0      2.296      3.038
REMARK  Name = 51137737
REMARK  3 active torsions:
REMARK  status: ('A' for Active; 'I' for Inactive)
REMARK    1  A    between atoms: C_7  and  C_11
REMARK    2  A    between atoms: C_12  and  C_13
REMARK    3  A    between atoms: C_14  and  C_15
REMARK                            x       y       z     vdW  Elec       q    Type
REMARK                         _______ _______ _______ _____ _____    ______ ____
ROOT
ATOM      2  O   UNL     1      10.914  10.723  25.349  0.00  0.00    -0.268 OA
ATOM      3  N   UNL     1      11.230  10.850  23.052  0.00  0.00    -0.296 N 
ATOM      7  C   UNL     1      12.014  10.527  20.829  0.00  0.00    +0.095 C 
ATOM      8  C   UNL     1      11.300   9.256  21.314  0.00  0.00    +0.033 C 
ATOM      9  C   UNL     1      11.485  11.582  21.811  0.00  0.00    +0.121 C 
ATOM     10  C   UNL     1      11.263   9.413  22.828  0.00  0.00    +0.109 C 
ATOM     12  C   UNL     1      11.054  11.381  24.320  0.00  0.00    +0.265 C 
ENDROOT
BRANCH  12  13
ATOM      6  N   UNL     1      12.187  13.397  24.928  0.00  0.00    -0.250 NA
ATOM     13  C   UNL     1      11.049  12.846  24.449  0.00  0.00    +0.126 A 
ATOM     16  C   UNL     1       9.926  13.574  24.090  0.00  0.00    +0.033 A 
ATOM     19  C   UNL     1       9.974  14.957  24.232  0.00  0.00    +0.004 A 
ATOM     20  C   UNL     1      12.197  14.743  25.052  0.00  0.00    +0.111 A 
ATOM     21  C   UNL     1      11.127  15.560  24.721  0.00  0.00    +0.020 A 
ENDBRANCH  12  13
BRANCH   7  11
ATOM      1  O   UNL     1      13.976   9.095  20.469  0.00  0.00    -0.420 OA
ATOM      4  N   UNL     1      14.479  11.210  20.993  0.00  0.00    -0.112 NA
ATOM      5  N   UNL     1      15.664  10.520  20.819  0.00  0.00    -0.107 NA
ATOM     11  C   UNL     1      13.521  10.340  20.778  0.00  0.00    +0.222 A 
ATOM     14  C   UNL     1      15.321   9.290  20.514  0.00  0.00    +0.248 A 
BRANCH  14  15
ATOM     15  C   UNL     1      16.132   8.142  20.227  0.00  0.00    +0.038 A 
ATOM     17  C   UNL     1      15.703   7.202  19.289  0.00  0.00    +0.013 A 
ATOM     18  C   UNL     1      17.349   7.965  20.885  0.00  0.00    +0.013 A 
ATOM     22  C   UNL     1      16.492   6.086  19.010  0.00  0.00    +0.001 A 
ATOM     23  C   UNL     1      18.137   6.849  20.607  0.00  0.00    +0.001 A 
ATOM     24  C   UNL     1      17.709   5.910  19.669  0.00  0.00    +0.000 A 
ENDBRANCH  14  15
ENDBRANCH   7  11
TORSDOF 3
ENDMDL
MODEL 4
REMARK VINA RESULT:      -6.6     26.743     28.411
REMARK  Name = 51137737
REMARK  3 active torsions:
REMARK  status: ('A' for Active; 'I' for Inactive)
REMARK    1  A    between atoms: C_7  and  C_11
REMARK    2  A    between atoms: C_12  and  C_13
REMARK    3  A    between atoms: C_14  and  C_15
REMARK                            x       y       z     vdW  Elec       q    Type
REMARK                         _______ _______ _______ _____ _____    ______ ____
ROOT
ATOM      2  O   UNL     1      -5.941 -12.734  11.479  0.00  0.00    -0.268 OA
ATOM      3  N   UNL     1      -3.719 -12.449  12.091  0.00  0.00    -0.296 N 
ATOM      7  C   UNL     1      -1.683 -12.303  13.314  0.00  0.00    +0.095 C 
ATOM      8  C   UNL     1      -2.163 -13.762  13.282  0.00  0.00    +0.033 C 
ATOM      9  C   UNL     1      -2.472 -11.684  12.151  0.00  0.00    +0.121 C 
ATOM     10  C   UNL     1      -3.632 -13.656  12.899  0.00  0.00    +0.109 C 
ATOM     12  C   UNL     1      -4.892 -12.094  11.443  0.00  0.00    +0.265 C 
ENDROOT
BRANCH  12  13
ATOM      6  N   UNL     1      -5.224  -9.729  11.341  0.00  0.00    -0.250 NA
ATOM     13  C   UNL     1      -4.887 -10.848  10.662  0.00  0.00    +0.126 A 
ATOM     16  C   UNL     1      -4.552 -10.869   9.318  0.00  0.00    +0.033 A 
ATOM     19  C   UNL     1      -4.564  -9.662   8.626  0.00  0.00    +0.004 A 
ATOM     20  C   UNL     1      -5.224  -8.575  10.636  0.00  0.00    +0.111 A 
ATOM     21  C   UNL     1      -4.905  -8.490   9.290  0.00  0.00    +0.020 A 
ENDBRANCH  12  13
BRANCH   7  11
ATOM      1  O   UNL     1      -3.133 -11.759  15.219  0.00  0.00    -0.420 OA
ATOM      4  N   UNL     1      -1.024 -11.049  15.450  0.00  0.00    -0.112 NA
ATOM      5  N   UNL     1      -1.726 -10.680  16.582  0.00  0.00    -0.107 NA
ATOM     11  C   UNL     1      -1.885 -11.676  14.683  0.00  0.00    +0.222 A 
ATOM     14  C   UNL     1      -2.952 -11.115  16.404  0.00  0.00    +0.248 A 
BRANCH  14  15
ATOM     15  C   UNL     1      -4.106 -11.018  17.248  0.00  0.00    +0.038 A 
ATOM     17  C   UNL     1      -4.126 -11.671  18.481  0.00  0.00    +0.013 A 
ATOM     18  C   UNL     1      -5.210 -10.270  16.838  0.00  0.00    +0.013 A 
ATOM     22  C   UNL     1      -5.249 -11.576  19.303  0.00  0.00    +0.001 A 
ATOM     23  C   UNL     1      -6.333 -10.176  17.660  0.00  0.00    +0.001 A 
ATOM     24  C   UNL     1      -6.352 -10.829  18.892  0.00  0.00    +0.000 A 
ENDBRANCH  14  15
ENDBRANCH   7  11
TORSDOF 3
ENDMDL
MODEL 5
REMARK VINA RESULT:      -6.6     27.764     29.743
REMARK  Name = 51137737
REMARK  3 active torsions:
REMARK  status: ('A' for Active; 'I' for Inactive)
REMARK    1  A    between atoms: C_7  and  C_11
REMARK    2  A    between atoms: C_12  and  C_13
REMARK    3  A    between atoms: C_14  and  C_15
REMARK                            x       y       z     vdW  Elec       q    Type
REMARK                         _______ _______ _______ _____ _____    ______ ____
ROOT
ATOM      2  O   UNL     1      -4.500 -13.955  15.552  0.00  0.00    -0.268 OA
ATOM      3  N   UNL     1      -4.660 -12.151  17.006  0.00  0.00    -0.296 N 
ATOM      7  C   UNL     1      -5.298 -10.677  18.761  0.00  0.00    +0.095 C 
ATOM      8  C   UNL     1      -4.635 -11.929  19.355  0.00  0.00    +0.033 C 
ATOM      9  C   UNL     1      -4.823 -10.727  17.302  0.00  0.00    +0.121 C 
ATOM     10  C   UNL     1      -4.697 -12.947  18.224  0.00  0.00    +0.109 C 
ATOM     12  C   UNL     1      -4.563 -12.744  15.757  0.00  0.00    +0.265 C 
ENDROOT
BRANCH  12  13
ATOM      6  N   UNL     1      -5.754 -11.583  14.039  0.00  0.00    -0.250 NA
ATOM     13  C   UNL     1      -4.548 -11.858  14.583  0.00  0.00    +0.126 A 
ATOM     16  C   UNL     1      -3.348 -11.361  14.100  0.00  0.00    +0.033 A 
ATOM     19  C   UNL     1      -3.390 -10.528  12.987  0.00  0.00    +0.004 A 
ATOM     20  C   UNL     1      -5.756 -10.770  12.959  0.00  0.00    +0.111 A 
ATOM     21  C   UNL     1      -4.612 -10.222  12.401  0.00  0.00    +0.020 A 
ENDBRANCH  12  13
BRANCH   7  11
ATOM      1  O   UNL     1      -7.546  -9.884  18.168  0.00  0.00    -0.420 OA
ATOM      4  N   UNL     1      -7.513 -11.337  19.869  0.00  0.00    -0.112 NA
ATOM      5  N   UNL     1      -8.828 -10.974  19.642  0.00  0.00    -0.107 NA
ATOM     11  C   UNL     1      -6.801 -10.677  18.987  0.00  0.00    +0.222 A 
ATOM     14  C   UNL     1      -8.798 -10.126  18.640  0.00  0.00    +0.248 A 
BRANCH  14  15
ATOM     15  C   UNL     1      -9.863  -9.428  17.981  0.00  0.00    +0.038 A 
ATOM     17  C   UNL     1      -9.595  -8.260  17.266  0.00  0.00    +0.013 A 
ATOM     18  C   UNL     1     -11.168  -9.917  18.053  0.00  0.00    +0.013 A 
ATOM     22  C   UNL     1     -10.631  -7.581  16.624  0.00  0.00    +0.001 A 
ATOM     23  C   UNL     1     -12.204  -9.238  17.412  0.00  0.00    +0.001 A 
ATOM     24  C   UNL     1     -11.935  -8.071  16.698  0.00  0.00    +0.000 A 
ENDBRANCH  14  15
ENDBRANCH   7  11
TORSDOF 3
ENDMDL
MODEL 6
REMARK VINA RESULT:      -6.5     17.451     20.021
REMARK  Name = 51137737
REMARK  3 active torsions:
REMARK  status: ('A' for Active; 'I' for Inactive)
REMARK    1  A    between atoms: C_7  and  C_11
REMARK    2  A    between atoms: C_12  and  C_13
REMARK    3  A    between atoms: C_14  and  C_15
REMARK                            x       y       z     vdW  Elec       q    Type
REMARK                         _______ _______ _______ _____ _____    ______ ____
ROOT
ATOM      2  O   UNL     1      15.436   3.952   0.051  0.00  0.00    -0.268 OA
ATOM      3  N   UNL     1      13.693   5.377   0.624  0.00  0.00    -0.296 N 
ATOM      7  C   UNL     1      12.028   6.593   1.811  0.00  0.00    +0.095 C 
ATOM      8  C   UNL     1      13.423   7.071   2.243  0.00  0.00    +0.033 C 
ATOM      9  C   UNL     1      12.331   5.893   0.479  0.00  0.00    +0.121 C 
ATOM     10  C   UNL     1      14.350   5.953   1.787  0.00  0.00    +0.109 C 
ATOM     12  C   UNL     1      14.312   4.409  -0.152  0.00  0.00    +0.265 C 
ENDROOT
BRANCH  12  13
ATOM      6  N   UNL     1      13.828   4.451  -2.493  0.00  0.00    -0.250 NA
ATOM     13  C   UNL     1      13.563   3.875  -1.299  0.00  0.00    +0.126 A 
ATOM     16  C   UNL     1      12.651   2.848  -1.119  0.00  0.00    +0.033 A 
ATOM     19  C   UNL     1      11.968   2.381  -2.238  0.00  0.00    +0.004 A 
ATOM     20  C   UNL     1      13.146   3.971  -3.557  0.00  0.00    +0.111 A 
ATOM     21  C   UNL     1      12.215   2.947  -3.482  0.00  0.00    +0.020 A 
ENDBRANCH  12  13
BRANCH   7  11
ATOM      1  O   UNL     1      11.008   6.388   4.036  0.00  0.00    -0.420 OA
ATOM      4  N   UNL     1      11.078   4.469   2.887  0.00  0.00    -0.112 NA
ATOM      5  N   UNL     1      10.485   4.214   4.109  0.00  0.00    -0.107 NA
ATOM     11  C   UNL     1      11.366   5.750   2.887  0.00  0.00    +0.222 A 
ATOM     14  C   UNL     1      10.466   5.362   4.746  0.00  0.00    +0.248 A 
BRANCH  14  15
ATOM     15  C   UNL     1       9.970   5.695   6.049  0.00  0.00    +0.038 A 
ATOM     17  C   UNL     1      10.056   4.766   7.087  0.00  0.00    +0.013 A 
ATOM     18  C   UNL     1       9.401   6.948   6.281  0.00  0.00    +0.013 A 
ATOM     22  C   UNL     1       9.574   5.090   8.355  0.00  0.00    +0.001 A 
ATOM     23  C   UNL     1       8.918   7.271   7.549  0.00  0.00    +0.001 A 
ATOM     24  C   UNL     1       9.005   6.342   8.585  0.00  0.00    +0.000 A 
ENDBRANCH  14  15
ENDBRANCH   7  11
TORSDOF 3
ENDMDL
MODEL 7
REMARK VINA RESULT:      -6.3     27.928     30.296
REMARK  Name = 51137737
REMARK  3 active torsions:
REMARK  status: ('A' for Active; 'I' for Inactive)
REMARK    1  A    between atoms: C_7  and  C_11
REMARK    2  A    between atoms: C_12  and  C_13
REMARK    3  A    between atoms: C_14  and  C_15
REMARK                            x       y       z     vdW  Elec       q    Type
REMARK                         _______ _______ _______ _____ _____    ______ ____
ROOT
ATOM      2  O   UNL     1     -16.785   0.783  27.056  0.00  0.00    -0.268 OA
ATOM      3  N   UNL     1     -17.071   2.811  25.961  0.00  0.00    -0.296 N 
ATOM      7  C   UNL     1     -16.955   4.608  24.405  0.00  0.00    +0.095 C 
ATOM      8  C   UNL     1     -17.692   3.419  23.768  0.00  0.00    +0.033 C 
ATOM      9  C   UNL     1     -17.047   4.273  25.901  0.00  0.00    +0.121 C 
ATOM     10  C   UNL     1     -17.306   2.236  24.645  0.00  0.00    +0.109 C 
ATOM     12  C   UNL     1     -16.827   2.011  27.067  0.00  0.00    +0.265 C 
ENDROOT
BRANCH  12  13
ATOM      6  N   UNL     1     -15.297   3.000  28.616  0.00  0.00    -0.250 NA
ATOM     13  C   UNL     1     -16.585   2.684  28.352  0.00  0.00    +0.126 A 
ATOM     16  C   UNL     1     -17.642   2.956  29.206  0.00  0.00    +0.033 A 
ATOM     19  C   UNL     1     -17.357   3.594  30.410  0.00  0.00    +0.004 A 
ATOM     20  C   UNL     1     -15.060   3.619  29.795  0.00  0.00    +0.111 A 
ATOM     21  C   UNL     1     -16.046   3.935  30.716  0.00  0.00    +0.020 A 
ENDBRANCH  12  13
BRANCH   7  11
ATOM      1  O   UNL     1     -15.428   5.607  22.762  0.00  0.00    -0.420 OA
ATOM      4  N   UNL     1     -14.427   4.228  24.211  0.00  0.00    -0.112 NA
ATOM      5  N   UNL     1     -13.463   4.716  23.350  0.00  0.00    -0.107 NA
ATOM     11  C   UNL     1     -15.558   4.774  23.831  0.00  0.00    +0.222 A 
ATOM     14  C   UNL     1     -14.092   5.517  22.522  0.00  0.00    +0.248 A 
BRANCH  14  15
ATOM     15  C   UNL     1     -13.598   6.297  21.425  0.00  0.00    +0.038 A 
ATOM     17  C   UNL     1     -14.490   6.969  20.588  0.00  0.00    +0.013 A 
ATOM     18  C   UNL     1     -12.225   6.383  21.193  0.00  0.00    +0.013 A 
ATOM     22  C   UNL     1     -14.008   7.728  19.521  0.00  0.00    +0.001 A 
ATOM     23  C   UNL     1     -11.743   7.141  20.126  0.00  0.00    +0.001 A 
ATOM     24  C   UNL     1     -12.635   7.813  19.290  0.00  0.00    +0.000 A 
ENDBRANCH  14  15
ENDBRANCH   7  11
TORSDOF 3
ENDMDL
MODEL 8
REMARK VINA RESULT:      -6.3      1.848      2.374
REMARK  Name = 51137737
REMARK  3 active torsions:
REMARK  status: ('A' for Active; 'I' for Inactive)
REMARK    1  A    between atoms: C_7  and  C_11
REMARK    2  A    between atoms: C_12  and  C_13
REMARK    3  A    between atoms: C_14  and  C_15
REMARK                            x       y       z     vdW  Elec       q    Type
REMARK                         _______ _______ _______ _____ _____    ______ ____
ROOT
ATOM      2  O   UNL     1      13.898  11.410  24.100  0.00  0.00    -0.268 OA
ATOM      3  N   UNL     1      12.736  10.877  22.160  0.00  0.00    -0.296 N 
ATOM      7  C   UNL     1      11.682   9.717  20.371  0.00  0.00    +0.095 C 
ATOM      8  C   UNL     1      10.914   9.459  21.676  0.00  0.00    +0.033 C 
ATOM      9  C   UNL     1      12.491  10.974  20.721  0.00  0.00    +0.121 C 
ATOM     10  C   UNL     1      11.904   9.849  22.766  0.00  0.00    +0.109 C 
ATOM     12  C   UNL     1      13.676  11.577  22.902  0.00  0.00    +0.265 C 
ENDROOT
BRANCH  12  13
ATOM      6  N   UNL     1      15.641  12.145  21.663  0.00  0.00    -0.250 NA
ATOM     13  C   UNL     1      14.481  12.587  22.199  0.00  0.00    +0.126 A 
ATOM     16  C   UNL     1      14.039  13.898  22.117  0.00  0.00    +0.033 A 
ATOM     19  C   UNL     1      14.839  14.813  21.441  0.00  0.00    +0.004 A 
ATOM     20  C   UNL     1      16.392  13.063  21.014  0.00  0.00    +0.111 A 
ATOM     21  C   UNL     1      16.038  14.396  20.877  0.00  0.00    +0.020 A 
ENDBRANCH  12  13
BRANCH   7  11
ATOM      1  O   UNL     1      13.797   8.472  20.270  0.00  0.00    -0.420 OA
ATOM      4  N   UNL     1      12.083   7.434  19.275  0.00  0.00    -0.112 NA
ATOM      5  N   UNL     1      13.202   6.633  19.145  0.00  0.00    -0.107 NA
ATOM     11  C   UNL     1      12.477   8.497  19.937  0.00  0.00    +0.222 A 
ATOM     14  C   UNL     1      14.177   7.278  19.741  0.00  0.00    +0.248 A 
BRANCH  14  15
ATOM     15  C   UNL     1      15.556   6.925  19.916  0.00  0.00    +0.038 A 
ATOM     17  C   UNL     1      16.220   6.194  18.931  0.00  0.00    +0.013 A 
ATOM     18  C   UNL     1      16.233   7.312  21.073  0.00  0.00    +0.013 A 
ATOM     22  C   UNL     1      17.561   5.850  19.101  0.00  0.00    +0.001 A 
ATOM     23  C   UNL     1      17.574   6.968  21.244  0.00  0.00    +0.001 A 
ATOM     24  C   UNL     1      18.238   6.238  20.258  0.00  0.00    +0.000 A 
ENDBRANCH  14  15
ENDBRANCH   7  11
TORSDOF 3
ENDMDL
MODEL 9
REMARK VINA RESULT:      -6.3     19.113     20.855
REMARK  Name = 51137737
REMARK  3 active torsions:
REMARK  status: ('A' for Active; 'I' for Inactive)
REMARK    1  A    between atoms: C_7  and  C_11
REMARK    2  A    between atoms: C_12  and  C_13
REMARK    3  A    between atoms: C_14  and  C_15
REMARK                            x       y       z     vdW  Elec       q    Type
REMARK                         _______ _______ _______ _____ _____    ______ ____
ROOT
ATOM      2  O   UNL     1      12.396   7.665   3.683  0.00  0.00    -0.268 OA
ATOM      3  N   UNL     1      12.042   5.510   2.893  0.00  0.00    -0.296 N 
ATOM      7  C   UNL     1      11.805   3.592   1.505  0.00  0.00    +0.095 C 
ATOM      8  C   UNL     1      13.273   4.045   1.513  0.00  0.00    +0.033 C 
ATOM      9  C   UNL     1      11.252   4.286   2.758  0.00  0.00    +0.121 C 
ATOM     10  C   UNL     1      13.212   5.476   2.028  0.00  0.00    +0.109 C 
ATOM     12  C   UNL     1      11.738   6.627   3.656  0.00  0.00    +0.265 C 
ENDROOT
BRANCH  12  13
ATOM      6  N   UNL     1      10.672   5.987   5.698  0.00  0.00    -0.250 NA
ATOM     13  C   UNL     1      10.527   6.572   4.488  0.00  0.00    +0.126 A 
ATOM     16  C   UNL     1       9.335   7.101   4.019  0.00  0.00    +0.033 A 
ATOM     19  C   UNL     1       8.219   7.022   4.846  0.00  0.00    +0.004 A 
ATOM     20  C   UNL     1       9.566   5.929   6.474  0.00  0.00    +0.111 A 
ATOM     21  C   UNL     1       8.329   6.427   6.098  0.00  0.00    +0.020 A 
ENDBRANCH  12  13
BRANCH   7  11
ATOM      1  O   UNL     1      11.716   3.458  -0.946  0.00  0.00    -0.420 OA
ATOM      4  N   UNL     1      10.025   4.606  -0.037  0.00  0.00    -0.112 NA
ATOM      5  N   UNL     1       9.855   4.609  -1.408  0.00  0.00    -0.107 NA
ATOM     11  C   UNL     1      11.123   3.924   0.188  0.00  0.00    +0.222 A 
ATOM     14  C   UNL     1      10.864   3.927  -1.897  0.00  0.00    +0.248 A 
BRANCH  14  15
ATOM     15  C   UNL     1      11.201   3.606  -3.253  0.00  0.00    +0.038 A 
ATOM     17  C   UNL     1      10.227   3.677  -4.250  0.00  0.00    +0.013 A 
ATOM     18  C   UNL     1      12.502   3.222  -3.578  0.00  0.00    +0.013 A 
ATOM     22  C   UNL     1      10.554   3.366  -5.570  0.00  0.00    +0.001 A 
ATOM     23  C   UNL     1      12.830   2.910  -4.897  0.00  0.00    +0.001 A 
ATOM     24  C   UNL     1      11.856   2.982  -5.892  0.00  0.00    +0.000 A 
ENDBRANCH  14  15
ENDBRANCH   7  11
TORSDOF 3
ENDMDL
MODEL 10
REMARK VINA RESULT:      -6.1     29.868     32.189
REMARK  Name = 51137737
REMARK  3 active torsions:
REMARK  status: ('A' for Active; 'I' for Inactive)
REMARK    1  A    between atoms: C_7  and  C_11
REMARK    2  A    between atoms: C_12  and  C_13
REMARK    3  A    between atoms: C_14  and  C_15
REMARK                            x       y       z     vdW  Elec       q    Type
REMARK                         _______ _______ _______ _____ _____    ______ ____
ROOT
ATOM      2  O   UNL     1     -10.434  -6.057  41.697  0.00  0.00    -0.268 OA
ATOM      3  N   UNL     1      -8.789  -6.640  40.164  0.00  0.00    -0.296 N 
ATOM      7  C   UNL     1      -6.840  -7.525  39.126  0.00  0.00    +0.095 C 
ATOM      8  C   UNL     1      -7.767  -8.675  39.549  0.00  0.00    +0.033 C 
ATOM      9  C   UNL     1      -7.798  -6.325  39.134  0.00  0.00    +0.121 C 
ATOM     10  C   UNL     1      -8.702  -8.036  40.566  0.00  0.00    +0.109 C 
ATOM     12  C   UNL     1      -9.667  -5.762  40.782  0.00  0.00    +0.265 C 
ENDROOT
BRANCH  12  13
ATOM      6  N   UNL     1     -10.443  -4.111  39.237  0.00  0.00    -0.250 NA
ATOM     13  C   UNL     1      -9.673  -4.367  40.317  0.00  0.00    +0.126 A 
ATOM     16  C   UNL     1      -8.919  -3.410  40.977  0.00  0.00    +0.033 A 
ATOM     19  C   UNL     1      -8.959  -2.105  40.496  0.00  0.00    +0.004 A 
ATOM     20  C   UNL     1     -10.458  -2.832  38.798  0.00  0.00    +0.111 A 
ATOM     21  C   UNL     1      -9.741  -1.803  39.387  0.00  0.00    +0.020 A 
ENDBRANCH  12  13
BRANCH   7  11
ATOM      1  O   UNL     1      -5.011  -6.212  40.106  0.00  0.00    -0.420 OA
ATOM      4  N   UNL     1      -5.045  -8.351  40.759  0.00  0.00    -0.112 NA
ATOM      5  N   UNL     1      -3.976  -7.732  41.379  0.00  0.00    -0.107 NA
ATOM     11  C   UNL     1      -5.621  -7.426  40.026  0.00  0.00    +0.222 A 
ATOM     14  C   UNL     1      -3.995  -6.485  40.969  0.00  0.00    +0.248 A 
BRANCH  14  15
ATOM     15  C   UNL     1      -3.127  -5.389  41.284  0.00  0.00    +0.038 A 
ATOM     17  C   UNL     1      -3.312  -4.669  42.465  0.00  0.00    +0.013 A 
ATOM     18  C   UNL     1      -2.097  -5.041  40.410  0.00  0.00    +0.013 A 
ATOM     22  C   UNL     1      -2.468  -3.603  42.772  0.00  0.00    +0.001 A 
ATOM     23  C   UNL     1      -1.253  -3.973  40.717  0.00  0.00    +0.001 A 
ATOM     24  C   UNL     1      -1.438  -3.255  41.898  0.00  0.00    +0.000 A 
ENDBRANCH  14  15
ENDBRANCH   7  11
TORSDOF 3
ENDMDL
