REMARK  Name = 51137041
REMARK  4 active torsions:
REMARK  status: ('A' for Active; 'I' for Inactive)
REMARK    1  A    between atoms: N_4  and  C_13
REMARK    2  A    between atoms: C_8  and  C_12
REMARK    3  A    between atoms: C_13  and  C_14
REMARK    4  A    between atoms: C_22  and  C_25
REMARK                            x       y       z     vdW  Elec       q    Type
REMARK                         _______ _______ _______ _____ _____    ______ ____
ROOT
ATOM      4  N   UNL     1      -0.311  -0.222  -0.287  0.00  0.00    -0.297 NA
ATOM      8  C   UNL     1       1.856  -0.858   0.343  0.00  0.00    +0.070 C 
ATOM      9  C   UNL     1       1.125  -0.252   1.554  0.00  0.00    +0.028 C 
ATOM     10  C   UNL     1       1.015  -0.437  -0.869  0.00  0.00    +0.096 C 
ATOM     11  C   UNL     1      -0.063   0.496   0.963  0.00  0.00    +0.085 C 
ENDROOT
BRANCH   8  12
ATOM      5  N   UNL     1       4.303  -1.407   0.230  0.00  0.00    -0.340 N 
ATOM      6  N   UNL     1       3.786   0.754   0.087  0.00  0.00    -0.213 NA
ATOM      7  N   UNL     1       6.056   1.588  -0.127  0.00  0.00    -0.234 NA
ATOM     12  C   UNL     1       3.310  -0.465   0.217  0.00  0.00    +0.114 A 
ATOM     15  C   UNL     1       5.497  -0.751   0.099  0.00  0.00    +0.085 A 
ATOM     16  C   UNL     1       5.146   0.592   0.013  0.00  0.00    +0.178 A 
ATOM     19  C   UNL     1       6.821  -1.171   0.048  0.00  0.00    +0.031 A 
ATOM     23  C   UNL     1       7.767  -0.159  -0.095  0.00  0.00    +0.022 A 
ATOM     24  C   UNL     1       7.340   1.163  -0.175  0.00  0.00    +0.113 A 
ATOM     26  H   UNL     1       4.179  -2.407   0.319  0.00  0.00    +0.167 HD
ENDBRANCH   8  12
BRANCH   4  13
ATOM     13  C   UNL     1      -1.198   0.509  -1.180  0.00  0.00    +0.119 C 
BRANCH  13  14
ATOM     14  C   UNL     1      -2.643   0.351  -0.788  0.00  0.00    -0.033 A 
ATOM     17  C   UNL     1      -3.318  -0.834  -1.081  0.00  0.00    +0.005 A 
ATOM     18  C   UNL     1      -3.307   1.388  -0.133  0.00  0.00    +0.005 A 
ATOM     20  C   UNL     1      -4.657  -0.982  -0.718  0.00  0.00    +0.012 A 
ATOM     21  C   UNL     1      -4.645   1.241   0.230  0.00  0.00    +0.012 A 
ATOM     22  C   UNL     1      -5.321   0.056  -0.063  0.00  0.00    +0.055 A 
BRANCH  22  25
ATOM      1  F   UNL     1      -6.967   0.005   1.673  0.00  0.00    -0.166 F 
ATOM      2  F   UNL     1      -7.260  -1.319  -0.027  0.00  0.00    -0.166 F 
ATOM      3  F   UNL     1      -7.580   0.821  -0.241  0.00  0.00    -0.166 F 
ATOM     25  C   UNL     1      -6.751  -0.104   0.328  0.00  0.00    +0.417 C 
ENDBRANCH  22  25
ENDBRANCH  13  14
ENDBRANCH   4  13
TORSDOF 4
