REMARK  Name = 11913309
REMARK  7 active torsions:
REMARK  status: ('A' for Active; 'I' for Inactive)
REMARK    1  A    between atoms: O_4  and  C_17
REMARK    2  A    between atoms: O_4  and  C_22
REMARK    3  A    between atoms: N_5  and  C_12
REMARK    4  A    between atoms: N_6  and  C_11
REMARK    5  A    between atoms: C_15  and  C_17
REMARK    6  A    between atoms: C_18  and  C_21
REMARK    7  A    between atoms: C_25  and  C_28
REMARK                            x       y       z     vdW  Elec       q    Type
REMARK                         _______ _______ _______ _____ _____    ______ ____
ROOT
ATOM      6  N   UNL     1       1.850  -2.789   0.391  0.00  0.00    -0.306 N 
ATOM      7  N   UNL     1      -0.312  -2.077  -0.176  0.00  0.00    -0.214 NA
ATOM      8  N   UNL     1       0.768  -3.849  -1.401  0.00  0.00    -0.223 NA
ATOM     16  C   UNL     1       0.735  -2.909  -0.420  0.00  0.00    +0.216 A 
ATOM     18  C   UNL     1      -1.383  -2.221  -0.985  0.00  0.00    +0.076 A 
ATOM     19  C   UNL     1      -0.336  -3.939  -2.172  0.00  0.00    +0.116 A 
ATOM     20  C   UNL     1      -1.451  -3.143  -2.009  0.00  0.00    +0.048 A 
ATOM     35  H   UNL     1       2.645  -3.377   0.168  0.00  0.00    +0.149 HD
ENDROOT
BRANCH   6  11
ATOM      1  O   UNL     1       4.280  -1.633   1.921  0.00  0.00    -0.370 OA
ATOM      2  O   UNL     1       2.059   0.558   1.834  0.00  0.00    -0.370 OA
ATOM      9  C   UNL     1       2.432  -0.501   0.937  0.00  0.00    +0.171 C 
ATOM     10  C   UNL     1       3.944  -0.608   0.970  0.00  0.00    +0.171 C 
ATOM     11  C   UNL     1       1.956  -1.832   1.470  0.00  0.00    +0.130 C 
ATOM     12  C   UNL     1       4.397   0.744   1.473  0.00  0.00    +0.130 C 
ATOM     13  C   UNL     1       3.073  -2.230   2.418  0.00  0.00    +0.185 C 
ATOM     14  C   UNL     1       3.247   1.158   2.372  0.00  0.00    +0.185 C 
BRANCH  12   5
ATOM      3  O   UNL     1       6.853   1.355   0.061  0.00  0.00    -0.273 OA
ATOM      5  N   UNL     1       4.571   1.674   0.384  0.00  0.00    -0.306 N 
ATOM     15  C   UNL     1       5.794   1.902  -0.233  0.00  0.00    +0.239 C 
ATOM     34  H   UNL     1       3.746   2.144   0.022  0.00  0.00    +0.149 HD
BRANCH  15  17
ATOM     17  C   UNL     1       5.681   2.925  -1.342  0.00  0.00    +0.255 C 
BRANCH  17   4
ATOM      4  O   UNL     1       6.933   3.129  -1.962  0.00  0.00    -0.374 OA
ATOM     22  C   UNL     1       6.856   4.089  -3.011  0.00  0.00    +0.194 C 
ENDBRANCH  17   4
ENDBRANCH  15  17
ENDBRANCH  12   5
ENDBRANCH   6  11
BRANCH  18  21
ATOM     21  C   UNL     1      -2.483  -1.327  -0.711  0.00  0.00    +0.001 A 
ATOM     23  C   UNL     1      -3.794  -1.725  -0.982  0.00  0.00    +0.010 A 
ATOM     24  C   UNL     1      -2.240  -0.062  -0.172  0.00  0.00    +0.010 A 
ATOM     25  C   UNL     1      -4.611   0.402  -0.180  0.00  0.00    -0.018 A 
ATOM     26  C   UNL     1      -4.856  -0.862  -0.717  0.00  0.00    +0.009 A 
ATOM     27  C   UNL     1      -3.303   0.802   0.093  0.00  0.00    +0.009 A 
BRANCH  25  28
ATOM     28  C   UNL     1      -5.714   1.298   0.094  0.00  0.00    -0.018 A 
ATOM     29  C   UNL     1      -6.152   2.185  -0.888  0.00  0.00    +0.008 A 
ATOM     30  C   UNL     1      -6.339   1.274   1.341  0.00  0.00    +0.008 A 
ATOM     31  C   UNL     1      -7.215   3.049  -0.625  0.00  0.00    +0.001 A 
ATOM     32  C   UNL     1      -7.402   2.137   1.605  0.00  0.00    +0.001 A 
ATOM     33  C   UNL     1      -7.840   3.025   0.622  0.00  0.00    +0.000 A 
ENDBRANCH  25  28
ENDBRANCH  18  21
TORSDOF 6
