MODEL 1
REMARK VINA RESULT:      -7.1      0.000      0.000
REMARK  Name = 45361626
REMARK  10 active torsions:
REMARK  status: ('A' for Active; 'I' for Inactive)
REMARK    1  A    between atoms: O_2  and  C_12
REMARK    2  A    between atoms: N_5  and  C_16
REMARK    3  A    between atoms: N_6  and  C_26
REMARK    4  A    between atoms: C_9  and  C_19
REMARK    5  A    between atoms: C_11  and  C_21
REMARK    6  A    between atoms: C_15  and  C_20
REMARK    7  A    between atoms: C_20  and  C_22
REMARK    8  A    between atoms: C_20  and  C_23
REMARK    9  A    between atoms: C_24  and  C_25
REMARK   10  A    between atoms: C_26  and  C_29
REMARK                            x       y       z     vdW  Elec       q    Type
REMARK                         _______ _______ _______ _____ _____    ______ ____
ROOT
ATOM      9  C   UNL     1     -15.260   7.676  20.908  0.00  0.00    -0.027 C 
ATOM     10  C   UNL     1     -14.017   6.758  21.156  0.00  0.00    +0.028 C 
ATOM     11  C   UNL     1     -14.200   5.915  22.470  0.00  0.00    +0.012 C 
ATOM     12  C   UNL     1     -12.691   7.564  21.058  0.00  0.00    +0.122 C 
ATOM     13  C   UNL     1     -15.099   8.405  19.553  0.00  0.00    +0.007 C 
ATOM     14  C   UNL     1     -16.528   6.796  20.822  0.00  0.00    +0.009 C 
ATOM     15  C   UNL     1     -12.583   8.374  19.745  0.00  0.00    +0.029 C 
ATOM     16  C   UNL     1     -15.517   5.092  22.403  0.00  0.00    +0.076 C 
ATOM     17  C   UNL     1     -13.820   9.227  19.468  0.00  0.00    +0.007 C 
ATOM     18  C   UNL     1     -16.744   5.936  22.058  0.00  0.00    +0.023 C 
ATOM     19  C   UNL     1     -15.448   8.735  22.024  0.00  0.00    +0.011 C 
ATOM     21  C   UNL     1     -13.024   4.966  22.760  0.00  0.00    +0.010 C 
ENDROOT
BRANCH  16   5
ATOM      4  O   UNL     1     -16.545   2.427  22.688  0.00  0.00    -0.270 OA
ATOM      5  N   UNL     1     -15.775   4.393  23.645  0.00  0.00    -0.308 N 
ATOM     24  C   UNL     1     -16.275   3.102  23.678  0.00  0.00    +0.247 C 
ATOM     36  H   UNL     1     -15.672   4.923  24.504  0.00  0.00    +0.149 HD
BRANCH  24  25
ATOM      7  N   UNL     1     -16.303   2.698  27.423  0.00  0.00    -0.243 NA
ATOM      8  N   UNL     1     -17.373   0.780  26.432  0.00  0.00    -0.243 NA
ATOM     25  C   UNL     1     -16.510   2.535  25.030  0.00  0.00    +0.073 A 
ATOM     27  C   UNL     1     -16.106   3.184  26.179  0.00  0.00    +0.127 A 
ATOM     28  C   UNL     1     -17.144   1.325  25.219  0.00  0.00    +0.127 A 
ATOM     32  C   UNL     1     -16.933   1.509  27.474  0.00  0.00    +0.221 A 
ENDBRANCH  24  25
ENDBRANCH  16   5
BRANCH  12   2
ATOM      2  O   UNL     1     -11.582   6.664  21.074  0.00  0.00    -0.391 OA
ATOM     37  H   UNL     1     -11.916   5.771  20.880  0.00  0.00    +0.210 HD
ENDBRANCH  12   2
BRANCH  15  20
ATOM     20  C   UNL     1     -11.333   9.262  19.726  0.00  0.00    +0.077 C 
ATOM     22  C   UNL     1     -11.565  10.515  20.564  0.00  0.00    +0.017 C 
BRANCH  20  23
ATOM      3  O   UNL     1     -10.713  10.763  17.930  0.00  0.00    -0.276 OA
ATOM      6  N   UNL     1     -10.965   8.508  17.452  0.00  0.00    -0.311 N 
ATOM     23  C   UNL     1     -10.969   9.616  18.287  0.00  0.00    +0.216 C 
ATOM     38  H   UNL     1     -11.135   7.584  17.835  0.00  0.00    +0.149 HD
BRANCH   6  26
ATOM     26  C   UNL     1     -10.652   8.591  16.044  0.00  0.00    +0.141 C 
BRANCH  26  29
ATOM      1 CL   UNL     1     -10.101   7.597  13.175  0.00  0.00    -0.083 Cl
ATOM     29  C   UNL     1     -11.829   8.234  15.185  0.00  0.00    -0.012 A 
ATOM     30  C   UNL     1     -11.669   7.776  13.877  0.00  0.00    +0.046 A 
ATOM     31  C   UNL     1     -13.108   8.367  15.724  0.00  0.00    +0.006 A 
ATOM     33  C   UNL     1     -12.787   7.453  13.109  0.00  0.00    +0.020 A 
ATOM     34  C   UNL     1     -14.227   8.045  14.956  0.00  0.00    +0.000 A 
ATOM     35  C   UNL     1     -14.067   7.588  13.649  0.00  0.00    +0.001 A 
ENDBRANCH  26  29
ENDBRANCH   6  26
ENDBRANCH  20  23
ENDBRANCH  15  20
TORSDOF 7
ENDMDL
MODEL 2
REMARK VINA RESULT:      -6.8     18.130     19.569
REMARK  Name = 45361626
REMARK  10 active torsions:
REMARK  status: ('A' for Active; 'I' for Inactive)
REMARK    1  A    between atoms: O_2  and  C_12
REMARK    2  A    between atoms: N_5  and  C_16
REMARK    3  A    between atoms: N_6  and  C_26
REMARK    4  A    between atoms: C_9  and  C_19
REMARK    5  A    between atoms: C_11  and  C_21
REMARK    6  A    between atoms: C_15  and  C_20
REMARK    7  A    between atoms: C_20  and  C_22
REMARK    8  A    between atoms: C_20  and  C_23
REMARK    9  A    between atoms: C_24  and  C_25
REMARK   10  A    between atoms: C_26  and  C_29
REMARK                            x       y       z     vdW  Elec       q    Type
REMARK                         _______ _______ _______ _____ _____    ______ ____
ROOT
ATOM      9  C   UNL     1      -4.770 -11.035  16.892  0.00  0.00    -0.027 C 
ATOM     10  C   UNL     1      -5.564 -10.424  15.689  0.00  0.00    +0.028 C 
ATOM     11  C   UNL     1      -7.113 -10.530  15.932  0.00  0.00    +0.012 C 
ATOM     12  C   UNL     1      -5.059 -10.993  14.332  0.00  0.00    +0.122 C 
ATOM     13  C   UNL     1      -3.254 -10.813  16.674  0.00  0.00    +0.007 C 
ATOM     14  C   UNL     1      -5.172 -10.297  18.189  0.00  0.00    +0.009 C 
ATOM     15  C   UNL     1      -3.527 -10.862  14.166  0.00  0.00    +0.029 C 
ATOM     16  C   UNL     1      -7.495  -9.849  17.276  0.00  0.00    +0.076 C 
ATOM     17  C   UNL     1      -2.749 -11.403  15.364  0.00  0.00    +0.007 C 
ATOM     18  C   UNL     1      -6.668 -10.343  18.463  0.00  0.00    +0.023 C 
ATOM     19  C   UNL     1      -5.030 -12.553  17.066  0.00  0.00    +0.011 C 
ATOM     21  C   UNL     1      -7.956  -9.921  14.798  0.00  0.00    +0.010 C 
ENDROOT
BRANCH  16   5
ATOM      4  O   UNL     1      -9.489  -7.792  17.453  0.00  0.00    -0.270 OA
ATOM      5  N   UNL     1      -8.898 -10.029  17.588  0.00  0.00    -0.308 N 
ATOM     24  C   UNL     1      -9.784  -8.968  17.650  0.00  0.00    +0.247 C 
ATOM     36  H   UNL     1      -9.195 -10.960  17.862  0.00  0.00    +0.149 HD
BRANCH  24  25
ATOM      7  N   UNL     1     -12.766 -10.251  19.561  0.00  0.00    -0.243 NA
ATOM      8  N   UNL     1     -13.526  -9.357  17.457  0.00  0.00    -0.243 NA
ATOM     25  C   UNL     1     -11.183  -9.315  18.008  0.00  0.00    +0.073 A 
ATOM     27  C   UNL     1     -11.507  -9.922  19.205  0.00  0.00    +0.127 A 
ATOM     28  C   UNL     1     -12.243  -9.055  17.165  0.00  0.00    +0.127 A 
ATOM     32  C   UNL     1     -13.712  -9.944  18.654  0.00  0.00    +0.221 A 
ENDBRANCH  24  25
ENDBRANCH  16   5
BRANCH  12   2
ATOM      2  O   UNL     1      -5.650 -10.261  13.258  0.00  0.00    -0.391 OA
ATOM     37  H   UNL     1      -5.990 -10.899  12.608  0.00  0.00    +0.210 HD
ENDBRANCH  12   2
BRANCH  15  20
ATOM     20  C   UNL     1      -3.034 -11.544  12.884  0.00  0.00    +0.077 C 
ATOM     22  C   UNL     1      -1.832 -12.432  13.190  0.00  0.00    +0.017 C 
BRANCH  20  23
ATOM      3  O   UNL     1      -1.607  -9.922  11.791  0.00  0.00    -0.276 OA
ATOM      6  N   UNL     1      -3.741 -10.265  10.951  0.00  0.00    -0.311 N 
ATOM     23  C   UNL     1      -2.694 -10.493  11.832  0.00  0.00    +0.216 C 
ATOM     38  H   UNL     1      -4.590 -10.817  11.019  0.00  0.00    +0.149 HD
BRANCH   6  26
ATOM     26  C   UNL     1      -3.659  -9.311   9.869  0.00  0.00    +0.141 C 
BRANCH  26  29
ATOM      1 CL   UNL     1      -4.457 -11.310   7.657  0.00  0.00    -0.083 Cl
ATOM     29  C   UNL     1      -4.982  -9.117   9.188  0.00  0.00    -0.012 A 
ATOM     30  C   UNL     1      -5.420  -9.974   8.179  0.00  0.00    +0.046 A 
ATOM     31  C   UNL     1      -5.782  -8.047   9.589  0.00  0.00    +0.006 A 
ATOM     33  C   UNL     1      -6.656  -9.762   7.570  0.00  0.00    +0.020 A 
ATOM     34  C   UNL     1      -7.018  -7.833   8.979  0.00  0.00    +0.000 A 
ATOM     35  C   UNL     1      -7.455  -8.690   7.970  0.00  0.00    +0.001 A 
ENDBRANCH  26  29
ENDBRANCH   6  26
ENDBRANCH  20  23
ENDBRANCH  15  20
TORSDOF 7
ENDMDL
MODEL 3
REMARK VINA RESULT:      -6.8     19.257     22.220
REMARK  Name = 45361626
REMARK  10 active torsions:
REMARK  status: ('A' for Active; 'I' for Inactive)
REMARK    1  A    between atoms: O_2  and  C_12
REMARK    2  A    between atoms: N_5  and  C_16
REMARK    3  A    between atoms: N_6  and  C_26
REMARK    4  A    between atoms: C_9  and  C_19
REMARK    5  A    between atoms: C_11  and  C_21
REMARK    6  A    between atoms: C_15  and  C_20
REMARK    7  A    between atoms: C_20  and  C_22
REMARK    8  A    between atoms: C_20  and  C_23
REMARK    9  A    between atoms: C_24  and  C_25
REMARK   10  A    between atoms: C_26  and  C_29
REMARK                            x       y       z     vdW  Elec       q    Type
REMARK                         _______ _______ _______ _____ _____    ______ ____
ROOT
ATOM      9  C   UNL     1      -3.338 -11.595  11.829  0.00  0.00    -0.027 C 
ATOM     10  C   UNL     1      -4.636 -10.934  12.401  0.00  0.00    +0.028 C 
ATOM     11  C   UNL     1      -5.316 -10.014  11.324  0.00  0.00    +0.012 C 
ATOM     12  C   UNL     1      -4.369 -10.265  13.780  0.00  0.00    +0.122 C 
ATOM     13  C   UNL     1      -2.758 -12.579  12.872  0.00  0.00    +0.007 C 
ATOM     14  C   UNL     1      -3.700 -12.408  10.565  0.00  0.00    +0.009 C 
ATOM     15  C   UNL     1      -3.693 -11.225  14.786  0.00  0.00    +0.029 C 
ATOM     16  C   UNL     1      -5.607 -10.825  10.030  0.00  0.00    +0.076 C 
ATOM     17  C   UNL     1      -2.458 -11.918  14.211  0.00  0.00    +0.007 C 
ATOM     18  C   UNL     1      -4.387 -11.573   9.494  0.00  0.00    +0.023 C 
ATOM     19  C   UNL     1      -2.249 -10.551  11.470  0.00  0.00    +0.011 C 
ATOM     21  C   UNL     1      -6.617  -9.354  11.811  0.00  0.00    +0.010 C 
ENDROOT
BRANCH  16   5
ATOM      4  O   UNL     1      -7.603 -11.536   8.092  0.00  0.00    -0.270 OA
ATOM      5  N   UNL     1      -6.128  -9.981   8.975  0.00  0.00    -0.308 N 
ATOM     24  C   UNL     1      -7.094 -10.418   8.085  0.00  0.00    +0.247 C 
ATOM     36  H   UNL     1      -5.683  -9.078   8.842  0.00  0.00    +0.149 HD
BRANCH  24  25
ATOM      7  N   UNL     1      -9.077  -7.820   6.211  0.00  0.00    -0.243 NA
ATOM      8  N   UNL     1      -7.082  -8.321   4.956  0.00  0.00    -0.243 NA
ATOM     25  C   UNL     1      -7.504  -9.441   7.044  0.00  0.00    +0.073 A 
ATOM     27  C   UNL     1      -8.674  -8.715   7.138  0.00  0.00    +0.127 A 
ATOM     28  C   UNL     1      -6.740  -9.201   5.921  0.00  0.00    +0.127 A 
ATOM     32  C   UNL     1      -8.244  -7.676   5.162  0.00  0.00    +0.221 A 
ENDBRANCH  24  25
ENDBRANCH  16   5
BRANCH  12   2
ATOM      2  O   UNL     1      -5.609  -9.866  14.365  0.00  0.00    -0.391 OA
ATOM     37  H   UNL     1      -6.246  -9.710  13.647  0.00  0.00    +0.210 HD
ENDBRANCH  12   2
BRANCH  15  20
ATOM     20  C   UNL     1      -3.319 -10.510  16.090  0.00  0.00    +0.077 C 
ATOM     22  C   UNL     1      -1.828 -10.672  16.369  0.00  0.00    +0.017 C 
BRANCH  20  23
ATOM      3  O   UNL     1      -3.704 -11.798  18.105  0.00  0.00    -0.276 OA
ATOM      6  N   UNL     1      -5.476 -10.615  17.189  0.00  0.00    -0.311 N 
ATOM     23  C   UNL     1      -4.161 -11.054  17.241  0.00  0.00    +0.216 C 
ATOM     38  H   UNL     1      -5.764  -9.958  16.472  0.00  0.00    +0.149 HD
BRANCH   6  26
ATOM     26  C   UNL     1      -6.466 -10.998  18.169  0.00  0.00    +0.141 C 
BRANCH  26  29
ATOM      1 CL   UNL     1      -8.942 -12.006  19.711  0.00  0.00    -0.083 Cl
ATOM     29  C   UNL     1      -7.763 -10.269  17.973  0.00  0.00    -0.012 A 
ATOM     30  C   UNL     1      -8.930 -10.659  18.631  0.00  0.00    +0.046 A 
ATOM     31  C   UNL     1      -7.784  -9.176  17.106  0.00  0.00    +0.006 A 
ATOM     33  C   UNL     1     -10.116  -9.956  18.423  0.00  0.00    +0.020 A 
ATOM     34  C   UNL     1      -8.971  -8.474  16.897  0.00  0.00    +0.000 A 
ATOM     35  C   UNL     1     -10.137  -8.864  17.555  0.00  0.00    +0.001 A 
ENDBRANCH  26  29
ENDBRANCH   6  26
ENDBRANCH  20  23
ENDBRANCH  15  20
TORSDOF 7
ENDMDL
MODEL 4
REMARK VINA RESULT:      -6.7     25.907     30.179
REMARK  Name = 45361626
REMARK  10 active torsions:
REMARK  status: ('A' for Active; 'I' for Inactive)
REMARK    1  A    between atoms: O_2  and  C_12
REMARK    2  A    between atoms: N_5  and  C_16
REMARK    3  A    between atoms: N_6  and  C_26
REMARK    4  A    between atoms: C_9  and  C_19
REMARK    5  A    between atoms: C_11  and  C_21
REMARK    6  A    between atoms: C_15  and  C_20
REMARK    7  A    between atoms: C_20  and  C_22
REMARK    8  A    between atoms: C_20  and  C_23
REMARK    9  A    between atoms: C_24  and  C_25
REMARK   10  A    between atoms: C_26  and  C_29
REMARK                            x       y       z     vdW  Elec       q    Type
REMARK                         _______ _______ _______ _____ _____    ______ ____
ROOT
ATOM      9  C   UNL     1       9.561   6.193   5.957  0.00  0.00    -0.027 C 
ATOM     10  C   UNL     1      10.450   7.418   5.557  0.00  0.00    +0.028 C 
ATOM     11  C   UNL     1       9.894   8.742   6.194  0.00  0.00    +0.012 C 
ATOM     12  C   UNL     1      10.689   7.464   4.021  0.00  0.00    +0.122 C 
ATOM     13  C   UNL     1      10.198   4.894   5.409  0.00  0.00    +0.007 C 
ATOM     14  C   UNL     1       9.519   6.082   7.499  0.00  0.00    +0.009 C 
ATOM     15  C   UNL     1      11.228   6.127   3.463  0.00  0.00    +0.029 C 
ATOM     16  C   UNL     1       9.785   8.592   7.738  0.00  0.00    +0.076 C 
ATOM     17  C   UNL     1      10.397   4.920   3.900  0.00  0.00    +0.007 C 
ATOM     18  C   UNL     1       9.012   7.348   8.174  0.00  0.00    +0.023 C 
ATOM     19  C   UNL     1       8.114   6.305   5.413  0.00  0.00    +0.011 C 
ATOM     21  C   UNL     1      10.738   9.985   5.865  0.00  0.00    +0.010 C 
ENDROOT
BRANCH  16   5
ATOM      4  O   UNL     1      11.107  10.644   9.249  0.00  0.00    -0.270 OA
ATOM      5  N   UNL     1       9.167   9.753   8.346  0.00  0.00    -0.308 N 
ATOM     24  C   UNL     1       9.895  10.690   9.059  0.00  0.00    +0.247 C 
ATOM     36  H   UNL     1       8.154   9.805   8.319  0.00  0.00    +0.149 HD
BRANCH  24  25
ATOM      7  N   UNL     1       7.834  13.829   9.360  0.00  0.00    -0.243 NA
ATOM      8  N   UNL     1       8.189  12.926  11.565  0.00  0.00    -0.243 NA
ATOM     25  C   UNL     1       9.111  11.808   9.643  0.00  0.00    +0.073 A 
ATOM     27  C   UNL     1       8.552  12.800   8.863  0.00  0.00    +0.127 A 
ATOM     28  C   UNL     1       8.895  11.924  11.001  0.00  0.00    +0.127 A 
ATOM     32  C   UNL     1       7.695  13.830  10.699  0.00  0.00    +0.221 A 
ENDBRANCH  24  25
ENDBRANCH  16   5
BRANCH  12   2
ATOM      2  O   UNL     1      11.670   8.457   3.720  0.00  0.00    -0.391 OA
ATOM     37  H   UNL     1      12.161   8.168   2.932  0.00  0.00    +0.210 HD
ENDBRANCH  12   2
BRANCH  15  20
ATOM     20  C   UNL     1      11.332   6.150   1.933  0.00  0.00    +0.077 C 
ATOM     22  C   UNL     1      10.008   5.723   1.309  0.00  0.00    +0.017 C 
BRANCH  20  23
ATOM      3  O   UNL     1      13.635   5.405   1.856  0.00  0.00    -0.276 OA
ATOM      6  N   UNL     1      12.057   4.261   0.598  0.00  0.00    -0.311 N 
ATOM     23  C   UNL     1      12.477   5.250   1.476  0.00  0.00    +0.216 C 
ATOM     38  H   UNL     1      11.073   4.166   0.375  0.00  0.00    +0.149 HD
BRANCH   6  26
ATOM     26  C   UNL     1      12.961   3.289   0.027  0.00  0.00    +0.141 C 
BRANCH  26  29
ATOM      1 CL   UNL     1      15.009   5.152  -1.336  0.00  0.00    -0.083 Cl
ATOM     29  C   UNL     1      12.973   3.346  -1.473  0.00  0.00    -0.012 A 
ATOM     30  C   UNL     1      13.866   4.161  -2.168  0.00  0.00    +0.046 A 
ATOM     31  C   UNL     1      12.061   2.556  -2.172  0.00  0.00    +0.006 A 
ATOM     33  C   UNL     1      13.847   4.186  -3.562  0.00  0.00    +0.020 A 
ATOM     34  C   UNL     1      12.042   2.581  -3.567  0.00  0.00    +0.000 A 
ATOM     35  C   UNL     1      12.935   3.396  -4.262  0.00  0.00    +0.001 A 
ENDBRANCH  26  29
ENDBRANCH   6  26
ENDBRANCH  20  23
ENDBRANCH  15  20
TORSDOF 7
ENDMDL
MODEL 5
REMARK VINA RESULT:      -6.7     26.025     30.069
REMARK  Name = 45361626
REMARK  10 active torsions:
REMARK  status: ('A' for Active; 'I' for Inactive)
REMARK    1  A    between atoms: O_2  and  C_12
REMARK    2  A    between atoms: N_5  and  C_16
REMARK    3  A    between atoms: N_6  and  C_26
REMARK    4  A    between atoms: C_9  and  C_19
REMARK    5  A    between atoms: C_11  and  C_21
REMARK    6  A    between atoms: C_15  and  C_20
REMARK    7  A    between atoms: C_20  and  C_22
REMARK    8  A    between atoms: C_20  and  C_23
REMARK    9  A    between atoms: C_24  and  C_25
REMARK   10  A    between atoms: C_26  and  C_29
REMARK                            x       y       z     vdW  Elec       q    Type
REMARK                         _______ _______ _______ _____ _____    ______ ____
ROOT
ATOM      9  C   UNL     1       9.489   6.088   6.044  0.00  0.00    -0.027 C 
ATOM     10  C   UNL     1      10.414   7.267   5.595  0.00  0.00    +0.028 C 
ATOM     11  C   UNL     1       9.872   8.639   6.136  0.00  0.00    +0.012 C 
ATOM     12  C   UNL     1      10.693   7.215   4.065  0.00  0.00    +0.122 C 
ATOM     13  C   UNL     1      10.110   4.745   5.593  0.00  0.00    +0.007 C 
ATOM     14  C   UNL     1       9.404   6.072   7.588  0.00  0.00    +0.009 C 
ATOM     15  C   UNL     1      11.216   5.835   3.603  0.00  0.00    +0.029 C 
ATOM     16  C   UNL     1       9.720   8.586   7.682  0.00  0.00    +0.076 C 
ATOM     17  C   UNL     1      10.348   4.675   4.090  0.00  0.00    +0.007 C 
ATOM     18  C   UNL     1       8.909   7.387   8.172  0.00  0.00    +0.023 C 
ATOM     19  C   UNL     1       8.059   6.197   5.456  0.00  0.00    +0.011 C 
ATOM     21  C   UNL     1      10.752   9.842   5.755  0.00  0.00    +0.010 C 
ENDROOT
BRANCH  16   5
ATOM      4  O   UNL     1      11.020  10.630   9.224  0.00  0.00    -0.270 OA
ATOM      5  N   UNL     1       9.114   9.794   8.203  0.00  0.00    -0.308 N 
ATOM     24  C   UNL     1       9.828  10.723   8.939  0.00  0.00    +0.247 C 
ATOM     36  H   UNL     1       8.110   9.890   8.095  0.00  0.00    +0.149 HD
BRANCH  24  25
ATOM      7  N   UNL     1       8.036  14.035   9.008  0.00  0.00    -0.243 NA
ATOM      8  N   UNL     1       7.910  13.045  11.201  0.00  0.00    -0.243 NA
ATOM     25  C   UNL     1       9.056  11.895   9.424  0.00  0.00    +0.073 A 
ATOM     27  C   UNL     1       8.736  12.956   8.601  0.00  0.00    +0.127 A 
ATOM     28  C   UNL     1       8.613  11.995  10.727  0.00  0.00    +0.127 A 
ATOM     32  C   UNL     1       7.660  14.014  10.301  0.00  0.00    +0.221 A 
ENDBRANCH  24  25
ENDBRANCH  16   5
BRANCH  12   2
ATOM      2  O   UNL     1      11.704   8.167   3.732  0.00  0.00    -0.391 OA
ATOM     37  H   UNL     1      11.436   9.030   4.092  0.00  0.00    +0.210 HD
ENDBRANCH  12   2
BRANCH  15  20
ATOM     20  C   UNL     1      11.360   5.763   2.078  0.00  0.00    +0.077 C 
ATOM     22  C   UNL     1      10.883   4.407   1.569  0.00  0.00    +0.017 C 
BRANCH  20  23
ATOM      3  O   UNL     1      13.179   6.063   0.508  0.00  0.00    -0.276 OA
ATOM      6  N   UNL     1      13.635   6.221   2.777  0.00  0.00    -0.311 N 
ATOM     23  C   UNL     1      12.808   6.029   1.679  0.00  0.00    +0.216 C 
ATOM     38  H   UNL     1      13.242   6.230   3.712  0.00  0.00    +0.149 HD
BRANCH   6  26
ATOM     26  C   UNL     1      15.049   6.486   2.652  0.00  0.00    +0.141 C 
BRANCH  26  29
ATOM      1 CL   UNL     1      17.605   8.159   2.211  0.00  0.00    -0.083 Cl
ATOM     29  C   UNL     1      15.575   7.287   3.808  0.00  0.00    -0.012 A 
ATOM     30  C   UNL     1      16.724   8.070   3.694  0.00  0.00    +0.046 A 
ATOM     31  C   UNL     1      14.884   7.235   5.018  0.00  0.00    +0.006 A 
ATOM     33  C   UNL     1      17.181   8.800   4.790  0.00  0.00    +0.020 A 
ATOM     34  C   UNL     1      15.342   7.965   6.115  0.00  0.00    +0.000 A 
ATOM     35  C   UNL     1      16.490   8.748   6.001  0.00  0.00    +0.001 A 
ENDBRANCH  26  29
ENDBRANCH   6  26
ENDBRANCH  20  23
ENDBRANCH  15  20
TORSDOF 7
ENDMDL
MODEL 6
REMARK VINA RESULT:      -6.7     19.395     22.513
REMARK  Name = 45361626
REMARK  10 active torsions:
REMARK  status: ('A' for Active; 'I' for Inactive)
REMARK    1  A    between atoms: O_2  and  C_12
REMARK    2  A    between atoms: N_5  and  C_16
REMARK    3  A    between atoms: N_6  and  C_26
REMARK    4  A    between atoms: C_9  and  C_19
REMARK    5  A    between atoms: C_11  and  C_21
REMARK    6  A    between atoms: C_15  and  C_20
REMARK    7  A    between atoms: C_20  and  C_22
REMARK    8  A    between atoms: C_20  and  C_23
REMARK    9  A    between atoms: C_24  and  C_25
REMARK   10  A    between atoms: C_26  and  C_29
REMARK                            x       y       z     vdW  Elec       q    Type
REMARK                         _______ _______ _______ _____ _____    ______ ____
ROOT
ATOM      9  C   UNL     1      -6.852 -10.489  11.371  0.00  0.00    -0.027 C 
ATOM     10  C   UNL     1      -5.630  -9.785  10.691  0.00  0.00    +0.028 C 
ATOM     11  C   UNL     1      -5.880  -9.599   9.151  0.00  0.00    +0.012 C 
ATOM     12  C   UNL     1      -4.293 -10.481  11.073  0.00  0.00    +0.122 C 
ATOM     13  C   UNL     1      -6.623 -10.554  12.900  0.00  0.00    +0.007 C 
ATOM     14  C   UNL     1      -8.124  -9.646  11.121  0.00  0.00    +0.009 C 
ATOM     15  C   UNL     1      -4.119 -10.637  12.601  0.00  0.00    +0.029 C 
ATOM     16  C   UNL     1      -7.200  -8.815   8.910  0.00  0.00    +0.076 C 
ATOM     17  C   UNL     1      -5.334 -11.270  13.278  0.00  0.00    +0.007 C 
ATOM     18  C   UNL     1      -8.403  -9.411   9.643  0.00  0.00    +0.023 C 
ATOM     19  C   UNL     1      -7.080 -11.927  10.840  0.00  0.00    +0.011 C 
ATOM     21  C   UNL     1      -4.728  -8.885   8.423  0.00  0.00    +0.010 C 
ENDROOT
BRANCH  16   5
ATOM      4  O   UNL     1      -8.332  -6.555   7.548  0.00  0.00    -0.270 OA
ATOM      5  N   UNL     1      -7.521  -8.726   7.501  0.00  0.00    -0.308 N 
ATOM     24  C   UNL     1      -8.067  -7.587   6.936  0.00  0.00    +0.247 C 
ATOM     36  H   UNL     1      -7.426  -9.573   6.950  0.00  0.00    +0.149 HD
BRANCH  24  25
ATOM      7  N   UNL     1      -7.780  -8.426   3.275  0.00  0.00    -0.243 NA
ATOM      8  N   UNL     1      -9.774  -7.117   3.611  0.00  0.00    -0.243 NA
ATOM     25  C   UNL     1      -8.363  -7.664   5.483  0.00  0.00    +0.073 A 
ATOM     27  C   UNL     1      -7.542  -8.336   4.600  0.00  0.00    +0.127 A 
ATOM     28  C   UNL     1      -9.476  -7.067   4.927  0.00  0.00    +0.127 A 
ATOM     32  C   UNL     1      -8.898  -7.802   2.855  0.00  0.00    +0.221 A 
ENDBRANCH  24  25
ENDBRANCH  16   5
BRANCH  12   2
ATOM      2  O   UNL     1      -3.195  -9.691  10.615  0.00  0.00    -0.391 OA
ATOM     37  H   UNL     1      -3.029  -8.995  11.273  0.00  0.00    +0.210 HD
ENDBRANCH  12   2
BRANCH  15  20
ATOM     20  C   UNL     1      -2.860 -11.441  12.951  0.00  0.00    +0.077 C 
ATOM     22  C   UNL     1      -2.787 -12.701  12.096  0.00  0.00    +0.017 C 
BRANCH  20  23
ATOM      3  O   UNL     1      -2.771 -12.930  14.859  0.00  0.00    -0.276 OA
ATOM      6  N   UNL     1      -2.958 -10.649  15.239  0.00  0.00    -0.311 N 
ATOM     23  C   UNL     1      -2.856 -11.778  14.439  0.00  0.00    +0.216 C 
ATOM     38  H   UNL     1      -2.970  -9.727  14.817  0.00  0.00    +0.149 HD
BRANCH   6  26
ATOM     26  C   UNL     1      -2.977 -10.714  16.683  0.00  0.00    +0.141 C 
BRANCH  26  29
ATOM      1 CL   UNL     1      -3.602 -12.065  19.386  0.00  0.00    -0.083 Cl
ATOM     29  C   UNL     1      -4.366 -10.578  17.234  0.00  0.00    -0.012 A 
ATOM     30  C   UNL     1      -4.733 -11.157  18.449  0.00  0.00    +0.046 A 
ATOM     31  C   UNL     1      -5.301  -9.849  16.499  0.00  0.00    +0.006 A 
ATOM     33  C   UNL     1      -6.033 -11.008  18.928  0.00  0.00    +0.020 A 
ATOM     34  C   UNL     1      -6.603  -9.700  16.979  0.00  0.00    +0.000 A 
ATOM     35  C   UNL     1      -6.969 -10.279  18.193  0.00  0.00    +0.001 A 
ENDBRANCH  26  29
ENDBRANCH   6  26
ENDBRANCH  20  23
ENDBRANCH  15  20
TORSDOF 7
ENDMDL
MODEL 7
REMARK VINA RESULT:      -6.6     32.069     35.109
REMARK  Name = 45361626
REMARK  10 active torsions:
REMARK  status: ('A' for Active; 'I' for Inactive)
REMARK    1  A    between atoms: O_2  and  C_12
REMARK    2  A    between atoms: N_5  and  C_16
REMARK    3  A    between atoms: N_6  and  C_26
REMARK    4  A    between atoms: C_9  and  C_19
REMARK    5  A    between atoms: C_11  and  C_21
REMARK    6  A    between atoms: C_15  and  C_20
REMARK    7  A    between atoms: C_20  and  C_22
REMARK    8  A    between atoms: C_20  and  C_23
REMARK    9  A    between atoms: C_24  and  C_25
REMARK   10  A    between atoms: C_26  and  C_29
REMARK                            x       y       z     vdW  Elec       q    Type
REMARK                         _______ _______ _______ _____ _____    ______ ____
ROOT
ATOM      9  C   UNL     1      20.518   7.800  21.959  0.00  0.00    -0.027 C 
ATOM     10  C   UNL     1      20.164   6.787  20.819  0.00  0.00    +0.028 C 
ATOM     11  C   UNL     1      18.635   6.424  20.851  0.00  0.00    +0.012 C 
ATOM     12  C   UNL     1      21.140   5.576  20.818  0.00  0.00    +0.122 C 
ATOM     13  C   UNL     1      22.001   8.223  21.831  0.00  0.00    +0.007 C 
ATOM     14  C   UNL     1      19.651   9.069  21.794  0.00  0.00    +0.009 C 
ATOM     15  C   UNL     1      22.624   6.007  20.794  0.00  0.00    +0.029 C 
ATOM     16  C   UNL     1      17.774   7.715  20.759  0.00  0.00    +0.076 C 
ATOM     17  C   UNL     1      22.961   7.041  21.869  0.00  0.00    +0.007 C 
ATOM     18  C   UNL     1      18.158   8.776  21.790  0.00  0.00    +0.023 C 
ATOM     19  C   UNL     1      20.291   7.207  23.373  0.00  0.00    +0.011 C 
ATOM     21  C   UNL     1      18.212   5.453  19.736  0.00  0.00    +0.010 C 
ENDROOT
BRANCH  16   5
ATOM      4  O   UNL     1      15.605   9.094  19.479  0.00  0.00    -0.270 OA
ATOM      5  N   UNL     1      16.362   7.427  20.901  0.00  0.00    -0.308 N 
ATOM     24  C   UNL     1      15.387   8.154  20.239  0.00  0.00    +0.247 C 
ATOM     36  H   UNL     1      16.099   6.730  21.591  0.00  0.00    +0.149 HD
BRANCH  24  25
ATOM      7  N   UNL     1      12.035   7.812  21.922  0.00  0.00    -0.243 NA
ATOM      8  N   UNL     1      11.996   6.558  19.865  0.00  0.00    -0.243 NA
ATOM     25  C   UNL     1      13.984   7.751  20.511  0.00  0.00    +0.073 A 
ATOM     27  C   UNL     1      13.309   8.159  21.644  0.00  0.00    +0.127 A 
ATOM     28  C   UNL     1      13.271   6.944  19.649  0.00  0.00    +0.127 A 
ATOM     32  C   UNL     1      11.448   7.022  21.004  0.00  0.00    +0.221 A 
ENDBRANCH  24  25
ENDBRANCH  16   5
BRANCH  12   2
ATOM      2  O   UNL     1      20.924   4.791  19.644  0.00  0.00    -0.391 OA
ATOM     37  H   UNL     1      20.496   3.960  19.911  0.00  0.00    +0.210 HD
ENDBRANCH  12   2
BRANCH  15  20
ATOM     20  C   UNL     1      23.568   4.806  20.926  0.00  0.00    +0.077 C 
ATOM     22  C   UNL     1      23.327   4.090  22.251  0.00  0.00    +0.017 C 
BRANCH  20  23
ATOM      3  O   UNL     1      25.749   5.433  21.772  0.00  0.00    -0.276 OA
ATOM      6  N   UNL     1      25.395   5.470  19.480  0.00  0.00    -0.311 N 
ATOM     23  C   UNL     1      25.017   5.266  20.799  0.00  0.00    +0.216 C 
ATOM     38  H   UNL     1      24.748   5.259  18.728  0.00  0.00    +0.149 HD
BRANCH   6  26
ATOM     26  C   UNL     1      26.720   5.910  19.106  0.00  0.00    +0.141 C 
BRANCH  26  29
ATOM      1 CL   UNL     1      25.707   8.799  19.494  0.00  0.00    -0.083 Cl
ATOM     29  C   UNL     1      26.695   6.815  17.909  0.00  0.00    -0.012 A 
ATOM     30  C   UNL     1      26.253   8.135  17.997  0.00  0.00    +0.046 A 
ATOM     31  C   UNL     1      27.130   6.306  16.686  0.00  0.00    +0.006 A 
ATOM     33  C   UNL     1      26.245   8.945  16.862  0.00  0.00    +0.020 A 
ATOM     34  C   UNL     1      27.122   7.116  15.550  0.00  0.00    +0.000 A 
ATOM     35  C   UNL     1      26.680   8.435  15.638  0.00  0.00    +0.001 A 
ENDBRANCH  26  29
ENDBRANCH   6  26
ENDBRANCH  20  23
ENDBRANCH  15  20
TORSDOF 7
ENDMDL
MODEL 8
REMARK VINA RESULT:      -6.5     19.471     20.996
REMARK  Name = 45361626
REMARK  10 active torsions:
REMARK  status: ('A' for Active; 'I' for Inactive)
REMARK    1  A    between atoms: O_2  and  C_12
REMARK    2  A    between atoms: N_5  and  C_16
REMARK    3  A    between atoms: N_6  and  C_26
REMARK    4  A    between atoms: C_9  and  C_19
REMARK    5  A    between atoms: C_11  and  C_21
REMARK    6  A    between atoms: C_15  and  C_20
REMARK    7  A    between atoms: C_20  and  C_22
REMARK    8  A    between atoms: C_20  and  C_23
REMARK    9  A    between atoms: C_24  and  C_25
REMARK   10  A    between atoms: C_26  and  C_29
REMARK                            x       y       z     vdW  Elec       q    Type
REMARK                         _______ _______ _______ _____ _____    ______ ____
ROOT
ATOM      9  C   UNL     1      -4.916 -11.249  17.848  0.00  0.00    -0.027 C 
ATOM     10  C   UNL     1      -5.667 -12.357  17.036  0.00  0.00    +0.028 C 
ATOM     11  C   UNL     1      -6.488 -13.292  17.995  0.00  0.00    +0.012 C 
ATOM     12  C   UNL     1      -4.707 -13.085  16.052  0.00  0.00    +0.122 C 
ATOM     13  C   UNL     1      -4.211 -10.281  16.868  0.00  0.00    +0.007 C 
ATOM     14  C   UNL     1      -5.947 -10.431  18.659  0.00  0.00    +0.009 C 
ATOM     15  C   UNL     1      -3.927 -12.104  15.146  0.00  0.00    +0.029 C 
ATOM     16  C   UNL     1      -7.469 -12.449  18.859  0.00  0.00    +0.076 C 
ATOM     17  C   UNL     1      -3.241 -10.986  15.930  0.00  0.00    +0.007 C 
ATOM     18  C   UNL     1      -6.792 -11.289  19.589  0.00  0.00    +0.023 C 
ATOM     19  C   UNL     1      -3.856 -11.837  18.815  0.00  0.00    +0.011 C 
ATOM     21  C   UNL     1      -7.277 -14.388  17.259  0.00  0.00    +0.010 C 
ENDROOT
BRANCH  16   5
ATOM      4  O   UNL     1     -10.216 -12.211  19.659  0.00  0.00    -0.270 OA
ATOM      5  N   UNL     1      -8.159 -13.265  19.836  0.00  0.00    -0.308 N 
ATOM     24  C   UNL     1      -9.492 -13.071  20.154  0.00  0.00    +0.247 C 
ATOM     36  H   UNL     1      -7.600 -13.930  20.361  0.00  0.00    +0.149 HD
BRANCH  24  25
ATOM      7  N   UNL     1      -9.784 -15.851  22.678  0.00  0.00    -0.243 NA
ATOM      8  N   UNL     1     -11.862 -14.633  22.630  0.00  0.00    -0.243 NA
ATOM     25  C   UNL     1     -10.046 -13.974  21.195  0.00  0.00    +0.073 A 
ATOM     27  C   UNL     1      -9.313 -15.012  21.732  0.00  0.00    +0.127 A 
ATOM     28  C   UNL     1     -11.327 -13.830  21.686  0.00  0.00    +0.127 A 
ATOM     32  C   UNL     1     -11.048 -15.607  23.075  0.00  0.00    +0.221 A 
ENDBRANCH  24  25
ENDBRANCH  16   5
BRANCH  12   2
ATOM      2  O   UNL     1      -5.463 -13.930  15.184  0.00  0.00    -0.391 OA
ATOM     37  H   UNL     1      -6.257 -13.442  14.904  0.00  0.00    +0.210 HD
ENDBRANCH  12   2
BRANCH  15  20
ATOM     20  C   UNL     1      -2.893 -12.832  14.278  0.00  0.00    +0.077 C 
ATOM     22  C   UNL     1      -1.536 -12.144  14.391  0.00  0.00    +0.017 C 
BRANCH  20  23
ATOM      3  O   UNL     1      -2.699 -13.369  11.925  0.00  0.00    -0.276 OA
ATOM      6  N   UNL     1      -4.631 -12.321  12.668  0.00  0.00    -0.311 N 
ATOM     23  C   UNL     1      -3.372 -12.882  12.831  0.00  0.00    +0.216 C 
ATOM     38  H   UNL     1      -5.145 -11.987  13.476  0.00  0.00    +0.149 HD
BRANCH   6  26
ATOM     26  C   UNL     1      -5.294 -12.250  11.387  0.00  0.00    +0.141 C 
BRANCH  26  29
ATOM      1 CL   UNL     1      -4.332 -12.204   8.455  0.00  0.00    -0.083 Cl
ATOM     29  C   UNL     1      -5.105 -10.915  10.728  0.00  0.00    -0.012 A 
ATOM     30  C   UNL     1      -4.673 -10.804   9.407  0.00  0.00    +0.046 A 
ATOM     31  C   UNL     1      -5.373  -9.765  11.472  0.00  0.00    +0.006 A 
ATOM     33  C   UNL     1      -4.509  -9.546   8.830  0.00  0.00    +0.020 A 
ATOM     34  C   UNL     1      -5.208  -8.506  10.895  0.00  0.00    +0.000 A 
ATOM     35  C   UNL     1      -4.776  -8.396   9.574  0.00  0.00    +0.001 A 
ENDBRANCH  26  29
ENDBRANCH   6  26
ENDBRANCH  20  23
ENDBRANCH  15  20
TORSDOF 7
ENDMDL
MODEL 9
REMARK VINA RESULT:      -6.5     18.389     20.205
REMARK  Name = 45361626
REMARK  10 active torsions:
REMARK  status: ('A' for Active; 'I' for Inactive)
REMARK    1  A    between atoms: O_2  and  C_12
REMARK    2  A    between atoms: N_5  and  C_16
REMARK    3  A    between atoms: N_6  and  C_26
REMARK    4  A    between atoms: C_9  and  C_19
REMARK    5  A    between atoms: C_11  and  C_21
REMARK    6  A    between atoms: C_15  and  C_20
REMARK    7  A    between atoms: C_20  and  C_22
REMARK    8  A    between atoms: C_20  and  C_23
REMARK    9  A    between atoms: C_24  and  C_25
REMARK   10  A    between atoms: C_26  and  C_29
REMARK                            x       y       z     vdW  Elec       q    Type
REMARK                         _______ _______ _______ _____ _____    ______ ____
ROOT
ATOM      9  C   UNL     1      -4.347 -10.732  11.227  0.00  0.00    -0.027 C 
ATOM     10  C   UNL     1      -5.820 -10.220  11.371  0.00  0.00    +0.028 C 
ATOM     11  C   UNL     1      -6.474 -10.767  12.691  0.00  0.00    +0.012 C 
ATOM     12  C   UNL     1      -6.634 -10.468  10.069  0.00  0.00    +0.122 C 
ATOM     13  C   UNL     1      -3.697 -10.087   9.980  0.00  0.00    +0.007 C 
ATOM     14  C   UNL     1      -3.535 -10.288  12.465  0.00  0.00    +0.009 C 
ATOM     15  C   UNL     1      -5.928  -9.911   8.812  0.00  0.00    +0.029 C 
ATOM     16  C   UNL     1      -5.608 -10.378  13.922  0.00  0.00    +0.076 C 
ATOM     17  C   UNL     1      -4.471 -10.360   8.697  0.00  0.00    +0.007 C 
ATOM     18  C   UNL     1      -4.137 -10.767  13.778  0.00  0.00    +0.023 C 
ATOM     19  C   UNL     1      -4.266 -12.274  11.089  0.00  0.00    +0.011 C 
ATOM     21  C   UNL     1      -7.915 -10.278  12.912  0.00  0.00    +0.010 C 
ENDROOT
BRANCH  16   5
ATOM      4  O   UNL     1      -5.572  -9.195  16.538  0.00  0.00    -0.270 OA
ATOM      5  N   UNL     1      -6.119 -10.964  15.144  0.00  0.00    -0.308 N 
ATOM     24  C   UNL     1      -6.055 -10.311  16.362  0.00  0.00    +0.247 C 
ATOM     36  H   UNL     1      -6.440 -11.926  15.096  0.00  0.00    +0.149 HD
BRANCH  24  25
ATOM      7  N   UNL     1      -7.224 -11.128  19.849  0.00  0.00    -0.243 NA
ATOM      8  N   UNL     1      -7.499 -13.081  18.466  0.00  0.00    -0.243 NA
ATOM     25  C   UNL     1      -6.599 -11.057  17.525  0.00  0.00    +0.073 A 
ATOM     27  C   UNL     1      -6.734 -10.479  18.772  0.00  0.00    +0.127 A 
ATOM     28  C   UNL     1      -7.001 -12.373  17.430  0.00  0.00    +0.127 A 
ATOM     32  C   UNL     1      -7.582 -12.407  19.628  0.00  0.00    +0.221 A 
ENDBRANCH  24  25
ENDBRANCH  16   5
BRANCH  12   2
ATOM      2  O   UNL     1      -7.893  -9.800  10.160  0.00  0.00    -0.391 OA
ATOM     37  H   UNL     1      -7.750  -8.858   9.966  0.00  0.00    +0.210 HD
ENDBRANCH  12   2
BRANCH  15  20
ATOM     20  C   UNL     1      -6.680 -10.279   7.527  0.00  0.00    +0.077 C 
ATOM     22  C   UNL     1      -5.841 -11.232   6.682  0.00  0.00    +0.017 C 
BRANCH  20  23
ATOM      3  O   UNL     1      -6.815  -8.889   5.548  0.00  0.00    -0.276 OA
ATOM      6  N   UNL     1      -7.620  -8.046   7.554  0.00  0.00    -0.311 N 
ATOM     23  C   UNL     1      -7.035  -9.014   6.751  0.00  0.00    +0.216 C 
ATOM     38  H   UNL     1      -7.816  -8.246   8.528  0.00  0.00    +0.149 HD
BRANCH   6  26
ATOM     26  C   UNL     1      -8.041  -6.761   7.046  0.00  0.00    +0.141 C 
BRANCH  26  29
ATOM      1 CL   UNL     1     -10.535  -8.210   5.950  0.00  0.00    -0.083 Cl
ATOM     29  C   UNL     1      -9.383  -6.356   7.582  0.00  0.00    -0.012 A 
ATOM     30  C   UNL     1     -10.560  -6.960   7.141  0.00  0.00    +0.046 A 
ATOM     31  C   UNL     1      -9.435  -5.349   8.546  0.00  0.00    +0.006 A 
ATOM     33  C   UNL     1     -11.789  -6.558   7.663  0.00  0.00    +0.020 A 
ATOM     34  C   UNL     1     -10.664  -4.946   9.068  0.00  0.00    +0.000 A 
ATOM     35  C   UNL     1     -11.841  -5.550   8.627  0.00  0.00    +0.001 A 
ENDBRANCH  26  29
ENDBRANCH   6  26
ENDBRANCH  20  23
ENDBRANCH  15  20
TORSDOF 7
ENDMDL
MODEL 10
REMARK VINA RESULT:      -6.5     29.173     32.628
REMARK  Name = 45361626
REMARK  10 active torsions:
REMARK  status: ('A' for Active; 'I' for Inactive)
REMARK    1  A    between atoms: O_2  and  C_12
REMARK    2  A    between atoms: N_5  and  C_16
REMARK    3  A    between atoms: N_6  and  C_26
REMARK    4  A    between atoms: C_9  and  C_19
REMARK    5  A    between atoms: C_11  and  C_21
REMARK    6  A    between atoms: C_15  and  C_20
REMARK    7  A    between atoms: C_20  and  C_22
REMARK    8  A    between atoms: C_20  and  C_23
REMARK    9  A    between atoms: C_24  and  C_25
REMARK   10  A    between atoms: C_26  and  C_29
REMARK                            x       y       z     vdW  Elec       q    Type
REMARK                         _______ _______ _______ _____ _____    ______ ____
ROOT
ATOM      9  C   UNL     1      19.311   9.880  22.102  0.00  0.00    -0.027 C 
ATOM     10  C   UNL     1      18.456   8.636  21.688  0.00  0.00    +0.028 C 
ATOM     11  C   UNL     1      19.362   7.527  21.041  0.00  0.00    +0.012 C 
ATOM     12  C   UNL     1      17.214   9.057  20.853  0.00  0.00    +0.122 C 
ATOM     13  C   UNL     1      18.411  10.902  22.837  0.00  0.00    +0.007 C 
ATOM     14  C   UNL     1      20.414   9.430  23.088  0.00  0.00    +0.009 C 
ATOM     15  C   UNL     1      16.375  10.154  21.546  0.00  0.00    +0.029 C 
ATOM     16  C   UNL     1      20.511   7.136  22.012  0.00  0.00    +0.076 C 
ATOM     17  C   UNL     1      17.215  11.346  22.005  0.00  0.00    +0.007 C 
ATOM     18  C   UNL     1      21.308   8.336  22.524  0.00  0.00    +0.023 C 
ATOM     19  C   UNL     1      19.968  10.580  20.886  0.00  0.00    +0.011 C 
ATOM     21  C   UNL     1      18.589   6.260  20.636  0.00  0.00    +0.010 C 
ENDROOT
BRANCH  16   5
ATOM      4  O   UNL     1      21.643   4.798  23.236  0.00  0.00    -0.270 OA
ATOM      5  N   UNL     1      21.433   6.200  21.401  0.00  0.00    -0.308 N 
ATOM     24  C   UNL     1      21.925   5.097  22.078  0.00  0.00    +0.247 C 
ATOM     36  H   UNL     1      21.791   6.437  20.482  0.00  0.00    +0.149 HD
BRANCH  24  25
ATOM      7  N   UNL     1      24.721   4.048  19.783  0.00  0.00    -0.243 NA
ATOM      8  N   UNL     1      23.724   2.072  20.736  0.00  0.00    -0.243 NA
ATOM     25  C   UNL     1      22.882   4.249  21.322  0.00  0.00    +0.073 A 
ATOM     27  C   UNL     1      23.838   4.788  20.484  0.00  0.00    +0.127 A 
ATOM     28  C   UNL     1      22.871   2.873  21.409  0.00  0.00    +0.127 A 
ATOM     32  C   UNL     1      24.609   2.716  19.954  0.00  0.00    +0.221 A 
ENDBRANCH  24  25
ENDBRANCH  16   5
BRANCH  12   2
ATOM      2  O   UNL     1      16.351   7.932  20.680  0.00  0.00    -0.391 OA
ATOM     37  H   UNL     1      16.809   7.145  21.023  0.00  0.00    +0.210 HD
ENDBRANCH  12   2
BRANCH  15  20
ATOM     20  C   UNL     1      15.232  10.648  20.651  0.00  0.00    +0.077 C 
ATOM     22  C   UNL     1      15.286  12.166  20.519  0.00  0.00    +0.017 C 
BRANCH  20  23
ATOM      3  O   UNL     1      13.743   9.099  21.769  0.00  0.00    -0.276 OA
ATOM      6  N   UNL     1      12.886  11.124  21.030  0.00  0.00    -0.311 N 
ATOM     23  C   UNL     1      13.892  10.187  21.216  0.00  0.00    +0.216 C 
ATOM     38  H   UNL     1      13.101  12.022  20.611  0.00  0.00    +0.149 HD
BRANCH   6  26
ATOM     26  C   UNL     1      11.529  10.913  21.478  0.00  0.00    +0.141 C 
BRANCH  26  29
ATOM      1 CL   UNL     1      10.735  13.884  21.219  0.00  0.00    -0.083 Cl
ATOM     29  C   UNL     1      11.227  11.673  22.736  0.00  0.00    -0.012 A 
ATOM     30  C   UNL     1      10.861  13.019  22.709  0.00  0.00    +0.046 A 
ATOM     31  C   UNL     1      11.320  11.001  23.955  0.00  0.00    +0.006 A 
ATOM     33  C   UNL     1      10.587  13.692  23.899  0.00  0.00    +0.020 A 
ATOM     34  C   UNL     1      11.048  11.675  25.146  0.00  0.00    +0.000 A 
ATOM     35  C   UNL     1      10.681  13.019  25.118  0.00  0.00    +0.001 A 
ENDBRANCH  26  29
ENDBRANCH   6  26
ENDBRANCH  20  23
ENDBRANCH  15  20
TORSDOF 7
ENDMDL
