MODEL 1
REMARK VINA RESULT:      -7.0      0.000      0.000
REMARK  Name = 11912880
REMARK  3 active torsions:
REMARK  status: ('A' for Active; 'I' for Inactive)
REMARK    1  A    between atoms: N_6  and  C_13
REMARK    2  A    between atoms: N_7  and  C_14
REMARK    3  A    between atoms: C_23  and  C_26
REMARK                            x       y       z     vdW  Elec       q    Type
REMARK                         _______ _______ _______ _____ _____    ______ ____
ROOT
ATOM      2  O   UNL     1      -5.890 -11.854  10.213  0.00  0.00    -0.370 OA
ATOM      3  O   UNL     1      -4.522  -9.051  10.164  0.00  0.00    -0.370 OA
ATOM     11  C   UNL     1      -4.220 -10.304   9.530  0.00  0.00    +0.171 C 
ATOM     12  C   UNL     1      -4.560 -11.403  10.518  0.00  0.00    +0.171 C 
ATOM     13  C   UNL     1      -5.161 -10.548   8.372  0.00  0.00    +0.131 C 
ATOM     14  C   UNL     1      -4.535 -10.712  11.860  0.00  0.00    +0.130 C 
ATOM     15  C   UNL     1      -6.373 -11.152   9.058  0.00  0.00    +0.185 C 
ATOM     16  C   UNL     1      -4.947  -9.293  11.513  0.00  0.00    +0.185 C 
ENDROOT
BRANCH  13   6
ATOM      4  O   UNL     1      -5.596 -10.508   5.591  0.00  0.00    -0.253 OA
ATOM      5  O   UNL     1      -2.623 -13.793   3.427  0.00  0.00    -0.377 OA
ATOM      6  N   UNL     1      -4.588 -11.467   7.416  0.00  0.00    -0.292 N 
ATOM      8  N   UNL     1      -4.229 -12.350   5.252  0.00  0.00    -0.281 N 
ATOM     17  C   UNL     1      -4.854 -11.380   6.054  0.00  0.00    +0.303 C 
ATOM     19  C   UNL     1      -4.584 -12.440   3.834  0.00  0.00    +0.137 C 
ATOM     20  C   UNL     1      -3.335 -13.417   5.721  0.00  0.00    +0.137 C 
ATOM     21  C   UNL     1      -3.348 -12.647   2.973  0.00  0.00    +0.179 C 
ATOM     22  C   UNL     1      -2.161 -13.601   4.765  0.00  0.00    +0.179 C 
ATOM     30  H   UNL     1      -4.122 -12.281   7.794  0.00  0.00    +0.151 HD
ENDBRANCH  13   6
BRANCH  14   7
ATOM      7  N   UNL     1      -3.193 -10.727  12.400  0.00  0.00    -0.306 N 
ATOM      9  N   UNL     1      -3.962 -10.629  14.615  0.00  0.00    -0.214 NA
ATOM     10  N   UNL     1      -1.603 -10.708  14.125  0.00  0.00    -0.223 NA
ATOM     18  C   UNL     1      -2.911 -10.687  13.753  0.00  0.00    +0.216 A 
ATOM     23  C   UNL     1      -3.650 -10.592  15.927  0.00  0.00    +0.083 A 
ATOM     24  C   UNL     1      -1.364 -10.669  15.452  0.00  0.00    +0.116 A 
ATOM     25  C   UNL     1      -2.357 -10.609  16.408  0.00  0.00    +0.049 A 
ATOM     31  H   UNL     1      -2.404 -10.823  11.769  0.00  0.00    +0.149 HD
BRANCH  23  26
ATOM      1  S   UNL     1      -6.217  -9.756  16.279  0.00  0.00    -0.095 S 
ATOM     26  C   UNL     1      -4.782 -10.530  16.813  0.00  0.00    +0.038 A 
ATOM     27  C   UNL     1      -4.913 -11.019  18.097  0.00  0.00    +0.017 A 
ATOM     28  C   UNL     1      -6.202 -10.756  18.644  0.00  0.00    +0.008 A 
ATOM     29  C   UNL     1      -7.010 -10.075  17.761  0.00  0.00    +0.046 A 
ENDBRANCH  23  26
ENDBRANCH  14   7
TORSDOF 3
ENDMDL
MODEL 2
REMARK VINA RESULT:      -6.8     28.803     31.775
REMARK  Name = 11912880
REMARK  3 active torsions:
REMARK  status: ('A' for Active; 'I' for Inactive)
REMARK    1  A    between atoms: N_6  and  C_13
REMARK    2  A    between atoms: N_7  and  C_14
REMARK    3  A    between atoms: C_23  and  C_26
REMARK                            x       y       z     vdW  Elec       q    Type
REMARK                         _______ _______ _______ _____ _____    ______ ____
ROOT
ATOM      2  O   UNL     1      11.306  11.880  25.587  0.00  0.00    -0.370 OA
ATOM      3  O   UNL     1      13.162  13.672  23.833  0.00  0.00    -0.370 OA
ATOM     11  C   UNL     1      12.820  12.277  23.796  0.00  0.00    +0.171 C 
ATOM     12  C   UNL     1      12.696  11.804  25.231  0.00  0.00    +0.171 C 
ATOM     13  C   UNL     1      11.431  12.092  23.227  0.00  0.00    +0.131 C 
ATOM     14  C   UNL     1      13.496  12.812  26.022  0.00  0.00    +0.130 C 
ATOM     15  C   UNL     1      10.550  12.307  24.444  0.00  0.00    +0.185 C 
ATOM     16  C   UNL     1      13.344  14.078  25.197  0.00  0.00    +0.185 C 
ENDROOT
BRANCH  13   6
ATOM      4  O   UNL     1      12.163  11.270  20.637  0.00  0.00    -0.253 OA
ATOM      5  O   UNL     1      11.584   6.388  20.250  0.00  0.00    -0.377 OA
ATOM      6  N   UNL     1      11.260  10.763  22.685  0.00  0.00    -0.292 N 
ATOM      8  N   UNL     1      11.412   9.107  21.004  0.00  0.00    -0.281 N 
ATOM     17  C   UNL     1      11.649  10.437  21.391  0.00  0.00    +0.303 C 
ATOM     19  C   UNL     1      11.632   8.718  19.610  0.00  0.00    +0.137 C 
ATOM     20  C   UNL     1      10.809   8.057  21.838  0.00  0.00    +0.137 C 
ATOM     21  C   UNL     1      12.328   7.369  19.522  0.00  0.00    +0.179 C 
ATOM     22  C   UNL     1      11.524   6.726  21.636  0.00  0.00    +0.179 C 
ATOM     30  H   UNL     1      10.691  10.124  23.224  0.00  0.00    +0.151 HD
ENDBRANCH  13   6
BRANCH  14   7
ATOM      7  N   UNL     1      14.884  12.411  26.074  0.00  0.00    -0.306 N 
ATOM      9  N   UNL     1      14.739  11.800  28.335  0.00  0.00    -0.214 NA
ATOM     10  N   UNL     1      16.809  11.572  27.122  0.00  0.00    -0.223 NA
ATOM     18  C   UNL     1      15.495  11.913  27.211  0.00  0.00    +0.216 A 
ATOM     23  C   UNL     1      15.366  11.311  29.424  0.00  0.00    +0.083 A 
ATOM     24  C   UNL     1      17.373  11.089  28.249  0.00  0.00    +0.116 A 
ATOM     25  C   UNL     1      16.694  10.935  29.440  0.00  0.00    +0.049 A 
ATOM     31  H   UNL     1      15.444  12.441  25.228  0.00  0.00    +0.149 HD
BRANCH  23  26
ATOM      1  S   UNL     1      14.293   9.662  31.305  0.00  0.00    -0.095 S 
ATOM     26  C   UNL     1      14.541  11.205  30.598  0.00  0.00    +0.038 A 
ATOM     27  C   UNL     1      13.877  12.197  31.291  0.00  0.00    +0.017 A 
ATOM     28  C   UNL     1      13.160  11.685  32.410  0.00  0.00    +0.008 A 
ATOM     29  C   UNL     1      13.300  10.320  32.534  0.00  0.00    +0.046 A 
ENDBRANCH  23  26
ENDBRANCH  14   7
TORSDOF 3
ENDMDL
MODEL 3
REMARK VINA RESULT:      -6.7     28.613     32.571
REMARK  Name = 11912880
REMARK  3 active torsions:
REMARK  status: ('A' for Active; 'I' for Inactive)
REMARK    1  A    between atoms: N_6  and  C_13
REMARK    2  A    between atoms: N_7  and  C_14
REMARK    3  A    between atoms: C_23  and  C_26
REMARK                            x       y       z     vdW  Elec       q    Type
REMARK                         _______ _______ _______ _____ _____    ______ ____
ROOT
ATOM      2  O   UNL     1      13.174  13.055  23.772  0.00  0.00    -0.370 OA
ATOM      3  O   UNL     1      10.420  12.814  25.218  0.00  0.00    -0.370 OA
ATOM     11  C   UNL     1      11.722  12.264  25.482  0.00  0.00    +0.171 C 
ATOM     12  C   UNL     1      12.352  11.936  24.143  0.00  0.00    +0.171 C 
ATOM     13  C   UNL     1      12.630  13.322  26.066  0.00  0.00    +0.131 C 
ATOM     14  C   UNL     1      11.177  11.814  23.202  0.00  0.00    +0.130 C 
ATOM     15  C   UNL     1      13.146  14.029  24.826  0.00  0.00    +0.185 C 
ATOM     16  C   UNL     1      10.165  12.769  23.807  0.00  0.00    +0.185 C 
ENDROOT
BRANCH  13   6
ATOM      4  O   UNL     1      13.831  14.418  28.363  0.00  0.00    -0.253 OA
ATOM      5  O   UNL     1      16.977  11.141  30.281  0.00  0.00    -0.377 OA
ATOM      6  N   UNL     1      13.711  12.726  26.817  0.00  0.00    -0.292 N 
ATOM      8  N   UNL     1      15.302  12.637  28.565  0.00  0.00    -0.281 N 
ATOM     17  C   UNL     1      14.251  13.334  27.945  0.00  0.00    +0.303 C 
ATOM     19  C   UNL     1      16.041  13.279  29.653  0.00  0.00    +0.137 C 
ATOM     20  C   UNL     1      15.859  11.347  28.133  0.00  0.00    +0.137 C 
ATOM     21  C   UNL     1      16.308  12.300  30.785  0.00  0.00    +0.179 C 
ATOM     22  C   UNL     1      16.157  10.455  29.334  0.00  0.00    +0.179 C 
ATOM     30  H   UNL     1      14.175  11.934  26.393  0.00  0.00    +0.151 HD
ENDBRANCH  13   6
BRANCH  14   7
ATOM      7  N   UNL     1      10.665  10.461  23.223  0.00  0.00    -0.306 N 
ATOM      9  N   UNL     1      11.727   9.908  21.205  0.00  0.00    -0.214 NA
ATOM     10  N   UNL     1      10.390   8.287  22.385  0.00  0.00    -0.223 NA
ATOM     18  C   UNL     1      10.936   9.524  22.242  0.00  0.00    +0.216 A 
ATOM     23  C   UNL     1      11.970   8.969  20.267  0.00  0.00    +0.083 A 
ATOM     24  C   UNL     1      10.676   7.398  21.411  0.00  0.00    +0.116 A 
ATOM     25  C   UNL     1      11.467   7.686  20.318  0.00  0.00    +0.049 A 
ATOM     31  H   UNL     1      10.117  10.148  24.017  0.00  0.00    +0.149 HD
BRANCH  23  26
ATOM      1  S   UNL     1      13.490   8.233  18.132  0.00  0.00    -0.095 S 
ATOM     26  C   UNL     1      12.809   9.405  19.182  0.00  0.00    +0.038 A 
ATOM     27  C   UNL     1      13.178  10.686  18.825  0.00  0.00    +0.017 A 
ATOM     28  C   UNL     1      14.026  10.703  17.680  0.00  0.00    +0.008 A 
ATOM     29  C   UNL     1      14.276   9.436  17.202  0.00  0.00    +0.046 A 
ENDBRANCH  23  26
ENDBRANCH  14   7
TORSDOF 3
ENDMDL
MODEL 4
REMARK VINA RESULT:      -6.6      3.504      9.798
REMARK  Name = 11912880
REMARK  3 active torsions:
REMARK  status: ('A' for Active; 'I' for Inactive)
REMARK    1  A    between atoms: N_6  and  C_13
REMARK    2  A    between atoms: N_7  and  C_14
REMARK    3  A    between atoms: C_23  and  C_26
REMARK                            x       y       z     vdW  Elec       q    Type
REMARK                         _______ _______ _______ _____ _____    ______ ____
ROOT
ATOM      2  O   UNL     1      -2.670 -12.938  12.740  0.00  0.00    -0.370 OA
ATOM      3  O   UNL     1      -1.794  -9.984  13.230  0.00  0.00    -0.370 OA
ATOM     11  C   UNL     1      -2.841 -10.803  13.776  0.00  0.00    +0.171 C 
ATOM     12  C   UNL     1      -3.359 -11.680  12.653  0.00  0.00    +0.171 C 
ATOM     13  C   UNL     1      -2.272 -11.785  14.775  0.00  0.00    +0.131 C 
ATOM     14  C   UNL     1      -2.956 -10.947  11.396  0.00  0.00    +0.130 C 
ATOM     15  C   UNL     1      -1.804 -12.922  13.885  0.00  0.00    +0.185 C 
ATOM     16  C   UNL     1      -1.686 -10.232  11.820  0.00  0.00    +0.185 C 
ENDROOT
BRANCH  13   6
ATOM      4  O   UNL     1      -3.413 -10.232  16.826  0.00  0.00    -0.253 OA
ATOM      5  O   UNL     1      -7.129 -12.732  18.891  0.00  0.00    -0.377 OA
ATOM      6  N   UNL     1      -3.284 -12.230  15.705  0.00  0.00    -0.292 N 
ATOM      8  N   UNL     1      -4.771 -11.976  17.527  0.00  0.00    -0.281 N 
ATOM     17  C   UNL     1      -3.798 -11.398  16.694  0.00  0.00    +0.303 C 
ATOM     19  C   UNL     1      -5.243 -11.233  18.696  0.00  0.00    +0.137 C 
ATOM     20  C   UNL     1      -5.282 -13.352  17.436  0.00  0.00    +0.137 C 
ATOM     21  C   UNL     1      -6.750 -11.353  18.849  0.00  0.00    +0.179 C 
ATOM     22  C   UNL     1      -6.789 -13.387  17.668  0.00  0.00    +0.179 C 
ATOM     30  H   UNL     1      -3.481 -13.222  15.719  0.00  0.00    +0.151 HD
ENDBRANCH  13   6
BRANCH  14   7
ATOM      7  N   UNL     1      -3.976  -9.986  11.035  0.00  0.00    -0.306 N 
ATOM      9  N   UNL     1      -4.264 -10.927   8.904  0.00  0.00    -0.214 NA
ATOM     10  N   UNL     1      -5.560  -9.018   9.600  0.00  0.00    -0.223 NA
ATOM     18  C   UNL     1      -4.619  -9.977   9.810  0.00  0.00    +0.216 A 
ATOM     23  C   UNL     1      -4.911 -10.888   7.721  0.00  0.00    +0.083 A 
ATOM     24  C   UNL     1      -6.168  -9.039   8.396  0.00  0.00    +0.116 A 
ATOM     25  C   UNL     1      -5.881  -9.958   7.408  0.00  0.00    +0.049 A 
ATOM     31  H   UNL     1      -4.285  -9.307  11.721  0.00  0.00    +0.149 HD
BRANCH  23  26
ATOM      1  S   UNL     1      -4.224 -13.496   7.352  0.00  0.00    -0.095 S 
ATOM     26  C   UNL     1      -4.513 -11.904   6.783  0.00  0.00    +0.038 A 
ATOM     27  C   UNL     1      -4.315 -11.805   5.421  0.00  0.00    +0.017 A 
ATOM     28  C   UNL     1      -3.923 -13.047   4.842  0.00  0.00    +0.008 A 
ATOM     29  C   UNL     1      -3.834 -14.050   5.781  0.00  0.00    +0.046 A 
ENDBRANCH  23  26
ENDBRANCH  14   7
TORSDOF 3
ENDMDL
MODEL 5
REMARK VINA RESULT:      -6.3      7.712      9.097
REMARK  Name = 11912880
REMARK  3 active torsions:
REMARK  status: ('A' for Active; 'I' for Inactive)
REMARK    1  A    between atoms: N_6  and  C_13
REMARK    2  A    between atoms: N_7  and  C_14
REMARK    3  A    between atoms: C_23  and  C_26
REMARK                            x       y       z     vdW  Elec       q    Type
REMARK                         _______ _______ _______ _____ _____    ______ ____
ROOT
ATOM      2  O   UNL     1     -12.113  -8.746  14.972  0.00  0.00    -0.370 OA
ATOM      3  O   UNL     1     -10.853  -6.385  16.575  0.00  0.00    -0.370 OA
ATOM     11  C   UNL     1     -10.903  -6.708  15.176  0.00  0.00    +0.171 C 
ATOM     12  C   UNL     1     -10.781  -8.215  15.057  0.00  0.00    +0.171 C 
ATOM     13  C   UNL     1     -12.275  -6.406  14.615  0.00  0.00    +0.131 C 
ATOM     14  C   UNL     1     -10.129  -8.636  16.352  0.00  0.00    +0.130 C 
ATOM     15  C   UNL     1     -13.053  -7.662  14.965  0.00  0.00    +0.185 C 
ATOM     16  C   UNL     1     -10.621  -7.583  17.329  0.00  0.00    +0.185 C 
ENDROOT
BRANCH  13   6
ATOM      4  O   UNL     1     -12.420  -3.920  13.304  0.00  0.00    -0.253 OA
ATOM      5  O   UNL     1     -11.547  -4.559   8.493  0.00  0.00    -0.377 OA
ATOM      6  N   UNL     1     -12.223  -6.203  13.186  0.00  0.00    -0.292 N 
ATOM      8  N   UNL     1     -12.244  -4.902  11.211  0.00  0.00    -0.281 N 
ATOM     17  C   UNL     1     -12.302  -4.938  12.615  0.00  0.00    +0.303 C 
ATOM     19  C   UNL     1     -12.490  -3.636  10.518  0.00  0.00    +0.137 C 
ATOM     20  C   UNL     1     -12.104  -6.063  10.320  0.00  0.00    +0.137 C 
ATOM     21  C   UNL     1     -11.504  -3.437   9.378  0.00  0.00    +0.179 C 
ATOM     22  C   UNL     1     -11.151  -5.752   9.170  0.00  0.00    +0.179 C 
ATOM     30  H   UNL     1     -12.299  -7.030  12.608  0.00  0.00    +0.151 HD
ENDBRANCH  13   6
BRANCH  14   7
ATOM      7  N   UNL     1      -8.690  -8.570  16.227  0.00  0.00    -0.306 N 
ATOM      9  N   UNL     1      -8.383 -10.572  17.412  0.00  0.00    -0.214 NA
ATOM     10  N   UNL     1      -6.498  -9.339  16.556  0.00  0.00    -0.223 NA
ATOM     18  C   UNL     1      -7.832  -9.522  16.747  0.00  0.00    +0.216 A 
ATOM     23  C   UNL     1      -7.517 -11.482  17.905  0.00  0.00    +0.083 A 
ATOM     24  C   UNL     1      -5.690 -10.287  17.075  0.00  0.00    +0.116 A 
ATOM     25  C   UNL     1      -6.148 -11.390  17.766  0.00  0.00    +0.049 A 
ATOM     31  H   UNL     1      -8.271  -7.820  15.688  0.00  0.00    +0.149 HD
BRANCH  23  26
ATOM      1  S   UNL     1      -8.599 -13.972  17.720  0.00  0.00    -0.095 S 
ATOM     26  C   UNL     1      -8.131 -12.580  18.604  0.00  0.00    +0.038 A 
ATOM     27  C   UNL     1      -8.421 -12.706  19.948  0.00  0.00    +0.017 A 
ATOM     28  C   UNL     1      -9.032 -13.957  20.252  0.00  0.00    +0.008 A 
ATOM     29  C   UNL     1      -9.189 -14.742  19.131  0.00  0.00    +0.046 A 
ENDBRANCH  23  26
ENDBRANCH  14   7
TORSDOF 3
ENDMDL
MODEL 6
REMARK VINA RESULT:      -6.2      5.881      8.084
REMARK  Name = 11912880
REMARK  3 active torsions:
REMARK  status: ('A' for Active; 'I' for Inactive)
REMARK    1  A    between atoms: N_6  and  C_13
REMARK    2  A    between atoms: N_7  and  C_14
REMARK    3  A    between atoms: C_23  and  C_26
REMARK                            x       y       z     vdW  Elec       q    Type
REMARK                         _______ _______ _______ _____ _____    ______ ____
ROOT
ATOM      2  O   UNL     1      -6.005 -11.351  14.504  0.00  0.00    -0.370 OA
ATOM      3  O   UNL     1      -4.522 -10.003  16.895  0.00  0.00    -0.370 OA
ATOM     11  C   UNL     1      -4.618 -11.361  16.437  0.00  0.00    +0.171 C 
ATOM     12  C   UNL     1      -6.030 -11.566  15.925  0.00  0.00    +0.171 C 
ATOM     13  C   UNL     1      -3.751 -11.565  15.215  0.00  0.00    +0.131 C 
ATOM     14  C   UNL     1      -6.830 -10.481  16.605  0.00  0.00    +0.130 C 
ATOM     15  C   UNL     1      -4.655 -11.090  14.092  0.00  0.00    +0.185 C 
ATOM     16  C   UNL     1      -5.807  -9.374  16.782  0.00  0.00    +0.185 C 
ENDROOT
BRANCH  13   6
ATOM      4  O   UNL     1      -1.645 -12.548  13.628  0.00  0.00    -0.253 OA
ATOM      5  O   UNL     1      -1.155 -17.396  14.386  0.00  0.00    -0.377 OA
ATOM      6  N   UNL     1      -3.398 -12.957  15.050  0.00  0.00    -0.292 N 
ATOM      8  N   UNL     1      -2.125 -14.749  14.179  0.00  0.00    -0.281 N 
ATOM     17  C   UNL     1      -2.340 -13.362  14.245  0.00  0.00    +0.303 C 
ATOM     19  C   UNL     1      -1.145 -15.275  13.227  0.00  0.00    +0.137 C 
ATOM     20  C   UNL     1      -2.903 -15.780  14.880  0.00  0.00    +0.137 C 
ATOM     21  C   UNL     1      -0.305 -16.374  13.858  0.00  0.00    +0.179 C 
ATOM     22  C   UNL     1      -1.989 -16.875  15.421  0.00  0.00    +0.179 C 
ATOM     30  H   UNL     1      -4.057 -13.636  15.407  0.00  0.00    +0.151 HD
ENDBRANCH  13   6
BRANCH  14   7
ATOM      7  N   UNL     1      -7.296 -10.944  17.894  0.00  0.00    -0.306 N 
ATOM      9  N   UNL     1      -9.354  -9.837  17.673  0.00  0.00    -0.214 NA
ATOM     10  N   UNL     1      -8.849 -11.132  19.643  0.00  0.00    -0.223 NA
ATOM     18  C   UNL     1      -8.536 -10.628  18.419  0.00  0.00    +0.216 A 
ATOM     23  C   UNL     1     -10.555  -9.550  18.215  0.00  0.00    +0.083 A 
ATOM     24  C   UNL     1     -10.066 -10.804  20.124  0.00  0.00    +0.116 A 
ATOM     25  C   UNL     1     -10.969 -10.010  19.448  0.00  0.00    +0.049 A 
ATOM     31  H   UNL     1      -6.717 -11.577  18.435  0.00  0.00    +0.149 HD
BRANCH  23  26
ATOM      1  S   UNL     1     -10.740  -7.276  16.730  0.00  0.00    -0.095 S 
ATOM     26  C   UNL     1     -11.396  -8.710  17.404  0.00  0.00    +0.038 A 
ATOM     27  C   UNL     1     -12.721  -8.879  17.056  0.00  0.00    +0.017 A 
ATOM     28  C   UNL     1     -13.200  -7.821  16.230  0.00  0.00    +0.008 A 
ATOM     29  C   UNL     1     -12.225  -6.881  15.976  0.00  0.00    +0.046 A 
ENDBRANCH  23  26
ENDBRANCH  14   7
TORSDOF 3
ENDMDL
MODEL 7
REMARK VINA RESULT:      -6.2     21.843     22.946
REMARK  Name = 11912880
REMARK  3 active torsions:
REMARK  status: ('A' for Active; 'I' for Inactive)
REMARK    1  A    between atoms: N_6  and  C_13
REMARK    2  A    between atoms: N_7  and  C_14
REMARK    3  A    between atoms: C_23  and  C_26
REMARK                            x       y       z     vdW  Elec       q    Type
REMARK                         _______ _______ _______ _____ _____    ______ ____
ROOT
ATOM      2  O   UNL     1     -15.034   7.545  22.285  0.00  0.00    -0.370 OA
ATOM      3  O   UNL     1     -13.169   5.045  22.273  0.00  0.00    -0.370 OA
ATOM     11  C   UNL     1     -13.868   5.755  21.239  0.00  0.00    +0.171 C 
ATOM     12  C   UNL     1     -15.199   6.197  21.815  0.00  0.00    +0.171 C 
ATOM     13  C   UNL     1     -13.158   7.051  20.919  0.00  0.00    +0.131 C 
ATOM     14  C   UNL     1     -15.426   5.261  22.978  0.00  0.00    +0.130 C 
ATOM     15  C   UNL     1     -13.706   7.992  21.977  0.00  0.00    +0.185 C 
ATOM     16  C   UNL     1     -14.013   4.941  23.429  0.00  0.00    +0.185 C 
ENDROOT
BRANCH  13   6
ATOM      4  O   UNL     1     -11.303   7.804  18.941  0.00  0.00    -0.253 OA
ATOM      5  O   UNL     1     -13.681   8.617  14.698  0.00  0.00    -0.377 OA
ATOM      6  N   UNL     1     -13.485   7.512  19.589  0.00  0.00    -0.292 N 
ATOM      8  N   UNL     1     -12.980   8.303  17.418  0.00  0.00    -0.281 N 
ATOM     17  C   UNL     1     -12.506   7.867  18.667  0.00  0.00    +0.303 C 
ATOM     19  C   UNL     1     -12.032   8.855  16.448  0.00  0.00    +0.137 C 
ATOM     20  C   UNL     1     -14.389   8.406  17.014  0.00  0.00    +0.137 C 
ATOM     21  C   UNL     1     -12.322   8.342  15.047  0.00  0.00    +0.179 C 
ATOM     22  C   UNL     1     -14.577   7.934  15.576  0.00  0.00    +0.179 C 
ATOM     30  H   UNL     1     -14.457   7.731  19.411  0.00  0.00    +0.151 HD
ENDBRANCH  13   6
BRANCH  14   7
ATOM      7  N   UNL     1     -16.092   4.059  22.524  0.00  0.00    -0.306 N 
ATOM      9  N   UNL     1     -16.402   3.270  24.712  0.00  0.00    -0.214 NA
ATOM     10  N   UNL     1     -17.179   2.001  22.815  0.00  0.00    -0.223 NA
ATOM     18  C   UNL     1     -16.572   3.081  23.376  0.00  0.00    +0.216 A 
ATOM     23  C   UNL     1     -16.883   2.296  25.513  0.00  0.00    +0.083 A 
ATOM     24  C   UNL     1     -17.636   1.067  23.675  0.00  0.00    +0.116 A 
ATOM     25  C   UNL     1     -17.515   1.162  25.046  0.00  0.00    +0.049 A 
ATOM     31  H   UNL     1     -16.270   3.933  21.533  0.00  0.00    +0.149 HD
BRANCH  23  26
ATOM      1  S   UNL     1     -16.985   1.242  28.020  0.00  0.00    -0.095 S 
ATOM     26  C   UNL     1     -16.687   2.524  26.920  0.00  0.00    +0.038 A 
ATOM     27  C   UNL     1     -16.275   3.669  27.570  0.00  0.00    +0.017 A 
ATOM     28  C   UNL     1     -16.203   3.491  28.982  0.00  0.00    +0.008 A 
ATOM     29  C   UNL     1     -16.564   2.217  29.362  0.00  0.00    +0.046 A 
ENDBRANCH  23  26
ENDBRANCH  14   7
TORSDOF 3
ENDMDL
MODEL 8
REMARK VINA RESULT:      -6.2     25.557     29.779
REMARK  Name = 11912880
REMARK  3 active torsions:
REMARK  status: ('A' for Active; 'I' for Inactive)
REMARK    1  A    between atoms: N_6  and  C_13
REMARK    2  A    between atoms: N_7  and  C_14
REMARK    3  A    between atoms: C_23  and  C_26
REMARK                            x       y       z     vdW  Elec       q    Type
REMARK                         _______ _______ _______ _____ _____    ______ ____
ROOT
ATOM      2  O   UNL     1     -13.628   6.053  33.508  0.00  0.00    -0.370 OA
ATOM      3  O   UNL     1     -16.356   7.412  32.841  0.00  0.00    -0.370 OA
ATOM     11  C   UNL     1     -15.558   6.425  32.168  0.00  0.00    +0.171 C 
ATOM     12  C   UNL     1     -14.104   6.801  32.376  0.00  0.00    +0.171 C 
ATOM     13  C   UNL     1     -15.693   5.084  32.855  0.00  0.00    +0.131 C 
ATOM     14  C   UNL     1     -14.147   8.274  32.702  0.00  0.00    +0.130 C 
ATOM     15  C   UNL     1     -14.674   5.189  33.975  0.00  0.00    +0.185 C 
ATOM     16  C   UNL     1     -15.496   8.426  33.381  0.00  0.00    +0.185 C 
ENDROOT
BRANCH  13   6
ATOM      4  O   UNL     1     -15.565   2.359  33.546  0.00  0.00    -0.253 OA
ATOM      5  O   UNL     1     -14.947  -0.333  29.461  0.00  0.00    -0.377 OA
ATOM      6  N   UNL     1     -15.372   4.001  31.954  0.00  0.00    -0.292 N 
ATOM      8  N   UNL     1     -14.996   1.736  31.386  0.00  0.00    -0.281 N 
ATOM     17  C   UNL     1     -15.330   2.676  32.376  0.00  0.00    +0.303 C 
ATOM     19  C   UNL     1     -14.762   0.344  31.774  0.00  0.00    +0.137 C 
ATOM     20  C   UNL     1     -14.703   2.030  29.976  0.00  0.00    +0.137 C 
ATOM     21  C   UNL     1     -15.407  -0.615  30.786  0.00  0.00    +0.179 C 
ATOM     22  C   UNL     1     -15.331   0.983  29.062  0.00  0.00    +0.179 C 
ATOM     30  H   UNL     1     -15.013   4.259  31.045  0.00  0.00    +0.151 HD
ENDBRANCH  13   6
BRANCH  14   7
ATOM      7  N   UNL     1     -14.110   9.052  31.482  0.00  0.00    -0.306 N 
ATOM      9  N   UNL     1     -12.025   9.990  32.012  0.00  0.00    -0.214 NA
ATOM     10  N   UNL     1     -13.158  10.567  29.964  0.00  0.00    -0.223 NA
ATOM     18  C   UNL     1     -13.066   9.894  31.143  0.00  0.00    +0.216 A 
ATOM     23  C   UNL     1     -11.025  10.820  31.650  0.00  0.00    +0.083 A 
ATOM     24  C   UNL     1     -12.123  11.379  29.665  0.00  0.00    +0.116 A 
ATOM     25  C   UNL     1     -11.020  11.547  30.477  0.00  0.00    +0.049 A 
ATOM     31  H   UNL     1     -14.855   8.948  30.803  0.00  0.00    +0.149 HD
BRANCH  23  26
ATOM      1  S   UNL     1      -8.858  12.230  32.502  0.00  0.00    -0.095 S 
ATOM     26  C   UNL     1      -9.939  10.901  32.590  0.00  0.00    +0.038 A 
ATOM     27  C   UNL     1      -9.603  10.036  33.611  0.00  0.00    +0.017 A 
ATOM     28  C   UNL     1      -8.449  10.470  34.326  0.00  0.00    +0.008 A 
ATOM     29  C   UNL     1      -7.943  11.650  33.826  0.00  0.00    +0.046 A 
ENDBRANCH  23  26
ENDBRANCH  14   7
TORSDOF 3
ENDMDL
MODEL 9
REMARK VINA RESULT:      -6.1      4.115     10.025
REMARK  Name = 11912880
REMARK  3 active torsions:
REMARK  status: ('A' for Active; 'I' for Inactive)
REMARK    1  A    between atoms: N_6  and  C_13
REMARK    2  A    between atoms: N_7  and  C_14
REMARK    3  A    between atoms: C_23  and  C_26
REMARK                            x       y       z     vdW  Elec       q    Type
REMARK                         _______ _______ _______ _____ _____    ______ ____
ROOT
ATOM      2  O   UNL     1      -5.110 -11.646  10.413  0.00  0.00    -0.370 OA
ATOM      3  O   UNL     1      -3.667  -8.885  10.570  0.00  0.00    -0.370 OA
ATOM     11  C   UNL     1      -4.546  -9.588  11.463  0.00  0.00    +0.171 C 
ATOM     12  C   UNL     1      -5.578 -10.302  10.612  0.00  0.00    +0.171 C 
ATOM     13  C   UNL     1      -3.804 -10.708  12.157  0.00  0.00    +0.131 C 
ATOM     14  C   UNL     1      -5.566  -9.544   9.306  0.00  0.00    +0.130 C 
ATOM     15  C   UNL     1      -3.888 -11.832  11.141  0.00  0.00    +0.185 C 
ATOM     16  C   UNL     1      -4.135  -9.044   9.223  0.00  0.00    +0.185 C 
ENDROOT
BRANCH  13   6
ATOM      4  O   UNL     1      -2.681 -10.464  14.726  0.00  0.00    -0.253 OA
ATOM      5  O   UNL     1      -6.111 -11.508  18.112  0.00  0.00    -0.377 OA
ATOM      6  N   UNL     1      -4.450 -11.074  13.397  0.00  0.00    -0.292 N 
ATOM      8  N   UNL     1      -4.577 -11.328  15.745  0.00  0.00    -0.281 N 
ATOM     17  C   UNL     1      -3.825 -10.922  14.630  0.00  0.00    +0.303 C 
ATOM     19  C   UNL     1      -3.939 -11.364  17.062  0.00  0.00    +0.137 C 
ATOM     20  C   UNL     1      -5.939 -11.881  15.716  0.00  0.00    +0.137 C 
ATOM     21  C   UNL     1      -4.864 -10.808  18.133  0.00  0.00    +0.179 C 
ATOM     22  C   UNL     1      -6.775 -11.321  16.862  0.00  0.00    +0.179 C 
ATOM     30  H   UNL     1      -5.308 -11.603  13.321  0.00  0.00    +0.151 HD
ENDBRANCH  13   6
BRANCH  14   7
ATOM      7  N   UNL     1      -6.484  -8.428   9.373  0.00  0.00    -0.306 N 
ATOM      9  N   UNL     1      -7.212  -8.750   7.165  0.00  0.00    -0.214 NA
ATOM     10  N   UNL     1      -8.112  -6.970   8.519  0.00  0.00    -0.223 NA
ATOM     18  C   UNL     1      -7.293  -8.038   8.321  0.00  0.00    +0.216 A 
ATOM     23  C   UNL     1      -8.016  -8.342   6.161  0.00  0.00    +0.083 A 
ATOM     24  C   UNL     1      -8.888  -6.617   7.474  0.00  0.00    +0.116 A 
ATOM     25  C   UNL     1      -8.882  -7.272   6.259  0.00  0.00    +0.049 A 
ATOM     31  H   UNL     1      -6.590  -7.923  10.246  0.00  0.00    +0.149 HD
BRANCH  23  26
ATOM      1  S   UNL     1      -8.432  -8.422   3.473  0.00  0.00    -0.095 S 
ATOM     26  C   UNL     1      -7.907  -9.113   4.952  0.00  0.00    +0.038 A 
ATOM     27  C   UNL     1      -7.420 -10.392   4.773  0.00  0.00    +0.017 A 
ATOM     28  C   UNL     1      -7.479 -10.806   3.411  0.00  0.00    +0.008 A 
ATOM     29  C   UNL     1      -8.010  -9.830   2.597  0.00  0.00    +0.046 A 
ENDBRANCH  23  26
ENDBRANCH  14   7
TORSDOF 3
ENDMDL
MODEL 10
REMARK VINA RESULT:      -6.0     27.348     32.067
REMARK  Name = 11912880
REMARK  3 active torsions:
REMARK  status: ('A' for Active; 'I' for Inactive)
REMARK    1  A    between atoms: N_6  and  C_13
REMARK    2  A    between atoms: N_7  and  C_14
REMARK    3  A    between atoms: C_23  and  C_26
REMARK                            x       y       z     vdW  Elec       q    Type
REMARK                         _______ _______ _______ _____ _____    ______ ____
ROOT
ATOM      2  O   UNL     1      16.474  -2.106  30.051  0.00  0.00    -0.370 OA
ATOM      3  O   UNL     1      18.875  -2.961  31.850  0.00  0.00    -0.370 OA
ATOM     11  C   UNL     1      18.366  -1.685  31.430  0.00  0.00    +0.171 C 
ATOM     12  C   UNL     1      17.885  -1.839  30.001  0.00  0.00    +0.171 C 
ATOM     13  C   UNL     1      17.113  -1.339  32.204  0.00  0.00    +0.131 C 
ATOM     14  C   UNL     1      18.630  -3.049  29.489  0.00  0.00    +0.130 C 
ATOM     15  C   UNL     1      16.035  -2.063  31.417  0.00  0.00    +0.185 C 
ATOM     16  C   UNL     1      18.823  -3.877  30.747  0.00  0.00    +0.185 C 
ENDROOT
BRANCH  13   6
ATOM      4  O   UNL     1      17.103   0.300  34.492  0.00  0.00    -0.253 OA
ATOM      5  O   UNL     1      16.780   5.023  33.114  0.00  0.00    -0.377 OA
ATOM      6  N   UNL     1      16.884   0.088  32.217  0.00  0.00    -0.292 N 
ATOM      8  N   UNL     1      16.648   2.203  33.248  0.00  0.00    -0.281 N 
ATOM     17  C   UNL     1      16.895   0.827  33.394  0.00  0.00    +0.303 C 
ATOM     19  C   UNL     1      16.473   3.029  34.444  0.00  0.00    +0.137 C 
ATOM     20  C   UNL     1      16.393   2.907  31.983  0.00  0.00    +0.137 C 
ATOM     21  C   UNL     1      17.204   4.355  34.305  0.00  0.00    +0.179 C 
ATOM     22  C   UNL     1      17.108   4.253  31.957  0.00  0.00    +0.179 C 
ATOM     30  H   UNL     1      16.545   0.500  31.358  0.00  0.00    +0.151 HD
ENDBRANCH  13   6
BRANCH  14   7
ATOM      7  N   UNL     1      19.912  -2.649  28.951  0.00  0.00    -0.306 N 
ATOM      9  N   UNL     1      19.040  -2.361  26.791  0.00  0.00    -0.214 NA
ATOM     10  N   UNL     1      21.370  -1.952  27.250  0.00  0.00    -0.223 NA
ATOM     18  C   UNL     1      20.113  -2.311  27.624  0.00  0.00    +0.216 A 
ATOM     23  C   UNL     1      19.272  -2.025  25.505  0.00  0.00    +0.083 A 
ATOM     24  C   UNL     1      21.531  -1.628  25.950  0.00  0.00    +0.116 A 
ATOM     25  C   UNL     1      20.508  -1.646  25.024  0.00  0.00    +0.049 A 
ATOM     31  H   UNL     1      20.707  -2.558  29.573  0.00  0.00    +0.149 HD
BRANCH  23  26
ATOM      1  S   UNL     1      17.033  -3.407  24.810  0.00  0.00    -0.095 S 
ATOM     26  C   UNL     1      18.118  -2.089  24.648  0.00  0.00    +0.038 A 
ATOM     27  C   UNL     1      17.716  -1.214  23.660  0.00  0.00    +0.017 A 
ATOM     28  C   UNL     1      16.506  -1.630  23.032  0.00  0.00    +0.008 A 
ATOM     29  C   UNL     1      16.027  -2.808  23.561  0.00  0.00    +0.046 A 
ENDBRANCH  23  26
ENDBRANCH  14   7
TORSDOF 3
ENDMDL
