REMARK  Name = 11866319
REMARK  12 active torsions:
REMARK  status: ('A' for Active; 'I' for Inactive)
REMARK    1  A    between atoms: O_1  and  C_11
REMARK    2  A    between atoms: O_2  and  C_12
REMARK    3  A    between atoms: O_6  and  C_28
REMARK    4  A    between atoms: O_6  and  C_35
REMARK    5  A    between atoms: N_7  and  C_13
REMARK    6  A    between atoms: N_8  and  C_18
REMARK    7  A    between atoms: N_9  and  C_23
REMARK    8  A    between atoms: C_15  and  C_17
REMARK    9  A    between atoms: C_18  and  C_20
REMARK   10  A    between atoms: C_18  and  C_22
REMARK   11  A    between atoms: C_20  and  C_21
REMARK   12  A    between atoms: C_33  and  C_34
REMARK                            x       y       z     vdW  Elec       q    Type
REMARK                         _______ _______ _______ _____ _____    ______ ____
ROOT
ATOM     11  C   UNL     1       0.380   4.046   0.004  0.00  0.00    +0.167 C 
ATOM     12  C   UNL     1       1.867   4.218  -0.329  0.00  0.00    +0.149 C 
ATOM     13  C   UNL     1      -0.106   2.616  -0.302  0.00  0.00    +0.129 C 
ATOM     14  C   UNL     1       2.746   3.188   0.401  0.00  0.00    +0.074 C 
ATOM     15  C   UNL     1       2.125   1.823   0.481  0.00  0.00    +0.015 C 
ATOM     16  C   UNL     1       0.851   1.551   0.161  0.00  0.00    +0.006 C 
ENDROOT
BRANCH  13   7
ATOM      4  O   UNL     1      -2.130   0.877  -1.344  0.00  0.00    -0.252 OA
ATOM      7  N   UNL     1      -1.403   2.360   0.274  0.00  0.00    -0.290 N 
ATOM      9  N   UNL     1      -3.499   1.443   0.476  0.00  0.00    -0.269 N 
ATOM     19  C   UNL     1      -2.339   1.492  -0.301  0.00  0.00    +0.304 C 
ATOM     36  H   UNL     1      -1.616   2.766   1.181  0.00  0.00    +0.151 HD
ATOM     40  H   UNL     1      -3.510   2.018   1.315  0.00  0.00    +0.156 HD
BRANCH   9  23
ATOM     23  C   UNL     1      -4.672   0.688   0.239  0.00  0.00    +0.035 A 
ATOM     29  C   UNL     1      -5.726   0.775   1.134  0.00  0.00    +0.023 A 
ATOM     30  C   UNL     1      -4.742  -0.122  -0.882  0.00  0.00    +0.023 A 
ATOM     31  C   UNL     1      -6.883   0.031   0.900  0.00  0.00    +0.005 A 
ATOM     32  C   UNL     1      -5.898  -0.866  -1.115  0.00  0.00    +0.005 A 
ATOM     33  C   UNL     1      -6.969  -0.790  -0.224  0.00  0.00    -0.050 A 
ATOM     34  C   UNL     1      -8.205  -1.586  -0.474  0.00  0.00    +0.044 C 
ENDBRANCH   9  23
ENDBRANCH  13   7
BRANCH  15  17
ATOM      3  O   UNL     1       3.044   0.397   2.106  0.00  0.00    -0.271 OA
ATOM      8  N   UNL     1       3.625   0.085  -0.130  0.00  0.00    -0.300 N 
ATOM     17  C   UNL     1       2.967   0.706   0.918  0.00  0.00    +0.241 C 
ATOM     39  H   UNL     1       3.508   0.445  -1.073  0.00  0.00    +0.150 HD
BRANCH   8  18
ATOM     18  C   UNL     1       4.514  -1.040   0.053  0.00  0.00    +0.163 C 
BRANCH  18  22
ATOM      5  O   UNL     1       6.104   0.188  -1.315  0.00  0.00    -0.274 OA
ATOM     10  N   UNL     1       6.905  -1.115   0.400  0.00  0.00    -0.328 N 
ATOM     22  C   UNL     1       5.900  -0.592  -0.387  0.00  0.00    +0.231 C 
ATOM     41  H   UNL     1       6.723  -1.755   1.165  0.00  0.00    +0.145 HD
ATOM     42  H   UNL     1       7.877  -0.883   0.224  0.00  0.00    +0.145 HD
ENDBRANCH  18  22
BRANCH  18  20
ATOM     20  C   UNL     1       4.069  -2.267  -0.751  0.00  0.00    +0.067 C 
BRANCH  20  21
ATOM     21  C   UNL     1       2.686  -2.740  -0.377  0.00  0.00    -0.045 A 
ATOM     24  C   UNL     1       1.588  -2.229  -1.051  0.00  0.00    +0.007 A 
ATOM     25  C   UNL     1       2.538  -3.679   0.632  0.00  0.00    +0.007 A 
ATOM     26  C   UNL     1       0.309  -2.667  -0.705  0.00  0.00    +0.046 A 
ATOM     27  C   UNL     1       1.260  -4.116   0.977  0.00  0.00    +0.046 A 
ATOM     28  C   UNL     1       0.145  -3.610   0.308  0.00  0.00    +0.120 A 
BRANCH  28   6
ATOM      6  O   UNL     1      -1.102  -4.037   0.646  0.00  0.00    -0.495 OA
ATOM     35  C   UNL     1      -2.198  -3.479  -0.077  0.00  0.00    +0.277 C 
ENDBRANCH  28   6
ENDBRANCH  20  21
ENDBRANCH  18  20
ENDBRANCH   8  18
ENDBRANCH  15  17
BRANCH  11   1
ATOM      1  O   UNL     1       0.183   4.332   1.390  0.00  0.00    -0.387 OA
ATOM     37  H   UNL     1       0.603   3.634   1.919  0.00  0.00    +0.210 HD
ENDBRANCH  11   1
BRANCH  12   2
ATOM      2  O   UNL     1       2.069   4.122  -1.738  0.00  0.00    -0.389 OA
ATOM     38  H   UNL     1       3.012   4.281  -1.911  0.00  0.00    +0.210 HD
ENDBRANCH  12   2
TORSDOF 10
