REMARK  Name = 38027141
REMARK  13 active torsions:
REMARK  status: ('A' for Active; 'I' for Inactive)
REMARK    1  A    between atoms: N_3  and  C_13
REMARK    2  A    between atoms: N_4  and  C_20
REMARK    3  A    between atoms: N_4  and  C_21
REMARK    4  A    between atoms: N_5  and  C_23
REMARK    5  A    between atoms: C_6  and  C_10
REMARK    6  A    between atoms: C_7  and  C_13
REMARK    7  A    between atoms: C_9  and  C_14
REMARK    8  A    between atoms: C_10  and  C_15
REMARK    9  A    between atoms: C_10  and  C_16
REMARK   10  A    between atoms: C_11  and  C_17
REMARK   11  A    between atoms: C_14  and  C_18
REMARK   12  A    between atoms: C_20  and  C_22
REMARK   13  A    between atoms: C_23  and  C_26
REMARK                            x       y       z     vdW  Elec       q    Type
REMARK                         _______ _______ _______ _____ _____    ______ ____
ROOT
ATOM      6  C   UNL     1       1.969   0.769  -1.200  0.00  0.00    +0.000 C 
ATOM      7  C   UNL     1       3.406   1.029  -0.685  0.00  0.00    +0.032 C 
ATOM      8  C   UNL     1       1.072   1.986  -0.925  0.00  0.00    +0.012 C 
ATOM      9  C   UNL     1       0.998   2.328   0.575  0.00  0.00    +0.023 C 
ATOM     11  C   UNL     1       2.370   2.339   1.218  0.00  0.00    -0.073 C 
ATOM     12  C   UNL     1       3.437   1.765   0.634  0.00  0.00    -0.022 C 
ATOM     17  C   UNL     1       2.498   3.065   2.529  0.00  0.00    +0.039 C 
ENDROOT
BRANCH   6  10
ATOM     10  C   UNL     1       1.952   0.440  -2.696  0.00  0.00    -0.013 C 
ATOM     15  C   UNL     1       0.708  -0.370  -3.049  0.00  0.00    +0.007 C 
ATOM     16  C   UNL     1       2.015   1.720  -3.523  0.00  0.00    +0.007 C 
ENDBRANCH   6  10
BRANCH   7  13
ATOM     13  C   UNL     1       4.194  -0.280  -0.558  0.00  0.00    +0.113 C 
BRANCH  13   3
ATOM      2  O   UNL     1       3.126  -2.939  -0.897  0.00  0.00    -0.253 OA
ATOM      3  N   UNL     1       3.628  -1.116   0.454  0.00  0.00    -0.299 N 
ATOM      5  N   UNL     1       2.636  -2.994   1.370  0.00  0.00    -0.300 N 
ATOM     19  C   UNL     1       3.128  -2.402   0.210  0.00  0.00    +0.300 C 
ATOM     30  H   UNL     1       3.645  -0.792   1.416  0.00  0.00    +0.150 HD
ATOM     31  H   UNL     1       2.666  -2.467   2.237  0.00  0.00    +0.150 HD
BRANCH   5  23
ATOM     23  C   UNL     1       2.064  -4.319   1.391  0.00  0.00    +0.102 C 
ATOM     26  C   UNL     1       0.631  -4.313   0.900  0.00  0.00    +0.024 C 
ENDBRANCH   5  23
ENDBRANCH  13   3
ENDBRANCH   7  13
BRANCH   9  14
ATOM     14  C   UNL     1       0.054   1.372   1.313  0.00  0.00    +0.103 C 
BRANCH  14  18
ATOM      1  O   UNL     1      -1.727   2.588   0.266  0.00  0.00    -0.276 OA
ATOM      4  N   UNL     1      -2.333   0.838   1.661  0.00  0.00    -0.300 N 
ATOM     18  C   UNL     1      -1.406   1.668   1.022  0.00  0.00    +0.216 C 
ATOM     21  C   UNL     1      -1.930  -0.244   2.551  0.00  0.00    +0.132 C 
BRANCH   4  20
ATOM     20  C   UNL     1      -3.775   0.992   1.484  0.00  0.00    +0.142 C 
BRANCH  20  22
ATOM     22  C   UNL     1      -4.299   0.139   0.366  0.00  0.00    -0.030 A 
ATOM     24  C   UNL     1      -4.350   0.646  -0.933  0.00  0.00    +0.005 A 
ATOM     25  C   UNL     1      -4.734  -1.161   0.624  0.00  0.00    +0.005 A 
ATOM     27  C   UNL     1      -4.836  -0.146  -1.973  0.00  0.00    +0.000 A 
ATOM     28  C   UNL     1      -5.221  -1.953  -0.415  0.00  0.00    +0.000 A 
ATOM     29  C   UNL     1      -5.272  -1.446  -1.714  0.00  0.00    +0.000 A 
ENDBRANCH  20  22
ENDBRANCH   4  20
ENDBRANCH  14  18
ENDBRANCH   9  14
TORSDOF 8
