REMARK  Name = 7675200
REMARK  6 active torsions:
REMARK  status: ('A' for Active; 'I' for Inactive)
REMARK    1  A    between atoms: O_4  and  C_22
REMARK    2  A    between atoms: N_8  and  C_15
REMARK    3  A    between atoms: C_15  and  C_18
REMARK    4  A    between atoms: C_16  and  C_17
REMARK    5  A    between atoms: C_17  and  C_19
REMARK    6  A    between atoms: C_19  and  C_22
REMARK                            x       y       z     vdW  Elec       q    Type
REMARK                         _______ _______ _______ _____ _____    ______ ____
ROOT
ATOM      1  O   UNL     1       0.964   1.336   1.941  0.00  0.00    -0.273 OA
ATOM      2  O   UNL     1       2.625  -2.621   0.262  0.00  0.00    -0.252 OA
ATOM      3  O   UNL     1      -4.015  -1.673  -1.353  0.00  0.00    -0.276 OA
ATOM      6  N   UNL     1       0.452  -1.796   0.546  0.00  0.00    -0.271 N 
ATOM      7  N   UNL     1      -1.926  -0.959  -0.632  0.00  0.00    -0.298 N 
ATOM      8  N   UNL     1       2.157  -0.544   1.230  0.00  0.00    -0.220 N 
ATOM      9  C   UNL     1      -0.190  -0.611   1.070  0.00  0.00    +0.181 C 
ATOM     10  C   UNL     1      -1.048   0.046  -0.001  0.00  0.00    +0.139 C 
ATOM     11  C   UNL     1      -0.360  -2.802  -0.114  0.00  0.00    +0.129 C 
ATOM     12  C   UNL     1      -1.229  -2.134  -1.179  0.00  0.00    +0.127 C 
ATOM     13  C   UNL     1       1.024   0.206   1.474  0.00  0.00    +0.245 C 
ATOM     14  C   UNL     1       1.843  -1.760   0.643  0.00  0.00    +0.312 C 
ATOM     16  C   UNL     1      -3.307  -0.841  -0.780  0.00  0.00    +0.216 C 
ENDROOT
BRANCH   8  15
ATOM     15  C   UNL     1       3.505  -0.084   1.501  0.00  0.00    +0.153 C 
BRANCH  15  18
ATOM     18  C   UNL     1       4.104   0.629   0.323  0.00  0.00    -0.030 A 
ATOM     20  C   UNL     1       4.817  -0.093  -0.627  0.00  0.00    +0.005 A 
ATOM     21  C   UNL     1       3.938   2.003   0.194  0.00  0.00    +0.005 A 
ATOM     23  C   UNL     1       5.373   0.569  -1.721  0.00  0.00    +0.000 A 
ATOM     24  C   UNL     1       4.494   2.665  -0.900  0.00  0.00    +0.000 A 
ATOM     25  C   UNL     1       5.212   1.948  -1.858  0.00  0.00    +0.000 A 
ENDBRANCH  15  18
ENDBRANCH   8  15
BRANCH  16  17
ATOM     17  C   UNL     1      -3.946   0.390  -0.189  0.00  0.00    +0.107 C 
BRANCH  17  19
ATOM     19  C   UNL     1      -5.441   0.364  -0.436  0.00  0.00    +0.129 C 
BRANCH  19  22
ATOM      5  O   UNL     1      -5.504   2.521   0.650  0.00  0.00    -0.251 OA
ATOM     22  C   UNL     1      -6.102   1.616   0.083  0.00  0.00    +0.305 C 
BRANCH  22   4
ATOM      4  O   UNL     1      -7.442   1.624  -0.126  0.00  0.00    -0.481 OA
ATOM     26  H   UNL     1      -7.862   2.438   0.225  0.00  0.00    +0.295 HD
ENDBRANCH  22   4
ENDBRANCH  19  22
ENDBRANCH  17  19
ENDBRANCH  16  17
TORSDOF 6
