REMARK  Name = 38030355
REMARK  10 active torsions:
REMARK  status: ('A' for Active; 'I' for Inactive)
REMARK    1  A    between atoms: N_3  and  C_12
REMARK    2  A    between atoms: C_7  and  C_11
REMARK    3  A    between atoms: C_8  and  C_12
REMARK    4  A    between atoms: C_10  and  C_17
REMARK    5  A    between atoms: C_11  and  C_21
REMARK    6  A    between atoms: C_11  and  C_22
REMARK    7  A    between atoms: C_14  and  C_23
REMARK    8  A    between atoms: C_17  and  C_24
REMARK    9  A    between atoms: C_18  and  C_25
REMARK   10  A    between atoms: C_26  and  C_27
REMARK                            x       y       z     vdW  Elec       q    Type
REMARK                         _______ _______ _______ _____ _____    ______ ____
ROOT
ATOM      7  C   UNL     1       1.211   0.465  -0.733  0.00  0.00    +0.000 C 
ATOM      8  C   UNL     1       1.964   1.775  -0.404  0.00  0.00    +0.029 C 
ATOM      9  C   UNL     1       0.093   0.216   0.289  0.00  0.00    +0.012 C 
ATOM     10  C   UNL     1      -0.918   1.379   0.386  0.00  0.00    +0.024 C 
ATOM     13  C   UNL     1       1.032   2.903  -0.041  0.00  0.00    -0.023 C 
ATOM     14  C   UNL     1      -0.260   2.748   0.302  0.00  0.00    -0.073 C 
ATOM     23  C   UNL     1      -1.125   3.951   0.562  0.00  0.00    +0.039 C 
ENDROOT
BRANCH   7  11
ATOM     11  C   UNL     1       0.659   0.481  -2.165  0.00  0.00    -0.013 C 
ATOM     21  C   UNL     1      -0.029  -0.842  -2.485  0.00  0.00    +0.007 C 
ATOM     22  C   UNL     1       1.778   0.764  -3.163  0.00  0.00    +0.007 C 
ENDBRANCH   7  11
BRANCH   8  12
ATOM     12  C   UNL     1       2.979   1.576   0.726  0.00  0.00    +0.092 C 
BRANCH  12   3
ATOM      3  N   UNL     1       3.916   0.503   0.396  0.00  0.00    -0.302 NA
ATOM     15  C   UNL     1       4.512  -0.053   1.618  0.00  0.00    +0.085 C 
ATOM     16  C   UNL     1       4.952   0.990  -0.525  0.00  0.00    +0.085 C 
ATOM     18  C   UNL     1       6.538  -0.788   0.305  0.00  0.00    +0.077 C 
ATOM     19  C   UNL     1       5.455  -1.214   1.294  0.00  0.00    +0.028 C 
ATOM     20  C   UNL     1       5.908  -0.135  -0.924  0.00  0.00    +0.028 C 
BRANCH  18  25
ATOM      2  O   UNL     1       7.055  -2.665  -1.079  0.00  0.00    -0.276 OA
ATOM      5  N   UNL     1       8.409  -2.240   0.732  0.00  0.00    -0.329 N 
ATOM     25  C   UNL     1       7.345  -1.982  -0.100  0.00  0.00    +0.214 C 
ATOM     33  H   UNL     1       8.619  -1.666   1.542  0.00  0.00    +0.145 HD
ATOM     34  H   UNL     1       9.026  -3.027   0.560  0.00  0.00    +0.145 HD
ENDBRANCH  18  25
ENDBRANCH  12   3
ENDBRANCH   8  12
BRANCH  10  17
ATOM     17  C   UNL     1      -1.755   1.196   1.658  0.00  0.00    +0.105 C 
BRANCH  17  24
ATOM      1  O   UNL     1      -3.864   0.358   0.760  0.00  0.00    -0.420 OA
ATOM      4  N   UNL     1      -2.729  -1.136   1.979  0.00  0.00    -0.112 NA
ATOM      6  N   UNL     1      -3.892  -1.739   1.538  0.00  0.00    -0.107 NA
ATOM     24  C   UNL     1      -2.755   0.087   1.501  0.00  0.00    +0.218 A 
ATOM     26  C   UNL     1      -4.523  -0.831   0.831  0.00  0.00    +0.248 A 
BRANCH  26  27
ATOM     27  C   UNL     1      -5.775  -0.897   0.134  0.00  0.00    +0.038 A 
ATOM     28  C   UNL     1      -6.520  -2.076   0.151  0.00  0.00    +0.013 A 
ATOM     29  C   UNL     1      -6.247   0.217  -0.559  0.00  0.00    +0.013 A 
ATOM     30  C   UNL     1      -7.738  -2.140  -0.527  0.00  0.00    +0.001 A 
ATOM     31  C   UNL     1      -7.465   0.153  -1.236  0.00  0.00    +0.001 A 
ATOM     32  C   UNL     1      -8.210  -1.026  -1.220  0.00  0.00    +0.000 A 
ENDBRANCH  26  27
ENDBRANCH  17  24
ENDBRANCH  10  17
TORSDOF 7
