REMARK  Name = 25338365
REMARK  7 active torsions:
REMARK  status: ('A' for Active; 'I' for Inactive)
REMARK    1  A    between atoms: S_1  and  N_7
REMARK    2  A    between atoms: S_1  and  C_16
REMARK    3  A    between atoms: N_6  and  C_15
REMARK    4  A    between atoms: N_7  and  C_10
REMARK    5  A    between atoms: C_11  and  C_14
REMARK    6  A    between atoms: C_17  and  C_19
REMARK    7  A    between atoms: C_26  and  C_27
REMARK                            x       y       z     vdW  Elec       q    Type
REMARK                         _______ _______ _______ _____ _____    ______ ____
ROOT
ATOM      6  N   UNL     1      -1.750  -2.738   0.842  0.00  0.00    -0.293 NA
ATOM     10  C   UNL     1      -3.353  -1.209   0.111  0.00  0.00    +0.092 C 
ATOM     11  C   UNL     1      -1.315  -2.391  -0.525  0.00  0.00    +0.147 C 
ATOM     12  C   UNL     1      -2.253  -1.244  -0.947  0.00  0.00    +0.050 C 
ATOM     13  C   UNL     1      -3.199  -2.518   0.868  0.00  0.00    +0.105 C 
ATOM     15  C   UNL     1      -1.399  -4.099   1.228  0.00  0.00    +0.105 C 
ENDROOT
BRANCH  11  14
ATOM      3  O   UNL     1       0.911  -2.742  -1.471  0.00  0.00    -0.336 OA
ATOM      8  N   UNL     1       0.801  -1.068   0.013  0.00  0.00    -0.190 NA
ATOM      9  N   UNL     1       2.205  -2.213  -1.384  0.00  0.00    -0.056 NA
ATOM     14  C   UNL     1       0.147  -2.011  -0.617  0.00  0.00    +0.245 A 
ATOM     17  C   UNL     1       2.059  -1.230  -0.490  0.00  0.00    +0.202 A 
BRANCH  17  19
ATOM     19  C   UNL     1       3.149  -0.393  -0.079  0.00  0.00    +0.022 A 
ATOM     22  C   UNL     1       2.937   0.619   0.857  0.00  0.00    +0.012 A 
ATOM     23  C   UNL     1       4.421  -0.590  -0.617  0.00  0.00    +0.012 A 
ATOM     24  C   UNL     1       3.997   1.433   1.256  0.00  0.00    +0.004 A 
ATOM     25  C   UNL     1       5.480   0.225  -0.218  0.00  0.00    +0.004 A 
ATOM     26  C   UNL     1       5.268   1.236   0.719  0.00  0.00    -0.050 A 
ATOM     27  C   UNL     1       6.401   2.107   1.145  0.00  0.00    +0.044 C 
ENDBRANCH  17  19
ENDBRANCH  11  14
BRANCH  10   7
ATOM      7  N   UNL     1      -3.134  -0.063   1.030  0.00  0.00    -0.185 NA
ATOM     28  H   UNL     1      -2.220  -0.056   1.501  0.00  0.00    +0.148 HD
BRANCH   7   1
ATOM      1  S   UNL     1      -3.876   1.429   0.707  0.00  0.00    +0.065 S 
ATOM      4  O   UNL     1      -4.009   2.180   1.940  0.00  0.00    -0.153 OA
ATOM      5  O   UNL     1      -5.034   1.200  -0.136  0.00  0.00    -0.153 OA
BRANCH   1  16
ATOM      2  S   UNL     1      -1.238   2.697   0.541  0.00  0.00    -0.077 S 
ATOM     16  C   UNL     1      -2.660   2.233  -0.293  0.00  0.00    +0.142 A 
ATOM     18  C   UNL     1      -2.611   2.573  -1.627  0.00  0.00    +0.036 A 
ATOM     20  C   UNL     1      -1.390   3.223  -1.969  0.00  0.00    +0.010 A 
ATOM     21  C   UNL     1      -0.553   3.355  -0.883  0.00  0.00    +0.047 A 
ENDBRANCH   1  16
ENDBRANCH   7   1
ENDBRANCH  10   7
TORSDOF 5
