MODEL 1
REMARK VINA RESULT:      -7.3      0.000      0.000
REMARK  Name = 44716549
REMARK  17 active torsions:
REMARK  status: ('A' for Active; 'I' for Inactive)
REMARK    1  A    between atoms: O_5  and  C_16
REMARK    2  A    between atoms: O_6  and  C_17
REMARK    3  A    between atoms: O_9  and  C_28
REMARK    4  A    between atoms: O_9  and  C_33
REMARK    5  A    between atoms: O_11  and  C_36
REMARK    6  A    between atoms: O_11  and  C_37
REMARK    7  A    between atoms: N_12  and  C_19
REMARK    8  A    between atoms: C_15  and  C_19
REMARK    9  A    between atoms: C_18  and  C_20
REMARK   10  A    between atoms: C_20  and  C_23
REMARK   11  A    between atoms: C_21  and  C_22
REMARK   12  A    between atoms: C_21  and  C_25
REMARK   13  A    between atoms: C_21  and  C_26
REMARK   14  A    between atoms: C_21  and  C_27
REMARK   15  A    between atoms: C_22  and  C_24
REMARK   16  A    between atoms: C_25  and  C_28
REMARK   17  A    between atoms: C_29  and  C_30
REMARK                            x       y       z     vdW  Elec       q    Type
REMARK                         _______ _______ _______ _____ _____    ______ ____
ROOT
ATOM      4  O   UNL     1     -18.228   3.826  25.501  0.00  0.00    -0.366 OA
ATOM     15  C   UNL     1     -17.763   2.867  26.478  0.00  0.00    +0.167 C 
ATOM     16  C   UNL     1     -16.420   2.353  25.971  0.00  0.00    +0.176 C 
ATOM     17  C   UNL     1     -15.911   3.536  25.173  0.00  0.00    +0.175 C 
ATOM     18  C   UNL     1     -17.191   4.041  24.527  0.00  0.00    +0.159 C 
ENDROOT
BRANCH  16   5
ATOM      5  O   UNL     1     -16.667   1.243  25.109  0.00  0.00    -0.387 OA
ATOM     39  H   UNL     1     -16.411   0.438  25.592  0.00  0.00    +0.210 HD
ENDBRANCH  16   5
BRANCH  17   6
ATOM      6  O   UNL     1     -14.936   3.184  24.213  0.00  0.00    -0.387 OA
ATOM     40  H   UNL     1     -15.394   2.724  23.490  0.00  0.00    +0.210 HD
ENDBRANCH  17   6
BRANCH  15  19
ATOM     19  C   UNL     1     -17.660   3.581  27.819  0.00  0.00    +0.138 C 
BRANCH  19  12
ATOM      8  O   UNL     1     -16.045   5.126  29.637  0.00  0.00    -0.276 OA
ATOM     12  N   UNL     1     -16.472   3.143  28.515  0.00  0.00    -0.313 N 
ATOM     24  C   UNL     1     -15.755   3.963  29.377  0.00  0.00    +0.214 C 
ATOM     38  H   UNL     1     -16.163   2.186  28.367  0.00  0.00    +0.149 HD
BRANCH  24  22
ATOM     22  C   UNL     1     -14.548   3.232  29.955  0.00  0.00    +0.102 C 
BRANCH  22  21
ATOM     21  C   UNL     1     -14.725   2.530  31.326  0.00  0.00    -0.017 C 
ATOM     26  C   UNL     1     -15.779   3.268  32.178  0.00  0.00    +0.012 C 
ATOM     27  C   UNL     1     -13.379   2.634  32.081  0.00  0.00    +0.012 C 
BRANCH  21  25
ATOM     25  C   UNL     1     -15.136   1.044  31.207  0.00  0.00    +0.127 C 
BRANCH  25  28
ATOM     10  O   UNL     1     -15.409   0.321  28.914  0.00  0.00    -0.251 OA
ATOM     28  C   UNL     1     -14.711   0.377  29.918  0.00  0.00    +0.307 C 
BRANCH  28   9
ATOM      9  O   UNL     1     -13.461  -0.151  30.056  0.00  0.00    -0.468 OA
ATOM     33  C   UNL     1     -13.146  -1.233  29.173  0.00  0.00    +0.280 C 
ENDBRANCH  28   9
ENDBRANCH  25  28
ENDBRANCH  21  25
ENDBRANCH  22  21
ENDBRANCH  24  22
ENDBRANCH  19  12
ENDBRANCH  15  19
BRANCH  18  20
ATOM     20  C   UNL     1     -17.137   5.510  24.153  0.00  0.00    +0.133 C 
BRANCH  20  23
ATOM      7  O   UNL     1     -16.084   4.901  22.040  0.00  0.00    -0.338 OA
ATOM     13  N   UNL     1     -15.246   6.751  22.982  0.00  0.00    -0.191 NA
ATOM     14  N   UNL     1     -15.075   5.352  21.180  0.00  0.00    -0.056 NA
ATOM     23  C   UNL     1     -16.119   5.780  23.075  0.00  0.00    +0.230 A 
ATOM     29  C   UNL     1     -14.629   6.447  21.804  0.00  0.00    +0.202 A 
BRANCH  29  30
ATOM     30  C   UNL     1     -13.571   7.258  21.275  0.00  0.00    +0.023 A 
ATOM     31  C   UNL     1     -12.361   6.671  20.901  0.00  0.00    +0.015 A 
ATOM     32  C   UNL     1     -13.750   8.634  21.137  0.00  0.00    +0.015 A 
ATOM     34  C   UNL     1     -11.332   7.462  20.389  0.00  0.00    +0.046 A 
ATOM     35  C   UNL     1     -12.721   9.425  20.625  0.00  0.00    +0.046 A 
ATOM     36  C   UNL     1     -11.512   8.837  20.252  0.00  0.00    +0.130 A 
BRANCH  36  11
ATOM     11  O   UNL     1     -10.508   9.608  19.752  0.00  0.00    -0.406 OA
BRANCH  11  37
ATOM      1  F   UNL     1      -9.762  10.916  18.069  0.00  0.00    -0.133 F 
ATOM      2  F   UNL     1      -9.719   8.750  17.784  0.00  0.00    -0.133 F 
ATOM      3  F   UNL     1     -11.641   9.840  17.778  0.00  0.00    -0.133 F 
ATOM     37  C   UNL     1     -10.416   9.763  18.339  0.00  0.00    +0.575 C 
ENDBRANCH  11  37
ENDBRANCH  36  11
ENDBRANCH  29  30
ENDBRANCH  20  23
ENDBRANCH  18  20
TORSDOF 14
ENDMDL
MODEL 2
REMARK VINA RESULT:      -6.7      1.537      2.882
REMARK  Name = 44716549
REMARK  17 active torsions:
REMARK  status: ('A' for Active; 'I' for Inactive)
REMARK    1  A    between atoms: O_5  and  C_16
REMARK    2  A    between atoms: O_6  and  C_17
REMARK    3  A    between atoms: O_9  and  C_28
REMARK    4  A    between atoms: O_9  and  C_33
REMARK    5  A    between atoms: O_11  and  C_36
REMARK    6  A    between atoms: O_11  and  C_37
REMARK    7  A    between atoms: N_12  and  C_19
REMARK    8  A    between atoms: C_15  and  C_19
REMARK    9  A    between atoms: C_18  and  C_20
REMARK   10  A    between atoms: C_20  and  C_23
REMARK   11  A    between atoms: C_21  and  C_22
REMARK   12  A    between atoms: C_21  and  C_25
REMARK   13  A    between atoms: C_21  and  C_26
REMARK   14  A    between atoms: C_21  and  C_27
REMARK   15  A    between atoms: C_22  and  C_24
REMARK   16  A    between atoms: C_25  and  C_28
REMARK   17  A    between atoms: C_29  and  C_30
REMARK                            x       y       z     vdW  Elec       q    Type
REMARK                         _______ _______ _______ _____ _____    ______ ____
ROOT
ATOM      4  O   UNL     1     -16.329   3.457  26.814  0.00  0.00    -0.366 OA
ATOM     15  C   UNL     1     -17.424   2.719  27.403  0.00  0.00    +0.167 C 
ATOM     16  C   UNL     1     -18.482   2.579  26.313  0.00  0.00    +0.176 C 
ATOM     17  C   UNL     1     -17.642   2.600  25.053  0.00  0.00    +0.175 C 
ATOM     18  C   UNL     1     -16.585   3.632  25.409  0.00  0.00    +0.159 C 
ENDROOT
BRANCH  16   5
ATOM      5  O   UNL     1     -19.326   3.728  26.365  0.00  0.00    -0.387 OA
ATOM     39  H   UNL     1     -18.753   4.512  26.319  0.00  0.00    +0.210 HD
ENDBRANCH  16   5
BRANCH  17   6
ATOM      6  O   UNL     1     -18.372   2.965  23.901  0.00  0.00    -0.387 OA
ATOM     40  H   UNL     1     -17.778   3.484  23.333  0.00  0.00    +0.210 HD
ENDBRANCH  17   6
BRANCH  15  19
ATOM     19  C   UNL     1     -16.880   1.380  27.880  0.00  0.00    +0.138 C 
BRANCH  19  12
ATOM      8  O   UNL     1     -16.145  -0.237  30.148  0.00  0.00    -0.276 OA
ATOM     12  N   UNL     1     -15.770   1.597  28.779  0.00  0.00    -0.313 N 
ATOM     24  C   UNL     1     -15.492   0.759  29.852  0.00  0.00    +0.214 C 
ATOM     38  H   UNL     1     -15.168   2.395  28.603  0.00  0.00    +0.149 HD
BRANCH  24  22
ATOM     22  C   UNL     1     -14.271   1.243  30.625  0.00  0.00    +0.102 C 
BRANCH  22  21
ATOM     21  C   UNL     1     -14.515   2.173  31.842  0.00  0.00    -0.017 C 
ATOM     26  C   UNL     1     -13.280   3.062  32.098  0.00  0.00    +0.012 C 
ATOM     27  C   UNL     1     -14.693   1.274  33.088  0.00  0.00    +0.012 C 
BRANCH  21  25
ATOM     25  C   UNL     1     -15.756   3.082  31.681  0.00  0.00    +0.127 C 
BRANCH  25  28
ATOM     10  O   UNL     1     -15.612   4.591  33.566  0.00  0.00    -0.251 OA
ATOM     28  C   UNL     1     -15.636   4.432  32.352  0.00  0.00    +0.307 C 
BRANCH  28   9
ATOM      9  O   UNL     1     -15.575   5.417  31.411  0.00  0.00    -0.468 OA
ATOM     33  C   UNL     1     -16.056   5.059  30.111  0.00  0.00    +0.280 C 
ENDBRANCH  28   9
ENDBRANCH  25  28
ENDBRANCH  21  25
ENDBRANCH  22  21
ENDBRANCH  24  22
ENDBRANCH  19  12
ENDBRANCH  15  19
BRANCH  18  20
ATOM     20  C   UNL     1     -15.294   3.465  24.629  0.00  0.00    +0.133 C 
BRANCH  20  23
ATOM      7  O   UNL     1     -16.294   5.079  23.100  0.00  0.00    -0.338 OA
ATOM     13  N   UNL     1     -14.062   4.958  22.975  0.00  0.00    -0.191 NA
ATOM     14  N   UNL     1     -15.910   6.001  22.119  0.00  0.00    -0.056 NA
ATOM     23  C   UNL     1     -15.147   4.509  23.552  0.00  0.00    +0.230 A 
ATOM     29  C   UNL     1     -14.580   5.872  22.103  0.00  0.00    +0.202 A 
BRANCH  29  30
ATOM     30  C   UNL     1     -13.741   6.641  21.230  0.00  0.00    +0.023 A 
ATOM     31  C   UNL     1     -12.362   6.428  21.220  0.00  0.00    +0.015 A 
ATOM     32  C   UNL     1     -14.305   7.603  20.392  0.00  0.00    +0.015 A 
ATOM     34  C   UNL     1     -11.548   7.179  20.372  0.00  0.00    +0.046 A 
ATOM     35  C   UNL     1     -13.490   8.353  19.543  0.00  0.00    +0.046 A 
ATOM     36  C   UNL     1     -12.111   8.141  19.534  0.00  0.00    +0.130 A 
BRANCH  36  11
ATOM     11  O   UNL     1     -11.316   8.872  18.706  0.00  0.00    -0.406 OA
BRANCH  11  37
ATOM      1  F   UNL     1      -9.342   9.339  19.697  0.00  0.00    -0.133 F 
ATOM      2  F   UNL     1     -10.207  10.844  18.369  0.00  0.00    -0.133 F 
ATOM      3  F   UNL     1     -11.107  10.451  20.349  0.00  0.00    -0.133 F 
ATOM     37  C   UNL     1     -10.504   9.891  19.279  0.00  0.00    +0.575 C 
ENDBRANCH  11  37
ENDBRANCH  36  11
ENDBRANCH  29  30
ENDBRANCH  20  23
ENDBRANCH  18  20
TORSDOF 14
ENDMDL
MODEL 3
REMARK VINA RESULT:      -6.7     18.058     21.044
REMARK  Name = 44716549
REMARK  17 active torsions:
REMARK  status: ('A' for Active; 'I' for Inactive)
REMARK    1  A    between atoms: O_5  and  C_16
REMARK    2  A    between atoms: O_6  and  C_17
REMARK    3  A    between atoms: O_9  and  C_28
REMARK    4  A    between atoms: O_9  and  C_33
REMARK    5  A    between atoms: O_11  and  C_36
REMARK    6  A    between atoms: O_11  and  C_37
REMARK    7  A    between atoms: N_12  and  C_19
REMARK    8  A    between atoms: C_15  and  C_19
REMARK    9  A    between atoms: C_18  and  C_20
REMARK   10  A    between atoms: C_20  and  C_23
REMARK   11  A    between atoms: C_21  and  C_22
REMARK   12  A    between atoms: C_21  and  C_25
REMARK   13  A    between atoms: C_21  and  C_26
REMARK   14  A    between atoms: C_21  and  C_27
REMARK   15  A    between atoms: C_22  and  C_24
REMARK   16  A    between atoms: C_25  and  C_28
REMARK   17  A    between atoms: C_29  and  C_30
REMARK                            x       y       z     vdW  Elec       q    Type
REMARK                         _______ _______ _______ _____ _____    ______ ____
ROOT
ATOM      4  O   UNL     1      -3.750 -11.443  17.452  0.00  0.00    -0.366 OA
ATOM     15  C   UNL     1      -3.961 -11.814  16.070  0.00  0.00    +0.167 C 
ATOM     16  C   UNL     1      -4.832 -13.066  16.089  0.00  0.00    +0.176 C 
ATOM     17  C   UNL     1      -5.613 -12.887  17.374  0.00  0.00    +0.175 C 
ATOM     18  C   UNL     1      -4.558 -12.288  18.291  0.00  0.00    +0.159 C 
ENDROOT
BRANCH  16   5
ATOM      5  O   UNL     1      -3.974 -14.201  16.185  0.00  0.00    -0.387 OA
ATOM     39  H   UNL     1      -4.362 -14.804  16.843  0.00  0.00    +0.210 HD
ENDBRANCH  16   5
BRANCH  17   6
ATOM      6  O   UNL     1      -6.133 -14.096  17.886  0.00  0.00    -0.387 OA
ATOM     40  H   UNL     1      -7.064 -14.151  17.614  0.00  0.00    +0.210 HD
ENDBRANCH  17   6
BRANCH  15  19
ATOM     19  C   UNL     1      -4.625 -10.637  15.369  0.00  0.00    +0.138 C 
BRANCH  19  12
ATOM      8  O   UNL     1      -2.623 -10.178  13.349  0.00  0.00    -0.276 OA
ATOM     12  N   UNL     1      -4.737 -10.912  13.954  0.00  0.00    -0.313 N 
ATOM     24  C   UNL     1      -3.713 -10.656  13.051  0.00  0.00    +0.214 C 
ATOM     38  H   UNL     1      -5.605 -11.320  13.619  0.00  0.00    +0.149 HD
BRANCH  24  22
ATOM     22  C   UNL     1      -4.122 -11.037  11.633  0.00  0.00    +0.102 C 
BRANCH  22  21
ATOM     21  C   UNL     1      -4.462  -9.886  10.652  0.00  0.00    -0.017 C 
ATOM     26  C   UNL     1      -5.172 -10.439   9.398  0.00  0.00    +0.012 C 
ATOM     27  C   UNL     1      -3.127  -9.264  10.180  0.00  0.00    +0.012 C 
BRANCH  21  25
ATOM     25  C   UNL     1      -5.350  -8.786  11.279  0.00  0.00    +0.127 C 
BRANCH  25  28
ATOM     10  O   UNL     1      -7.606  -8.707  10.411  0.00  0.00    -0.251 OA
ATOM     28  C   UNL     1      -6.830  -9.095  11.274  0.00  0.00    +0.307 C 
BRANCH  28   9
ATOM      9  O   UNL     1      -7.154  -9.845  12.367  0.00  0.00    -0.468 OA
ATOM     33  C   UNL     1      -7.874 -11.052  12.096  0.00  0.00    +0.280 C 
ENDBRANCH  28   9
ENDBRANCH  25  28
ENDBRANCH  21  25
ENDBRANCH  22  21
ENDBRANCH  24  22
ENDBRANCH  19  12
ENDBRANCH  15  19
BRANCH  18  20
ATOM     20  C   UNL     1      -5.143 -11.469  19.427  0.00  0.00    +0.133 C 
BRANCH  20  23
ATOM      7  O   UNL     1      -7.512 -11.425  20.001  0.00  0.00    -0.338 OA
ATOM     13  N   UNL     1      -6.996 -10.285  18.144  0.00  0.00    -0.191 NA
ATOM     14  N   UNL     1      -8.716 -10.893  19.525  0.00  0.00    -0.056 NA
ATOM     23  C   UNL     1      -6.551 -11.020  19.131  0.00  0.00    +0.230 A 
ATOM     29  C   UNL     1      -8.330 -10.234  18.428  0.00  0.00    +0.202 A 
BRANCH  29  30
ATOM     30  C   UNL     1      -9.251  -9.515  17.596  0.00  0.00    +0.023 A 
ATOM     31  C   UNL     1     -10.565  -9.313  18.020  0.00  0.00    +0.015 A 
ATOM     32  C   UNL     1      -8.833  -9.018  16.362  0.00  0.00    +0.015 A 
ATOM     34  C   UNL     1     -11.460  -8.615  17.209  0.00  0.00    +0.046 A 
ATOM     35  C   UNL     1      -9.727  -8.319  15.551  0.00  0.00    +0.046 A 
ATOM     36  C   UNL     1     -11.042  -8.119  15.975  0.00  0.00    +0.130 A 
BRANCH  36  11
ATOM     11  O   UNL     1     -11.915  -7.437  15.184  0.00  0.00    -0.406 OA
BRANCH  11  37
ATOM      1  F   UNL     1     -11.330  -5.619  16.389  0.00  0.00    -0.133 F 
ATOM      2  F   UNL     1     -12.378  -5.305  14.497  0.00  0.00    -0.133 F 
ATOM      3  F   UNL     1     -13.453  -6.119  16.248  0.00  0.00    -0.133 F 
ATOM     37  C   UNL     1     -12.285  -6.118  15.571  0.00  0.00    +0.575 C 
ENDBRANCH  11  37
ENDBRANCH  36  11
ENDBRANCH  29  30
ENDBRANCH  20  23
ENDBRANCH  18  20
TORSDOF 14
ENDMDL
MODEL 4
REMARK VINA RESULT:      -6.6     17.924     20.641
REMARK  Name = 44716549
REMARK  17 active torsions:
REMARK  status: ('A' for Active; 'I' for Inactive)
REMARK    1  A    between atoms: O_5  and  C_16
REMARK    2  A    between atoms: O_6  and  C_17
REMARK    3  A    between atoms: O_9  and  C_28
REMARK    4  A    between atoms: O_9  and  C_33
REMARK    5  A    between atoms: O_11  and  C_36
REMARK    6  A    between atoms: O_11  and  C_37
REMARK    7  A    between atoms: N_12  and  C_19
REMARK    8  A    between atoms: C_15  and  C_19
REMARK    9  A    between atoms: C_18  and  C_20
REMARK   10  A    between atoms: C_20  and  C_23
REMARK   11  A    between atoms: C_21  and  C_22
REMARK   12  A    between atoms: C_21  and  C_25
REMARK   13  A    between atoms: C_21  and  C_26
REMARK   14  A    between atoms: C_21  and  C_27
REMARK   15  A    between atoms: C_22  and  C_24
REMARK   16  A    between atoms: C_25  and  C_28
REMARK   17  A    between atoms: C_29  and  C_30
REMARK                            x       y       z     vdW  Elec       q    Type
REMARK                         _______ _______ _______ _____ _____    ______ ____
ROOT
ATOM      4  O   UNL     1      -6.027 -10.838  18.553  0.00  0.00    -0.366 OA
ATOM     15  C   UNL     1      -4.887 -10.506  17.727  0.00  0.00    +0.167 C 
ATOM     16  C   UNL     1      -4.055 -11.778  17.612  0.00  0.00    +0.176 C 
ATOM     17  C   UNL     1      -5.107 -12.858  17.756  0.00  0.00    +0.175 C 
ATOM     18  C   UNL     1      -6.020 -12.254  18.810  0.00  0.00    +0.159 C 
ENDROOT
BRANCH  16   5
ATOM      5  O   UNL     1      -3.150 -11.818  18.715  0.00  0.00    -0.387 OA
ATOM     39  H   UNL     1      -3.000 -10.900  19.000  0.00  0.00    +0.210 HD
ENDBRANCH  16   5
BRANCH  17   6
ATOM      6  O   UNL     1      -4.578 -14.103  18.164  0.00  0.00    -0.387 OA
ATOM     40  H   UNL     1      -3.638 -14.114  17.919  0.00  0.00    +0.210 HD
ENDBRANCH  17   6
BRANCH  15  19
ATOM     19  C   UNL     1      -5.412 -10.014  16.386  0.00  0.00    +0.138 C 
BRANCH  19  12
ATOM      8  O   UNL     1      -6.703 -10.993  14.004  0.00  0.00    -0.276 OA
ATOM     12  N   UNL     1      -4.805 -10.772  15.316  0.00  0.00    -0.313 N 
ATOM     24  C   UNL     1      -5.511 -11.204  14.200  0.00  0.00    +0.214 C 
ATOM     38  H   UNL     1      -3.814 -10.985  15.391  0.00  0.00    +0.149 HD
BRANCH  24  22
ATOM     22  C   UNL     1      -4.612 -11.987  13.250  0.00  0.00    +0.102 C 
BRANCH  22  21
ATOM     21  C   UNL     1      -3.675 -11.176  12.319  0.00  0.00    -0.017 C 
ATOM     26  C   UNL     1      -4.364  -9.872  11.863  0.00  0.00    +0.012 C 
ATOM     27  C   UNL     1      -3.427 -12.026  11.050  0.00  0.00    +0.012 C 
BRANCH  21  25
ATOM     25  C   UNL     1      -2.319 -10.818  12.972  0.00  0.00    +0.127 C 
BRANCH  25  28
ATOM     10  O   UNL     1      -1.255 -12.942  13.428  0.00  0.00    -0.251 OA
ATOM     28  C   UNL     1      -1.742 -11.903  13.854  0.00  0.00    +0.307 C 
BRANCH  28   9
ATOM      9  O   UNL     1      -1.860 -11.550  15.166  0.00  0.00    -0.468 OA
ATOM     33  C   UNL     1      -1.133 -10.382  15.559  0.00  0.00    +0.280 C 
ENDBRANCH  28   9
ENDBRANCH  25  28
ENDBRANCH  21  25
ENDBRANCH  22  21
ENDBRANCH  24  22
ENDBRANCH  19  12
ENDBRANCH  15  19
BRANCH  18  20
ATOM     20  C   UNL     1      -7.439 -12.790  18.756  0.00  0.00    +0.133 C 
BRANCH  20  23
ATOM      7  O   UNL     1      -8.993 -11.357  19.970  0.00  0.00    -0.338 OA
ATOM     13  N   UNL     1      -8.920 -10.970  17.766  0.00  0.00    -0.191 NA
ATOM     14  N   UNL     1      -9.902 -10.319  19.727  0.00  0.00    -0.056 NA
ATOM     23  C   UNL     1      -8.460 -11.681  18.764  0.00  0.00    +0.230 A 
ATOM     29  C   UNL     1      -9.802 -10.148  18.406  0.00  0.00    +0.202 A 
BRANCH  29  30
ATOM     30  C   UNL     1     -10.566  -9.164  17.696  0.00  0.00    +0.023 A 
ATOM     31  C   UNL     1      -9.972  -7.961  17.311  0.00  0.00    +0.015 A 
ATOM     32  C   UNL     1     -11.905  -9.409  17.390  0.00  0.00    +0.015 A 
ATOM     34  C   UNL     1     -10.718  -7.005  16.623  0.00  0.00    +0.046 A 
ATOM     35  C   UNL     1     -12.651  -8.452  16.702  0.00  0.00    +0.046 A 
ATOM     36  C   UNL     1     -12.057  -7.250  16.318  0.00  0.00    +0.130 A 
BRANCH  36  11
ATOM     11  O   UNL     1     -12.784  -6.316  15.645  0.00  0.00    -0.406 OA
BRANCH  11  37
ATOM      1  F   UNL     1     -11.623  -5.178  14.079  0.00  0.00    -0.133 F 
ATOM      2  F   UNL     1     -12.058  -7.287  13.705  0.00  0.00    -0.133 F 
ATOM      3  F   UNL     1     -13.670  -5.778  13.606  0.00  0.00    -0.133 F 
ATOM     37  C   UNL     1     -12.545  -6.152  14.251  0.00  0.00    +0.575 C 
ENDBRANCH  11  37
ENDBRANCH  36  11
ENDBRANCH  29  30
ENDBRANCH  20  23
ENDBRANCH  18  20
TORSDOF 14
ENDMDL
MODEL 5
REMARK VINA RESULT:      -6.6     17.497     20.267
REMARK  Name = 44716549
REMARK  17 active torsions:
REMARK  status: ('A' for Active; 'I' for Inactive)
REMARK    1  A    between atoms: O_5  and  C_16
REMARK    2  A    between atoms: O_6  and  C_17
REMARK    3  A    between atoms: O_9  and  C_28
REMARK    4  A    between atoms: O_9  and  C_33
REMARK    5  A    between atoms: O_11  and  C_36
REMARK    6  A    between atoms: O_11  and  C_37
REMARK    7  A    between atoms: N_12  and  C_19
REMARK    8  A    between atoms: C_15  and  C_19
REMARK    9  A    between atoms: C_18  and  C_20
REMARK   10  A    between atoms: C_20  and  C_23
REMARK   11  A    between atoms: C_21  and  C_22
REMARK   12  A    between atoms: C_21  and  C_25
REMARK   13  A    between atoms: C_21  and  C_26
REMARK   14  A    between atoms: C_21  and  C_27
REMARK   15  A    between atoms: C_22  and  C_24
REMARK   16  A    between atoms: C_25  and  C_28
REMARK   17  A    between atoms: C_29  and  C_30
REMARK                            x       y       z     vdW  Elec       q    Type
REMARK                         _______ _______ _______ _____ _____    ______ ____
ROOT
ATOM      4  O   UNL     1     -10.739 -12.494  18.997  0.00  0.00    -0.366 OA
ATOM     15  C   UNL     1     -11.571 -11.454  19.561  0.00  0.00    +0.167 C 
ATOM     16  C   UNL     1     -12.333 -12.094  20.716  0.00  0.00    +0.176 C 
ATOM     17  C   UNL     1     -11.380 -13.185  21.158  0.00  0.00    +0.175 C 
ATOM     18  C   UNL     1     -10.830 -13.666  19.825  0.00  0.00    +0.159 C 
ENDROOT
BRANCH  16   5
ATOM      5  O   UNL     1     -13.532 -12.666  20.193  0.00  0.00    -0.387 OA
ATOM     39  H   UNL     1     -13.288 -13.496  19.748  0.00  0.00    +0.210 HD
ENDBRANCH  16   5
BRANCH  17   6
ATOM      6  O   UNL     1     -12.013 -14.224  21.875  0.00  0.00    -0.387 OA
ATOM     40  H   UNL     1     -12.571 -14.713  21.247  0.00  0.00    +0.210 HD
ENDBRANCH  17   6
BRANCH  15  19
ATOM     19  C   UNL     1     -10.659 -10.319  20.007  0.00  0.00    +0.138 C 
BRANCH  19  12
ATOM      8  O   UNL     1     -10.872  -8.597  17.707  0.00  0.00    -0.276 OA
ATOM     12  N   UNL     1      -9.649 -10.082  19.001  0.00  0.00    -0.313 N 
ATOM     24  C   UNL     1      -9.843  -9.229  17.921  0.00  0.00    +0.214 C 
ATOM     38  H   UNL     1      -8.757 -10.558  19.104  0.00  0.00    +0.149 HD
BRANCH  24  22
ATOM     22  C   UNL     1      -8.610  -9.187  17.026  0.00  0.00    +0.102 C 
BRANCH  22  21
ATOM     21  C   UNL     1      -8.709  -9.871  15.638  0.00  0.00    -0.017 C 
ATOM     26  C   UNL     1      -9.716  -9.123  14.739  0.00  0.00    +0.012 C 
ATOM     27  C   UNL     1      -9.269 -11.296  15.858  0.00  0.00    +0.012 C 
BRANCH  21  25
ATOM     25  C   UNL     1      -7.353  -9.959  14.898  0.00  0.00    +0.127 C 
BRANCH  25  28
ATOM     10  O   UNL     1      -7.140 -12.089  13.770  0.00  0.00    -0.251 OA
ATOM     28  C   UNL     1      -7.350 -10.885  13.702  0.00  0.00    +0.307 C 
BRANCH  28   9
ATOM      9  O   UNL     1      -7.600 -10.176  12.564  0.00  0.00    -0.468 OA
ATOM     33  C   UNL     1      -6.664  -9.136  12.266  0.00  0.00    +0.280 C 
ENDBRANCH  28   9
ENDBRANCH  25  28
ENDBRANCH  21  25
ENDBRANCH  22  21
ENDBRANCH  24  22
ENDBRANCH  19  12
ENDBRANCH  15  19
BRANCH  18  20
ATOM     20  C   UNL     1      -9.464 -14.319  19.939  0.00  0.00    +0.133 C 
BRANCH  20  23
ATOM      7  O   UNL     1      -8.040 -12.416  20.481  0.00  0.00    -0.338 OA
ATOM     13  N   UNL     1      -7.633 -13.324  18.475  0.00  0.00    -0.191 NA
ATOM     14  N   UNL     1      -6.998 -11.667  19.920  0.00  0.00    -0.056 NA
ATOM     23  C   UNL     1      -8.354 -13.370  19.566  0.00  0.00    +0.230 A 
ATOM     29  C   UNL     1      -6.815 -12.263  18.738  0.00  0.00    +0.202 A 
BRANCH  29  30
ATOM     30  C   UNL     1      -5.824 -11.825  17.798  0.00  0.00    +0.023 A 
ATOM     31  C   UNL     1      -5.357 -12.700  16.817  0.00  0.00    +0.015 A 
ATOM     32  C   UNL     1      -5.325 -10.524  17.868  0.00  0.00    +0.015 A 
ATOM     34  C   UNL     1      -4.391 -12.272  15.906  0.00  0.00    +0.046 A 
ATOM     35  C   UNL     1      -4.360 -10.097  16.957  0.00  0.00    +0.046 A 
ATOM     36  C   UNL     1      -3.892 -10.972  15.975  0.00  0.00    +0.130 A 
BRANCH  36  11
ATOM     11  O   UNL     1      -2.951 -10.555  15.086  0.00  0.00    -0.406 OA
BRANCH  11  37
ATOM      1  F   UNL     1      -1.095 -11.816  14.831  0.00  0.00    -0.133 F 
ATOM      2  F   UNL     1      -0.850  -9.652  15.011  0.00  0.00    -0.133 F 
ATOM      3  F   UNL     1      -1.431 -10.862  16.768  0.00  0.00    -0.133 F 
ATOM     37  C   UNL     1      -1.579 -10.707  15.435  0.00  0.00    +0.575 C 
ENDBRANCH  11  37
ENDBRANCH  36  11
ENDBRANCH  29  30
ENDBRANCH  20  23
ENDBRANCH  18  20
TORSDOF 14
ENDMDL
MODEL 6
REMARK VINA RESULT:      -6.5     18.689     20.699
REMARK  Name = 44716549
REMARK  17 active torsions:
REMARK  status: ('A' for Active; 'I' for Inactive)
REMARK    1  A    between atoms: O_5  and  C_16
REMARK    2  A    between atoms: O_6  and  C_17
REMARK    3  A    between atoms: O_9  and  C_28
REMARK    4  A    between atoms: O_9  and  C_33
REMARK    5  A    between atoms: O_11  and  C_36
REMARK    6  A    between atoms: O_11  and  C_37
REMARK    7  A    between atoms: N_12  and  C_19
REMARK    8  A    between atoms: C_15  and  C_19
REMARK    9  A    between atoms: C_18  and  C_20
REMARK   10  A    between atoms: C_20  and  C_23
REMARK   11  A    between atoms: C_21  and  C_22
REMARK   12  A    between atoms: C_21  and  C_25
REMARK   13  A    between atoms: C_21  and  C_26
REMARK   14  A    between atoms: C_21  and  C_27
REMARK   15  A    between atoms: C_22  and  C_24
REMARK   16  A    between atoms: C_25  and  C_28
REMARK   17  A    between atoms: C_29  and  C_30
REMARK                            x       y       z     vdW  Elec       q    Type
REMARK                         _______ _______ _______ _____ _____    ______ ____
ROOT
ATOM      4  O   UNL     1      -6.684 -11.710  17.405  0.00  0.00    -0.366 OA
ATOM     15  C   UNL     1      -6.346 -12.234  18.710  0.00  0.00    +0.167 C 
ATOM     16  C   UNL     1      -4.829 -12.388  18.731  0.00  0.00    +0.176 C 
ATOM     17  C   UNL     1      -4.388 -11.308  17.766  0.00  0.00    +0.175 C 
ATOM     18  C   UNL     1      -5.470 -11.391  16.701  0.00  0.00    +0.159 C 
ENDROOT
BRANCH  16   5
ATOM      5  O   UNL     1      -4.508 -13.678  18.212  0.00  0.00    -0.387 OA
ATOM     39  H   UNL     1      -5.069 -13.825  17.431  0.00  0.00    +0.210 HD
ENDBRANCH  16   5
BRANCH  17   6
ATOM      6  O   UNL     1      -3.100 -11.528  17.230  0.00  0.00    -0.387 OA
ATOM     40  H   UNL     1      -2.929 -10.822  16.585  0.00  0.00    +0.210 HD
ENDBRANCH  17   6
BRANCH  15  19
ATOM     19  C   UNL     1      -6.860 -11.252  19.753  0.00  0.00    +0.138 C 
BRANCH  19  12
ATOM      8  O   UNL     1      -9.597 -11.877  20.399  0.00  0.00    -0.276 OA
ATOM     12  N   UNL     1      -8.044 -10.588  19.258  0.00  0.00    -0.313 N 
ATOM     24  C   UNL     1      -9.330 -10.962  19.627  0.00  0.00    +0.214 C 
ATOM     38  H   UNL     1      -7.917  -9.809  18.618  0.00  0.00    +0.149 HD
BRANCH  24  22
ATOM     22  C   UNL     1     -10.375 -10.090  18.939  0.00  0.00    +0.102 C 
BRANCH  22  21
ATOM     21  C   UNL     1     -10.875 -10.539  17.541  0.00  0.00    -0.017 C 
ATOM     26  C   UNL     1     -12.187  -9.813  17.180  0.00  0.00    +0.012 C 
ATOM     27  C   UNL     1     -11.199 -12.049  17.625  0.00  0.00    +0.012 C 
BRANCH  21  25
ATOM     25  C   UNL     1      -9.845 -10.295  16.413  0.00  0.00    +0.127 C 
BRANCH  25  28
ATOM     10  O   UNL     1      -8.411  -8.491  17.149  0.00  0.00    -0.251 OA
ATOM     28  C   UNL     1      -9.272  -8.896  16.378  0.00  0.00    +0.307 C 
BRANCH  28   9
ATOM      9  O   UNL     1      -9.864  -8.174  15.384  0.00  0.00    -0.468 OA
ATOM     33  C   UNL     1     -10.270  -6.849  15.742  0.00  0.00    +0.280 C 
ENDBRANCH  28   9
ENDBRANCH  25  28
ENDBRANCH  21  25
ENDBRANCH  22  21
ENDBRANCH  24  22
ENDBRANCH  19  12
ENDBRANCH  15  19
BRANCH  18  20
ATOM     20  C   UNL     1      -5.653 -10.099  15.926  0.00  0.00    +0.133 C 
BRANCH  20  23
ATOM      7  O   UNL     1      -3.764 -10.487  14.436  0.00  0.00    -0.338 OA
ATOM     13  N   UNL     1      -5.685 -10.031  13.381  0.00  0.00    -0.191 NA
ATOM     14  N   UNL     1      -3.473 -10.519  13.066  0.00  0.00    -0.056 NA
ATOM     23  C   UNL     1      -5.086 -10.193  14.533  0.00  0.00    +0.230 A 
ATOM     29  C   UNL     1      -4.656 -10.241  12.510  0.00  0.00    +0.202 A 
BRANCH  29  30
ATOM     30  C   UNL     1      -4.842 -10.167  11.090  0.00  0.00    +0.023 A 
ATOM     31  C   UNL     1      -4.103  -9.256  10.335  0.00  0.00    +0.015 A 
ATOM     32  C   UNL     1      -5.765 -11.006  10.464  0.00  0.00    +0.015 A 
ATOM     34  C   UNL     1      -4.287  -9.184   8.954  0.00  0.00    +0.046 A 
ATOM     35  C   UNL     1      -5.949 -10.934   9.083  0.00  0.00    +0.046 A 
ATOM     36  C   UNL     1      -5.209 -10.022   8.328  0.00  0.00    +0.130 A 
BRANCH  36  11
ATOM     11  O   UNL     1      -5.388  -9.952   6.981  0.00  0.00    -0.406 OA
BRANCH  11  37
ATOM      1  F   UNL     1      -7.118  -8.563   7.401  0.00  0.00    -0.133 F 
ATOM      2  F   UNL     1      -6.434  -8.758   5.335  0.00  0.00    -0.133 F 
ATOM      3  F   UNL     1      -7.527 -10.412   6.311  0.00  0.00    -0.133 F 
ATOM     37  C   UNL     1      -6.619  -9.430   6.491  0.00  0.00    +0.575 C 
ENDBRANCH  11  37
ENDBRANCH  36  11
ENDBRANCH  29  30
ENDBRANCH  20  23
ENDBRANCH  18  20
TORSDOF 14
ENDMDL
MODEL 7
REMARK VINA RESULT:      -6.5     18.078     21.076
REMARK  Name = 44716549
REMARK  17 active torsions:
REMARK  status: ('A' for Active; 'I' for Inactive)
REMARK    1  A    between atoms: O_5  and  C_16
REMARK    2  A    between atoms: O_6  and  C_17
REMARK    3  A    between atoms: O_9  and  C_28
REMARK    4  A    between atoms: O_9  and  C_33
REMARK    5  A    between atoms: O_11  and  C_36
REMARK    6  A    between atoms: O_11  and  C_37
REMARK    7  A    between atoms: N_12  and  C_19
REMARK    8  A    between atoms: C_15  and  C_19
REMARK    9  A    between atoms: C_18  and  C_20
REMARK   10  A    between atoms: C_20  and  C_23
REMARK   11  A    between atoms: C_21  and  C_22
REMARK   12  A    between atoms: C_21  and  C_25
REMARK   13  A    between atoms: C_21  and  C_26
REMARK   14  A    between atoms: C_21  and  C_27
REMARK   15  A    between atoms: C_22  and  C_24
REMARK   16  A    between atoms: C_25  and  C_28
REMARK   17  A    between atoms: C_29  and  C_30
REMARK                            x       y       z     vdW  Elec       q    Type
REMARK                         _______ _______ _______ _____ _____    ______ ____
ROOT
ATOM      4  O   UNL     1      -3.827 -11.043  17.079  0.00  0.00    -0.366 OA
ATOM     15  C   UNL     1      -4.172 -11.459  15.738  0.00  0.00    +0.167 C 
ATOM     16  C   UNL     1      -4.706 -12.883  15.854  0.00  0.00    +0.176 C 
ATOM     17  C   UNL     1      -5.282 -12.891  17.254  0.00  0.00    +0.175 C 
ATOM     18  C   UNL     1      -4.261 -12.054  18.008  0.00  0.00    +0.159 C 
ENDROOT
BRANCH  16   5
ATOM      5  O   UNL     1      -3.600 -13.779  15.766  0.00  0.00    -0.387 OA
ATOM     39  H   UNL     1      -2.890 -13.319  15.285  0.00  0.00    +0.210 HD
ENDBRANCH  16   5
BRANCH  17   6
ATOM      6  O   UNL     1      -5.407 -14.188  17.799  0.00  0.00    -0.387 OA
ATOM     40  H   UNL     1      -6.357 -14.378  17.881  0.00  0.00    +0.210 HD
ENDBRANCH  17   6
BRANCH  15  19
ATOM     19  C   UNL     1      -5.204 -10.478  15.198  0.00  0.00    +0.138 C 
BRANCH  19  12
ATOM      8  O   UNL     1      -7.486  -9.611  13.668  0.00  0.00    -0.276 OA
ATOM     12  N   UNL     1      -5.491 -10.785  13.815  0.00  0.00    -0.313 N 
ATOM     24  C   UNL     1      -6.623 -10.320  13.158  0.00  0.00    +0.214 C 
ATOM     38  H   UNL     1      -4.824 -11.360  13.309  0.00  0.00    +0.149 HD
BRANCH  24  22
ATOM     22  C   UNL     1      -6.663 -10.812  11.715  0.00  0.00    +0.102 C 
BRANCH  22  21
ATOM     21  C   UNL     1      -6.256  -9.810  10.605  0.00  0.00    -0.017 C 
ATOM     26  C   UNL     1      -7.464  -8.944  10.191  0.00  0.00    +0.012 C 
ATOM     27  C   UNL     1      -5.841 -10.633   9.362  0.00  0.00    +0.012 C 
BRANCH  21  25
ATOM     25  C   UNL     1      -5.093  -8.876  11.015  0.00  0.00    +0.127 C 
BRANCH  25  28
ATOM     10  O   UNL     1      -3.032  -9.074   9.766  0.00  0.00    -0.251 OA
ATOM     28  C   UNL     1      -3.715  -9.423  10.719  0.00  0.00    +0.307 C 
BRANCH  28   9
ATOM      9  O   UNL     1      -3.371 -10.353  11.656  0.00  0.00    -0.468 OA
ATOM     33  C   UNL     1      -1.996 -10.353  12.050  0.00  0.00    +0.280 C 
ENDBRANCH  28   9
ENDBRANCH  25  28
ENDBRANCH  21  25
ENDBRANCH  22  21
ENDBRANCH  24  22
ENDBRANCH  19  12
ENDBRANCH  15  19
BRANCH  18  20
ATOM     20  C   UNL     1      -4.824 -11.395  19.253  0.00  0.00    +0.133 C 
BRANCH  20  23
ATOM      7  O   UNL     1      -7.142 -11.519  19.999  0.00  0.00    -0.338 OA
ATOM     13  N   UNL     1      -6.833 -10.263  18.171  0.00  0.00    -0.191 NA
ATOM     14  N   UNL     1      -8.407 -11.038  19.639  0.00  0.00    -0.056 NA
ATOM     23  C   UNL     1      -6.273 -11.016  19.084  0.00  0.00    +0.230 A 
ATOM     29  C   UNL     1      -8.142 -10.305  18.553  0.00  0.00    +0.202 A 
BRANCH  29  30
ATOM     30  C   UNL     1      -9.162  -9.603  17.829  0.00  0.00    +0.023 A 
ATOM     31  C   UNL     1     -10.474  -9.594  18.302  0.00  0.00    +0.015 A 
ATOM     32  C   UNL     1      -8.841  -8.931  16.650  0.00  0.00    +0.015 A 
ATOM     34  C   UNL     1     -11.465  -8.912  17.596  0.00  0.00    +0.046 A 
ATOM     35  C   UNL     1      -9.831  -8.249  15.943  0.00  0.00    +0.046 A 
ATOM     36  C   UNL     1     -11.144  -8.240  16.417  0.00  0.00    +0.130 A 
BRANCH  36  11
ATOM     11  O   UNL     1     -12.111  -7.575  15.728  0.00  0.00    -0.406 OA
BRANCH  11  37
ATOM      1  F   UNL     1     -13.262  -5.642  15.535  0.00  0.00    -0.133 F 
ATOM      2  F   UNL     1     -11.432  -5.633  16.730  0.00  0.00    -0.133 F 
ATOM      3  F   UNL     1     -11.328  -5.791  14.528  0.00  0.00    -0.133 F 
ATOM     37  C   UNL     1     -12.015  -6.157  15.630  0.00  0.00    +0.575 C 
ENDBRANCH  11  37
ENDBRANCH  36  11
ENDBRANCH  29  30
ENDBRANCH  20  23
ENDBRANCH  18  20
TORSDOF 14
ENDMDL
MODEL 8
REMARK VINA RESULT:      -6.4     30.374     34.040
REMARK  Name = 44716549
REMARK  17 active torsions:
REMARK  status: ('A' for Active; 'I' for Inactive)
REMARK    1  A    between atoms: O_5  and  C_16
REMARK    2  A    between atoms: O_6  and  C_17
REMARK    3  A    between atoms: O_9  and  C_28
REMARK    4  A    between atoms: O_9  and  C_33
REMARK    5  A    between atoms: O_11  and  C_36
REMARK    6  A    between atoms: O_11  and  C_37
REMARK    7  A    between atoms: N_12  and  C_19
REMARK    8  A    between atoms: C_15  and  C_19
REMARK    9  A    between atoms: C_18  and  C_20
REMARK   10  A    between atoms: C_20  and  C_23
REMARK   11  A    between atoms: C_21  and  C_22
REMARK   12  A    between atoms: C_21  and  C_25
REMARK   13  A    between atoms: C_21  and  C_26
REMARK   14  A    between atoms: C_21  and  C_27
REMARK   15  A    between atoms: C_22  and  C_24
REMARK   16  A    between atoms: C_25  and  C_28
REMARK   17  A    between atoms: C_29  and  C_30
REMARK                            x       y       z     vdW  Elec       q    Type
REMARK                         _______ _______ _______ _____ _____    ______ ____
ROOT
ATOM      4  O   UNL     1       9.856   6.219   5.837  0.00  0.00    -0.366 OA
ATOM     15  C   UNL     1       9.304   6.034   7.161  0.00  0.00    +0.167 C 
ATOM     16  C   UNL     1      10.478   5.692   8.071  0.00  0.00    +0.176 C 
ATOM     17  C   UNL     1      11.628   6.397   7.383  0.00  0.00    +0.175 C 
ATOM     18  C   UNL     1      11.292   6.168   5.918  0.00  0.00    +0.159 C 
ENDROOT
BRANCH  16   5
ATOM      5  O   UNL     1      10.670   4.279   8.035  0.00  0.00    -0.387 OA
ATOM     39  H   UNL     1      10.078   3.888   8.701  0.00  0.00    +0.210 HD
ENDBRANCH  16   5
BRANCH  17   6
ATOM      6  O   UNL     1      12.893   5.869   7.724  0.00  0.00    -0.387 OA
ATOM     40  H   UNL     1      13.339   6.523   8.288  0.00  0.00    +0.210 HD
ENDBRANCH  17   6
BRANCH  15  19
ATOM     19  C   UNL     1       8.600   7.325   7.556  0.00  0.00    +0.138 C 
BRANCH  19  12
ATOM      8  O   UNL     1       9.384   9.683   6.098  0.00  0.00    -0.276 OA
ATOM     12  N   UNL     1       7.941   7.894   6.403  0.00  0.00    -0.313 N 
ATOM     24  C   UNL     1       8.394   9.041   5.763  0.00  0.00    +0.214 C 
ATOM     38  H   UNL     1       7.115   7.420   6.049  0.00  0.00    +0.149 HD
BRANCH  24  22
ATOM     22  C   UNL     1       7.494   9.407   4.588  0.00  0.00    +0.102 C 
BRANCH  22  21
ATOM     21  C   UNL     1       8.062   9.205   3.160  0.00  0.00    -0.017 C 
ATOM     26  C   UNL     1       8.650   7.787   3.008  0.00  0.00    +0.012 C 
ATOM     27  C   UNL     1       9.230  10.203   2.977  0.00  0.00    +0.012 C 
BRANCH  21  25
ATOM     25  C   UNL     1       7.014   9.429   2.044  0.00  0.00    +0.127 C 
BRANCH  25  28
ATOM     10  O   UNL     1       4.760   9.839   2.820  0.00  0.00    -0.251 OA
ATOM     28  C   UNL     1       5.837  10.287   2.452  0.00  0.00    +0.307 C 
BRANCH  28   9
ATOM      9  O   UNL     1       6.159  11.607   2.332  0.00  0.00    -0.468 OA
ATOM     33  C   UNL     1       5.340  12.512   3.080  0.00  0.00    +0.280 C 
ENDBRANCH  28   9
ENDBRANCH  25  28
ENDBRANCH  21  25
ENDBRANCH  22  21
ENDBRANCH  24  22
ENDBRANCH  19  12
ENDBRANCH  15  19
BRANCH  18  20
ATOM     20  C   UNL     1      11.894   7.209   4.992  0.00  0.00    +0.133 C 
BRANCH  20  23
ATOM      7  O   UNL     1      13.629   6.888   3.310  0.00  0.00    -0.338 OA
ATOM     13  N   UNL     1      11.706   5.836   2.856  0.00  0.00    -0.191 NA
ATOM     14  N   UNL     1      13.826   6.228   2.091  0.00  0.00    -0.056 NA
ATOM     23  C   UNL     1      12.356   6.605   3.691  0.00  0.00    +0.230 A 
ATOM     29  C   UNL     1      12.648   5.630   1.890  0.00  0.00    +0.202 A 
BRANCH  29  30
ATOM     30  C   UNL     1      12.381   4.820   0.737  0.00  0.00    +0.023 A 
ATOM     31  C   UNL     1      11.134   4.879   0.115  0.00  0.00    +0.015 A 
ATOM     32  C   UNL     1      13.370   3.971   0.238  0.00  0.00    +0.015 A 
ATOM     34  C   UNL     1      10.876   4.089  -1.005  0.00  0.00    +0.046 A 
ATOM     35  C   UNL     1      13.111   3.181  -0.882  0.00  0.00    +0.046 A 
ATOM     36  C   UNL     1      11.863   3.241  -1.504  0.00  0.00    +0.130 A 
BRANCH  36  11
ATOM     11  O   UNL     1      11.611   2.471  -2.597  0.00  0.00    -0.406 OA
BRANCH  11  37
ATOM      1  F   UNL     1      10.867   2.874  -4.690  0.00  0.00    -0.133 F 
ATOM      2  F   UNL     1      12.265   4.301  -3.804  0.00  0.00    -0.133 F 
ATOM      3  F   UNL     1      12.961   2.301  -4.437  0.00  0.00    -0.133 F 
ATOM     37  C   UNL     1      11.944   2.992  -3.880  0.00  0.00    +0.575 C 
ENDBRANCH  11  37
ENDBRANCH  36  11
ENDBRANCH  29  30
ENDBRANCH  20  23
ENDBRANCH  18  20
TORSDOF 14
ENDMDL
MODEL 9
REMARK VINA RESULT:      -6.4     17.709     19.923
REMARK  Name = 44716549
REMARK  17 active torsions:
REMARK  status: ('A' for Active; 'I' for Inactive)
REMARK    1  A    between atoms: O_5  and  C_16
REMARK    2  A    between atoms: O_6  and  C_17
REMARK    3  A    between atoms: O_9  and  C_28
REMARK    4  A    between atoms: O_9  and  C_33
REMARK    5  A    between atoms: O_11  and  C_36
REMARK    6  A    between atoms: O_11  and  C_37
REMARK    7  A    between atoms: N_12  and  C_19
REMARK    8  A    between atoms: C_15  and  C_19
REMARK    9  A    between atoms: C_18  and  C_20
REMARK   10  A    between atoms: C_20  and  C_23
REMARK   11  A    between atoms: C_21  and  C_22
REMARK   12  A    between atoms: C_21  and  C_25
REMARK   13  A    between atoms: C_21  and  C_26
REMARK   14  A    between atoms: C_21  and  C_27
REMARK   15  A    between atoms: C_22  and  C_24
REMARK   16  A    between atoms: C_25  and  C_28
REMARK   17  A    between atoms: C_29  and  C_30
REMARK                            x       y       z     vdW  Elec       q    Type
REMARK                         _______ _______ _______ _____ _____    ______ ____
ROOT
ATOM      4  O   UNL     1      -7.531 -12.885  18.387  0.00  0.00    -0.366 OA
ATOM     15  C   UNL     1      -8.602 -11.983  18.027  0.00  0.00    +0.167 C 
ATOM     16  C   UNL     1      -8.374 -10.705  18.826  0.00  0.00    +0.176 C 
ATOM     17  C   UNL     1      -6.870 -10.707  19.002  0.00  0.00    +0.175 C 
ATOM     18  C   UNL     1      -6.592 -12.185  19.222  0.00  0.00    +0.159 C 
ENDROOT
BRANCH  16   5
ATOM      5  O   UNL     1      -9.021 -10.849  20.089  0.00  0.00    -0.387 OA
ATOM     39  H   UNL     1      -8.354 -11.169  20.722  0.00  0.00    +0.210 HD
ENDBRANCH  16   5
BRANCH  17   6
ATOM      6  O   UNL     1      -6.433  -9.919  20.089  0.00  0.00    -0.387 OA
ATOM     40  H   UNL     1      -6.820 -10.297  20.896  0.00  0.00    +0.210 HD
ENDBRANCH  17   6
BRANCH  15  19
ATOM     19  C   UNL     1      -8.540 -11.764  16.522  0.00  0.00    +0.138 C 
BRANCH  19  12
ATOM      8  O   UNL     1      -8.482  -9.014  15.666  0.00  0.00    -0.276 OA
ATOM     12  N   UNL     1      -9.665 -10.961  16.099  0.00  0.00    -0.313 N 
ATOM     24  C   UNL     1      -9.539  -9.636  15.701  0.00  0.00    +0.214 C 
ATOM     38  H   UNL     1     -10.581 -11.399  16.087  0.00  0.00    +0.149 HD
BRANCH  24  22
ATOM     22  C   UNL     1     -10.893  -9.045  15.321  0.00  0.00    +0.102 C 
BRANCH  22  21
ATOM     21  C   UNL     1     -11.648  -8.230  16.403  0.00  0.00    -0.017 C 
ATOM     26  C   UNL     1     -13.168  -8.271  16.145  0.00  0.00    +0.012 C 
ATOM     27  C   UNL     1     -11.205  -6.754  16.269  0.00  0.00    +0.012 C 
BRANCH  21  25
ATOM     25  C   UNL     1     -11.375  -8.721  17.844  0.00  0.00    +0.127 C 
BRANCH  25  28
ATOM     10  O   UNL     1     -12.093 -11.030  17.781  0.00  0.00    -0.251 OA
ATOM     28  C   UNL     1     -12.204  -9.913  18.268  0.00  0.00    +0.307 C 
BRANCH  28   9
ATOM      9  O   UNL     1     -13.080  -9.547  19.247  0.00  0.00    -0.468 OA
ATOM     33  C   UNL     1     -13.836 -10.614  19.829  0.00  0.00    +0.280 C 
ENDBRANCH  28   9
ENDBRANCH  25  28
ENDBRANCH  21  25
ENDBRANCH  22  21
ENDBRANCH  24  22
ENDBRANCH  19  12
ENDBRANCH  15  19
BRANCH  18  20
ATOM     20  C   UNL     1      -5.177 -12.593  18.853  0.00  0.00    +0.133 C 
BRANCH  20  23
ATOM      7  O   UNL     1      -3.793 -10.836  17.884  0.00  0.00    -0.338 OA
ATOM     13  N   UNL     1      -4.957 -12.019  16.381  0.00  0.00    -0.191 NA
ATOM     14  N   UNL     1      -3.472 -10.298  16.631  0.00  0.00    -0.056 NA
ATOM     23  C   UNL     1      -4.672 -11.844  17.646  0.00  0.00    +0.230 A 
ATOM     29  C   UNL     1      -4.197 -11.048  15.797  0.00  0.00    +0.202 A 
BRANCH  29  30
ATOM     30  C   UNL     1      -4.184 -10.854  14.376  0.00  0.00    +0.023 A 
ATOM     31  C   UNL     1      -5.381 -10.664  13.686  0.00  0.00    +0.015 A 
ATOM     32  C   UNL     1      -2.973 -10.858  13.683  0.00  0.00    +0.015 A 
ATOM     34  C   UNL     1      -5.367 -10.477  12.303  0.00  0.00    +0.046 A 
ATOM     35  C   UNL     1      -2.958 -10.672  12.301  0.00  0.00    +0.046 A 
ATOM     36  C   UNL     1      -4.156 -10.481  11.611  0.00  0.00    +0.130 A 
BRANCH  36  11
ATOM     11  O   UNL     1      -4.142 -10.299  10.263  0.00  0.00    -0.406 OA
BRANCH  11  37
ATOM      1  F   UNL     1      -2.509  -8.797   9.845  0.00  0.00    -0.133 F 
ATOM      2  F   UNL     1      -4.200  -8.887   8.464  0.00  0.00    -0.133 F 
ATOM      3  F   UNL     1      -4.456  -8.044  10.491  0.00  0.00    -0.133 F 
ATOM     37  C   UNL     1      -3.844  -9.000   9.761  0.00  0.00    +0.575 C 
ENDBRANCH  11  37
ENDBRANCH  36  11
ENDBRANCH  29  30
ENDBRANCH  20  23
ENDBRANCH  18  20
TORSDOF 14
ENDMDL
MODEL 10
REMARK VINA RESULT:      -6.4      5.591     11.651
REMARK  Name = 44716549
REMARK  17 active torsions:
REMARK  status: ('A' for Active; 'I' for Inactive)
REMARK    1  A    between atoms: O_5  and  C_16
REMARK    2  A    between atoms: O_6  and  C_17
REMARK    3  A    between atoms: O_9  and  C_28
REMARK    4  A    between atoms: O_9  and  C_33
REMARK    5  A    between atoms: O_11  and  C_36
REMARK    6  A    between atoms: O_11  and  C_37
REMARK    7  A    between atoms: N_12  and  C_19
REMARK    8  A    between atoms: C_15  and  C_19
REMARK    9  A    between atoms: C_18  and  C_20
REMARK   10  A    between atoms: C_20  and  C_23
REMARK   11  A    between atoms: C_21  and  C_22
REMARK   12  A    between atoms: C_21  and  C_25
REMARK   13  A    between atoms: C_21  and  C_26
REMARK   14  A    between atoms: C_21  and  C_27
REMARK   15  A    between atoms: C_22  and  C_24
REMARK   16  A    between atoms: C_25  and  C_28
REMARK   17  A    between atoms: C_29  and  C_30
REMARK                            x       y       z     vdW  Elec       q    Type
REMARK                         _______ _______ _______ _____ _____    ______ ____
ROOT
ATOM      4  O   UNL     1     -15.453   6.148  23.842  0.00  0.00    -0.366 OA
ATOM     15  C   UNL     1     -14.854   6.354  22.543  0.00  0.00    +0.167 C 
ATOM     16  C   UNL     1     -15.227   5.139  21.700  0.00  0.00    +0.176 C 
ATOM     17  C   UNL     1     -16.545   4.721  22.316  0.00  0.00    +0.175 C 
ATOM     18  C   UNL     1     -16.286   4.976  23.792  0.00  0.00    +0.159 C 
ENDROOT
BRANCH  16   5
ATOM      5  O   UNL     1     -14.239   4.132  21.913  0.00  0.00    -0.387 OA
ATOM     39  H   UNL     1     -13.368   4.552  21.804  0.00  0.00    +0.210 HD
ENDBRANCH  16   5
BRANCH  17   6
ATOM      6  O   UNL     1     -16.878   3.372  22.063  0.00  0.00    -0.387 OA
ATOM     40  H   UNL     1     -17.042   3.287  21.109  0.00  0.00    +0.210 HD
ENDBRANCH  17   6
BRANCH  15  19
ATOM     19  C   UNL     1     -15.400   7.659  21.980  0.00  0.00    +0.138 C 
BRANCH  19  12
ATOM      8  O   UNL     1     -14.654   7.551  19.200  0.00  0.00    -0.276 OA
ATOM     12  N   UNL     1     -14.336   8.395  21.336  0.00  0.00    -0.313 N 
ATOM     24  C   UNL     1     -14.049   8.278  19.981  0.00  0.00    +0.214 C 
ATOM     38  H   UNL     1     -13.787   9.031  21.907  0.00  0.00    +0.149 HD
BRANCH  24  22
ATOM     22  C   UNL     1     -12.873   9.165  19.590  0.00  0.00    +0.102 C 
BRANCH  22  21
ATOM     21  C   UNL     1     -11.505   8.476  19.349  0.00  0.00    -0.017 C 
ATOM     26  C   UNL     1     -11.484   7.784  17.970  0.00  0.00    +0.012 C 
ATOM     27  C   UNL     1     -11.347   7.366  20.416  0.00  0.00    +0.012 C 
BRANCH  21  25
ATOM     25  C   UNL     1     -10.304   9.447  19.435  0.00  0.00    +0.127 C 
BRANCH  25  28
ATOM     10  O   UNL     1     -10.951  11.678  18.761  0.00  0.00    -0.251 OA
ATOM     28  C   UNL     1     -10.383  10.627  18.493  0.00  0.00    +0.307 C 
BRANCH  28   9
ATOM      9  O   UNL     1      -9.748  10.333  17.323  0.00  0.00    -0.468 OA
ATOM     33  C   UNL     1     -10.327  10.905  16.146  0.00  0.00    +0.280 C 
ENDBRANCH  28   9
ENDBRANCH  25  28
ENDBRANCH  21  25
ENDBRANCH  22  21
ENDBRANCH  24  22
ENDBRANCH  19  12
ENDBRANCH  15  19
BRANCH  18  20
ATOM     20  C   UNL     1     -17.553   5.216  24.593  0.00  0.00    +0.133 C 
BRANCH  20  23
ATOM      7  O   UNL     1     -18.093   5.832  26.889  0.00  0.00    -0.338 OA
ATOM     13  N   UNL     1     -16.466   4.305  26.708  0.00  0.00    -0.191 NA
ATOM     14  N   UNL     1     -17.699   5.528  28.197  0.00  0.00    -0.056 NA
ATOM     23  C   UNL     1     -17.319   5.069  26.074  0.00  0.00    +0.230 A 
ATOM     29  C   UNL     1     -16.736   4.620  28.008  0.00  0.00    +0.202 A 
BRANCH  29  30
ATOM     30  C   UNL     1     -16.027   4.009  29.095  0.00  0.00    +0.023 A 
ATOM     31  C   UNL     1     -15.623   2.677  29.004  0.00  0.00    +0.015 A 
ATOM     32  C   UNL     1     -15.744   4.747  30.244  0.00  0.00    +0.015 A 
ATOM     34  C   UNL     1     -14.935   2.084  30.062  0.00  0.00    +0.046 A 
ATOM     35  C   UNL     1     -15.056   4.154  31.303  0.00  0.00    +0.046 A 
ATOM     36  C   UNL     1     -14.652   2.822  31.211  0.00  0.00    +0.130 A 
BRANCH  36  11
ATOM     11  O   UNL     1     -13.980   2.243  32.244  0.00  0.00    -0.406 OA
BRANCH  11  37
ATOM      1  F   UNL     1     -13.996   1.376  34.328  0.00  0.00    -0.133 F 
ATOM      2  F   UNL     1     -15.882   2.112  33.508  0.00  0.00    -0.133 F 
ATOM      3  F   UNL     1     -14.982   0.246  32.739  0.00  0.00    -0.133 F 
ATOM     37  C   UNL     1     -14.726   1.490  33.195  0.00  0.00    +0.575 C 
ENDBRANCH  11  37
ENDBRANCH  36  11
ENDBRANCH  29  30
ENDBRANCH  20  23
ENDBRANCH  18  20
TORSDOF 14
ENDMDL
