MODEL 1
REMARK VINA RESULT:      -7.3      0.000      0.000
REMARK  Name = 51138092
REMARK  10 active torsions:
REMARK  status: ('A' for Active; 'I' for Inactive)
REMARK    1  A    between atoms: N_4  and  C_21
REMARK    2  A    between atoms: N_5  and  C_26
REMARK    3  A    between atoms: N_6  and  C_29
REMARK    4  A    between atoms: C_8  and  C_13
REMARK    5  A    between atoms: C_11  and  C_19
REMARK    6  A    between atoms: C_13  and  C_16
REMARK    7  A    between atoms: C_16  and  C_23
REMARK    8  A    between atoms: C_16  and  C_24
REMARK    9  A    between atoms: C_21  and  C_25
REMARK   10  A    between atoms: C_26  and  C_28
REMARK                            x       y       z     vdW  Elec       q    Type
REMARK                         _______ _______ _______ _____ _____    ______ ____
ROOT
ATOM      3  N   UNL     1      14.106   9.256  18.595  0.00  0.00    -0.299 NA
ATOM      4  N   UNL     1      11.345  10.771  22.544  0.00  0.00    -0.339 N 
ATOM      8  C   UNL     1      13.195   8.142  18.896  0.00  0.00    +0.085 C 
ATOM      9  C   UNL     1      12.370   8.280  20.179  0.00  0.00    -0.021 A 
ATOM     10  C   UNL     1      12.160   9.496  20.892  0.00  0.00    +0.008 A 
ATOM     11  C   UNL     1      13.445  10.528  18.339  0.00  0.00    +0.145 C 
ATOM     12  C   UNL     1      12.577  10.858  20.694  0.00  0.00    -0.020 A 
ATOM     14  C   UNL     1      13.416  11.407  19.588  0.00  0.00    +0.065 C 
ATOM     15  C   UNL     1      11.370   9.489  22.048  0.00  0.00    +0.050 A 
ATOM     17  C   UNL     1      12.062  11.602  21.735  0.00  0.00    +0.091 A 
ATOM     18  C   UNL     1      11.687   7.140  20.672  0.00  0.00    +0.006 A 
ATOM     20  C   UNL     1      10.744   8.345  22.544  0.00  0.00    +0.026 A 
ATOM     22  C   UNL     1      10.906   7.167  21.826  0.00  0.00    +0.002 A 
ATOM     34  H   UNL     1      14.817   9.350  19.318  0.00  0.00    +0.123 HD
ENDROOT
BRANCH  11  19
ATOM      1  O   UNL     1      15.321  11.785  17.564  0.00  0.00    -0.274 OA
ATOM      5  N   UNL     1      13.718  11.086  16.027  0.00  0.00    -0.307 N 
ATOM     19  C   UNL     1      14.277  11.198  17.288  0.00  0.00    +0.231 C 
ATOM     35  H   UNL     1      12.857  10.562  15.901  0.00  0.00    +0.149 HD
BRANCH   5  26
ATOM     26  C   UNL     1      14.313  11.664  14.843  0.00  0.00    +0.178 C 
BRANCH  26  28
ATOM      2  O   UNL     1      12.303  11.462  13.492  0.00  0.00    -0.466 OA
ATOM     28  C   UNL     1      13.284  12.286  13.943  0.00  0.00    +0.122 A 
ATOM     31  C   UNL     1      13.109  13.560  13.454  0.00  0.00    +0.046 A 
ATOM     32  C   UNL     1      11.945  13.516  12.651  0.00  0.00    +0.041 A 
ATOM     33  C   UNL     1      11.492  12.218  12.706  0.00  0.00    +0.195 A 
ENDBRANCH  26  28
ENDBRANCH   5  26
ENDBRANCH  11  19
BRANCH   8  13
ATOM     13  C   UNL     1      14.098   6.895  18.906  0.00  0.00    +0.026 C 
BRANCH  13  16
ATOM     16  C   UNL     1      15.438   7.133  19.608  0.00  0.00    -0.015 C 
ATOM     23  C   UNL     1      15.351   6.948  21.123  0.00  0.00    +0.007 C 
ATOM     24  C   UNL     1      16.486   6.178  19.030  0.00  0.00    +0.007 C 
ENDBRANCH  13  16
ENDBRANCH   8  13
BRANCH   4  21
ATOM     21  C   UNL     1      10.648  11.200  23.737  0.00  0.00    +0.196 C 
BRANCH  21  25
ATOM      6  N   UNL     1      11.205  13.469  24.678  0.00  0.00    -0.336 N 
ATOM      7  N   UNL     1      12.478  11.784  25.365  0.00  0.00    -0.239 NA
ATOM     25  C   UNL     1      11.463  12.128  24.604  0.00  0.00    +0.129 A 
ATOM     27  C   UNL     1      12.113  14.014  25.541  0.00  0.00    +0.106 A 
ATOM     29  C   UNL     1      10.168  14.193  23.981  0.00  0.00    +0.150 C 
ATOM     30  C   UNL     1      12.888  12.954  25.951  0.00  0.00    +0.130 A 
ENDBRANCH  21  25
ENDBRANCH   4  21
TORSDOF 7
ENDMDL
MODEL 2
REMARK VINA RESULT:      -7.2     27.436     29.546
REMARK  Name = 51138092
REMARK  10 active torsions:
REMARK  status: ('A' for Active; 'I' for Inactive)
REMARK    1  A    between atoms: N_4  and  C_21
REMARK    2  A    between atoms: N_5  and  C_26
REMARK    3  A    between atoms: N_6  and  C_29
REMARK    4  A    between atoms: C_8  and  C_13
REMARK    5  A    between atoms: C_11  and  C_19
REMARK    6  A    between atoms: C_13  and  C_16
REMARK    7  A    between atoms: C_16  and  C_23
REMARK    8  A    between atoms: C_16  and  C_24
REMARK    9  A    between atoms: C_21  and  C_25
REMARK   10  A    between atoms: C_26  and  C_28
REMARK                            x       y       z     vdW  Elec       q    Type
REMARK                         _______ _______ _______ _____ _____    ______ ____
ROOT
ATOM      3  N   UNL     1      -6.766 -11.104  16.167  0.00  0.00    -0.299 NA
ATOM      4  N   UNL     1      -3.976 -10.051  12.091  0.00  0.00    -0.339 N 
ATOM      8  C   UNL     1      -5.373 -11.066  16.636  0.00  0.00    +0.085 C 
ATOM      9  C   UNL     1      -4.304 -10.944  15.547  0.00  0.00    -0.021 A 
ATOM     10  C   UNL     1      -4.544 -10.533  14.204  0.00  0.00    +0.008 A 
ATOM     11  C   UNL     1      -7.215  -9.889  15.501  0.00  0.00    +0.145 C 
ATOM     12  C   UNL     1      -5.715 -10.124  13.476  0.00  0.00    -0.020 A 
ATOM     14  C   UNL     1      -7.114 -10.012  13.982  0.00  0.00    +0.065 C 
ATOM     15  C   UNL     1      -3.472 -10.449  13.306  0.00  0.00    +0.050 A 
ATOM     17  C   UNL     1      -5.321  -9.846  12.184  0.00  0.00    +0.091 A 
ATOM     18  C   UNL     1      -2.950 -11.179  15.896  0.00  0.00    +0.006 A 
ATOM     20  C   UNL     1      -2.151 -10.730  13.658  0.00  0.00    +0.026 A 
ATOM     22  C   UNL     1      -1.905 -11.085  14.978  0.00  0.00    +0.002 A 
ATOM     34  H   UNL     1      -6.932 -11.925  15.587  0.00  0.00    +0.123 HD
ENDROOT
BRANCH  11  19
ATOM      1  O   UNL     1      -9.541 -10.409  15.357  0.00  0.00    -0.274 OA
ATOM      5  N   UNL     1      -8.841  -8.774  16.860  0.00  0.00    -0.307 N 
ATOM     19  C   UNL     1      -8.656  -9.741  15.887  0.00  0.00    +0.231 C 
ATOM     35  H   UNL     1      -8.037  -8.288  17.248  0.00  0.00    +0.149 HD
BRANCH   5  26
ATOM     26  C   UNL     1     -10.139  -8.423  17.389  0.00  0.00    +0.178 C 
BRANCH  26  28
ATOM      2  O   UNL     1     -12.213  -7.575  16.447  0.00  0.00    -0.466 OA
ATOM     28  C   UNL     1     -10.862  -7.448  16.504  0.00  0.00    +0.122 A 
ATOM     31  C   UNL     1     -10.439  -6.411  15.705  0.00  0.00    +0.046 A 
ATOM     32  C   UNL     1     -11.606  -5.866  15.120  0.00  0.00    +0.041 A 
ATOM     33  C   UNL     1     -12.658  -6.609  15.602  0.00  0.00    +0.195 A 
ENDBRANCH  26  28
ENDBRANCH   5  26
ENDBRANCH  11  19
BRANCH   8  13
ATOM     13  C   UNL     1      -5.213 -12.343  17.480  0.00  0.00    +0.026 C 
BRANCH  13  16
ATOM     16  C   UNL     1      -5.060 -12.055  18.977  0.00  0.00    -0.015 C 
ATOM     23  C   UNL     1      -3.611 -12.162  19.453  0.00  0.00    +0.007 C 
ATOM     24  C   UNL     1      -5.602 -10.655  19.278  0.00  0.00    +0.007 C 
ENDBRANCH  13  16
ENDBRANCH   8  13
BRANCH   4  21
ATOM     21  C   UNL     1      -3.204  -9.850  10.883  0.00  0.00    +0.196 C 
BRANCH  21  25
ATOM      6  N   UNL     1      -4.293 -11.341   9.169  0.00  0.00    -0.336 N 
ATOM      7  N   UNL     1      -4.486  -9.155   8.831  0.00  0.00    -0.239 NA
ATOM     25  C   UNL     1      -3.998 -10.085   9.622  0.00  0.00    +0.129 A 
ATOM     27  C   UNL     1      -5.015 -11.203   8.018  0.00  0.00    +0.106 A 
ATOM     29  C   UNL     1      -3.919 -12.594   9.783  0.00  0.00    +0.150 C 
ATOM     30  C   UNL     1      -5.121  -9.845   7.830  0.00  0.00    +0.130 A 
ENDBRANCH  21  25
ENDBRANCH   4  21
TORSDOF 7
ENDMDL
MODEL 3
REMARK VINA RESULT:      -7.2      3.876      8.299
REMARK  Name = 51138092
REMARK  10 active torsions:
REMARK  status: ('A' for Active; 'I' for Inactive)
REMARK    1  A    between atoms: N_4  and  C_21
REMARK    2  A    between atoms: N_5  and  C_26
REMARK    3  A    between atoms: N_6  and  C_29
REMARK    4  A    between atoms: C_8  and  C_13
REMARK    5  A    between atoms: C_11  and  C_19
REMARK    6  A    between atoms: C_13  and  C_16
REMARK    7  A    between atoms: C_16  and  C_23
REMARK    8  A    between atoms: C_16  and  C_24
REMARK    9  A    between atoms: C_21  and  C_25
REMARK   10  A    between atoms: C_26  and  C_28
REMARK                            x       y       z     vdW  Elec       q    Type
REMARK                         _______ _______ _______ _____ _____    ______ ____
ROOT
ATOM      3  N   UNL     1      13.858   8.933  19.738  0.00  0.00    -0.299 NA
ATOM      4  N   UNL     1      18.516   8.324  21.592  0.00  0.00    -0.339 N 
ATOM      8  C   UNL     1      14.292   7.600  19.296  0.00  0.00    +0.085 C 
ATOM      9  C   UNL     1      15.755   7.246  19.577  0.00  0.00    -0.021 A 
ATOM     10  C   UNL     1      16.602   7.927  20.498  0.00  0.00    +0.008 A 
ATOM     11  C   UNL     1      13.899   9.138  21.179  0.00  0.00    +0.145 C 
ATOM     12  C   UNL     1      16.419   9.040  21.391  0.00  0.00    -0.020 A 
ATOM     14  C   UNL     1      15.183   9.846  21.609  0.00  0.00    +0.065 C 
ATOM     15  C   UNL     1      17.921   7.493  20.673  0.00  0.00    +0.050 A 
ATOM     17  C   UNL     1      17.621   9.253  22.035  0.00  0.00    +0.091 A 
ATOM     18  C   UNL     1      16.311   6.107  18.942  0.00  0.00    +0.006 A 
ATOM     20  C   UNL     1      18.464   6.396  20.002  0.00  0.00    +0.026 A 
ATOM     22  C   UNL     1      17.629   5.698  19.139  0.00  0.00    +0.002 A 
ATOM     34  H   UNL     1      14.371   9.664  19.247  0.00  0.00    +0.123 HD
ENDROOT
BRANCH  11  19
ATOM      1  O   UNL     1      12.450  10.995  20.786  0.00  0.00    -0.274 OA
ATOM      5  N   UNL     1      12.047   9.617  22.620  0.00  0.00    -0.307 N 
ATOM     19  C   UNL     1      12.727  10.021  21.483  0.00  0.00    +0.231 C 
ATOM     35  H   UNL     1      12.347   8.784  23.117  0.00  0.00    +0.149 HD
BRANCH   5  26
ATOM     26  C   UNL     1      10.892  10.313  23.140  0.00  0.00    +0.178 C 
BRANCH  26  28
ATOM      2  O   UNL     1      10.262  12.141  24.613  0.00  0.00    -0.466 OA
ATOM     28  C   UNL     1      11.276  11.375  24.130  0.00  0.00    +0.122 A 
ATOM     31  C   UNL     1      12.477  11.760  24.680  0.00  0.00    +0.046 A 
ATOM     32  C   UNL     1      12.183  12.831  25.556  0.00  0.00    +0.041 A 
ATOM     33  C   UNL     1      10.823  13.025  25.480  0.00  0.00    +0.195 A 
ENDBRANCH  26  28
ENDBRANCH   5  26
ENDBRANCH  11  19
BRANCH   8  13
ATOM     13  C   UNL     1      13.952   7.559  17.795  0.00  0.00    +0.026 C 
BRANCH  13  16
ATOM     16  C   UNL     1      13.390   8.885  17.273  0.00  0.00    -0.015 C 
ATOM     23  C   UNL     1      14.118   9.382  16.024  0.00  0.00    +0.007 C 
ATOM     24  C   UNL     1      11.899   8.715  16.970  0.00  0.00    +0.007 C 
ENDBRANCH  13  16
ENDBRANCH   8  13
BRANCH   4  21
ATOM     21  C   UNL     1      19.884   8.230  22.053  0.00  0.00    +0.196 C 
BRANCH  21  25
ATOM      6  N   UNL     1      21.841   8.297  20.468  0.00  0.00    -0.336 N 
ATOM      7  N   UNL     1      20.905  10.251  20.953  0.00  0.00    -0.239 NA
ATOM     25  C   UNL     1      20.865   8.954  21.164  0.00  0.00    +0.129 A 
ATOM     27  C   UNL     1      22.548   9.233  19.769  0.00  0.00    +0.106 A 
ATOM     29  C   UNL     1      22.092   6.875  20.460  0.00  0.00    +0.150 C 
ATOM     30  C   UNL     1      21.952  10.432  20.085  0.00  0.00    +0.130 A 
ENDBRANCH  21  25
ENDBRANCH   4  21
TORSDOF 7
ENDMDL
MODEL 4
REMARK VINA RESULT:      -7.0     27.466     29.951
REMARK  Name = 51138092
REMARK  10 active torsions:
REMARK  status: ('A' for Active; 'I' for Inactive)
REMARK    1  A    between atoms: N_4  and  C_21
REMARK    2  A    between atoms: N_5  and  C_26
REMARK    3  A    between atoms: N_6  and  C_29
REMARK    4  A    between atoms: C_8  and  C_13
REMARK    5  A    between atoms: C_11  and  C_19
REMARK    6  A    between atoms: C_13  and  C_16
REMARK    7  A    between atoms: C_16  and  C_23
REMARK    8  A    between atoms: C_16  and  C_24
REMARK    9  A    between atoms: C_21  and  C_25
REMARK   10  A    between atoms: C_26  and  C_28
REMARK                            x       y       z     vdW  Elec       q    Type
REMARK                         _______ _______ _______ _____ _____    ______ ____
ROOT
ATOM      3  N   UNL     1      -6.827 -11.097  16.158  0.00  0.00    -0.299 NA
ATOM      4  N   UNL     1      -3.968 -10.103  12.115  0.00  0.00    -0.339 N 
ATOM      8  C   UNL     1      -5.441 -11.066  16.647  0.00  0.00    +0.085 C 
ATOM      9  C   UNL     1      -4.355 -10.963  15.574  0.00  0.00    -0.021 A 
ATOM     10  C   UNL     1      -4.571 -10.562  14.223  0.00  0.00    +0.008 A 
ATOM     11  C   UNL     1      -7.256  -9.885  15.475  0.00  0.00    +0.145 C 
ATOM     12  C   UNL     1      -5.728 -10.150  13.475  0.00  0.00    -0.020 A 
ATOM     14  C   UNL     1      -7.134 -10.023  13.958  0.00  0.00    +0.065 C 
ATOM     15  C   UNL     1      -3.486 -10.495  13.342  0.00  0.00    +0.050 A 
ATOM     17  C   UNL     1      -5.313  -9.887  12.186  0.00  0.00    +0.091 A 
ATOM     18  C   UNL     1      -3.008 -11.205  15.945  0.00  0.00    +0.006 A 
ATOM     20  C   UNL     1      -2.172 -10.783  13.716  0.00  0.00    +0.026 A 
ATOM     22  C   UNL     1      -1.949 -11.128  15.043  0.00  0.00    +0.002 A 
ATOM     34  H   UNL     1      -6.992 -11.922  15.584  0.00  0.00    +0.123 HD
ENDROOT
BRANCH  11  19
ATOM      1  O   UNL     1      -9.600 -10.210  15.156  0.00  0.00    -0.274 OA
ATOM      5  N   UNL     1      -8.872  -8.960  16.981  0.00  0.00    -0.307 N 
ATOM     19  C   UNL     1      -8.702  -9.722  15.837  0.00  0.00    +0.231 C 
ATOM     35  H   UNL     1      -8.060  -8.617  17.484  0.00  0.00    +0.149 HD
BRANCH   5  26
ATOM     26  C   UNL     1     -10.170  -8.637  17.530  0.00  0.00    +0.178 C 
BRANCH  26  28
ATOM      2  O   UNL     1      -9.615 -10.391  19.118  0.00  0.00    -0.466 OA
ATOM     28  C   UNL     1     -10.597  -9.622  18.581  0.00  0.00    +0.122 A 
ATOM     31  C   UNL     1     -11.815  -9.928  19.143  0.00  0.00    +0.046 A 
ATOM     32  C   UNL     1     -11.565 -10.952  20.087  0.00  0.00    +0.041 A 
ATOM     33  C   UNL     1     -10.212 -11.199  20.033  0.00  0.00    +0.195 A 
ENDBRANCH  26  28
ENDBRANCH   5  26
ENDBRANCH  11  19
BRANCH   8  13
ATOM     13  C   UNL     1      -5.304 -12.337  17.506  0.00  0.00    +0.026 C 
BRANCH  13  16
ATOM     16  C   UNL     1      -5.139 -12.035  18.998  0.00  0.00    -0.015 C 
ATOM     23  C   UNL     1      -3.683 -12.113  19.458  0.00  0.00    +0.007 C 
ATOM     24  C   UNL     1      -5.702 -10.643  19.296  0.00  0.00    +0.007 C 
ENDBRANCH  13  16
ENDBRANCH   8  13
BRANCH   4  21
ATOM     21  C   UNL     1      -3.177  -9.920  10.918  0.00  0.00    +0.196 C 
BRANCH  21  25
ATOM      6  N   UNL     1      -4.284 -11.331   9.149  0.00  0.00    -0.336 N 
ATOM      7  N   UNL     1      -4.438  -9.132   8.886  0.00  0.00    -0.239 NA
ATOM     25  C   UNL     1      -3.969 -10.097   9.646  0.00  0.00    +0.129 A 
ATOM     27  C   UNL     1      -4.999 -11.141   8.000  0.00  0.00    +0.106 A 
ATOM     29  C   UNL     1      -3.935 -12.611   9.721  0.00  0.00    +0.150 C 
ATOM     30  C   UNL     1      -5.080  -9.776   7.859  0.00  0.00    +0.130 A 
ENDBRANCH  21  25
ENDBRANCH   4  21
TORSDOF 7
ENDMDL
MODEL 5
REMARK VINA RESULT:      -7.0      3.890      7.864
REMARK  Name = 51138092
REMARK  10 active torsions:
REMARK  status: ('A' for Active; 'I' for Inactive)
REMARK    1  A    between atoms: N_4  and  C_21
REMARK    2  A    between atoms: N_5  and  C_26
REMARK    3  A    between atoms: N_6  and  C_29
REMARK    4  A    between atoms: C_8  and  C_13
REMARK    5  A    between atoms: C_11  and  C_19
REMARK    6  A    between atoms: C_13  and  C_16
REMARK    7  A    between atoms: C_16  and  C_23
REMARK    8  A    between atoms: C_16  and  C_24
REMARK    9  A    between atoms: C_21  and  C_25
REMARK   10  A    between atoms: C_26  and  C_28
REMARK                            x       y       z     vdW  Elec       q    Type
REMARK                         _______ _______ _______ _____ _____    ______ ____
ROOT
ATOM      3  N   UNL     1      13.088   9.095  20.486  0.00  0.00    -0.299 NA
ATOM      4  N   UNL     1      18.054   9.129  21.400  0.00  0.00    -0.339 N 
ATOM      8  C   UNL     1      13.557   7.733  20.192  0.00  0.00    +0.085 C 
ATOM      9  C   UNL     1      15.074   7.528  20.215  0.00  0.00    -0.021 A 
ATOM     10  C   UNL     1      16.013   8.419  20.812  0.00  0.00    +0.008 A 
ATOM     11  C   UNL     1      13.388   9.563  21.831  0.00  0.00    +0.145 C 
ATOM     12  C   UNL     1      15.898   9.663  21.525  0.00  0.00    -0.020 A 
ATOM     14  C   UNL     1      14.655  10.416  21.859  0.00  0.00    +0.065 C 
ATOM     15  C   UNL     1      17.377   8.107  20.778  0.00  0.00    +0.050 A 
ATOM     17  C   UNL     1      17.175  10.065  21.859  0.00  0.00    +0.091 A 
ATOM     18  C   UNL     1      15.605   6.329  19.677  0.00  0.00    +0.006 A 
ATOM     20  C   UNL     1      17.885   6.942  20.201  0.00  0.00    +0.026 A 
ATOM     22  C   UNL     1      16.970   6.047  19.660  0.00  0.00    +0.002 A 
ATOM     34  H   UNL     1      13.420   9.754  19.784  0.00  0.00    +0.123 HD
ENDROOT
BRANCH  11  19
ATOM      1  O   UNL     1      11.624  11.114  21.407  0.00  0.00    -0.274 OA
ATOM      5  N   UNL     1      11.925  10.313  23.572  0.00  0.00    -0.307 N 
ATOM     19  C   UNL     1      12.216  10.411  22.222  0.00  0.00    +0.231 C 
ATOM     35  H   UNL     1      12.467   9.687  24.161  0.00  0.00    +0.149 HD
BRANCH   5  26
ATOM     26  C   UNL     1      10.855  11.048  24.206  0.00  0.00    +0.178 C 
BRANCH  26  28
ATOM      2  O   UNL     1      12.623  12.101  25.499  0.00  0.00    -0.466 OA
ATOM     28  C   UNL     1      11.367  12.219  24.995  0.00  0.00    +0.122 A 
ATOM     31  C   UNL     1      10.822  13.436  25.335  0.00  0.00    +0.046 A 
ATOM     32  C   UNL     1      11.807  14.109  26.096  0.00  0.00    +0.041 A 
ATOM     33  C   UNL     1      12.883  13.255  26.168  0.00  0.00    +0.195 A 
ENDBRANCH  26  28
ENDBRANCH   5  26
ENDBRANCH  11  19
BRANCH   8  13
ATOM     13  C   UNL     1      12.937   7.396  18.823  0.00  0.00    +0.026 C 
BRANCH  13  16
ATOM     16  C   UNL     1      13.034   8.552  17.822  0.00  0.00    -0.015 C 
ATOM     23  C   UNL     1      14.085   8.307  16.739  0.00  0.00    +0.007 C 
ATOM     24  C   UNL     1      11.665   8.773  17.174  0.00  0.00    +0.007 C 
ENDBRANCH  13  16
ENDBRANCH   8  13
BRANCH   4  21
ATOM     21  C   UNL     1      19.489   9.206  21.574  0.00  0.00    +0.196 C 
BRANCH  21  25
ATOM      6  N   UNL     1      20.287   9.326  23.960  0.00  0.00    -0.336 N 
ATOM      7  N   UNL     1      20.136   7.294  23.078  0.00  0.00    -0.239 NA
ATOM     25  C   UNL     1      19.969   8.579  22.860  0.00  0.00    +0.129 A 
ATOM     27  C   UNL     1      20.681   8.462  24.942  0.00  0.00    +0.106 A 
ATOM     29  C   UNL     1      20.222  10.764  24.081  0.00  0.00    +0.150 C 
ATOM     30  C   UNL     1      20.580   7.214  24.374  0.00  0.00    +0.130 A 
ENDBRANCH  21  25
ENDBRANCH   4  21
TORSDOF 7
ENDMDL
MODEL 6
REMARK VINA RESULT:      -6.7      2.001      2.767
REMARK  Name = 51138092
REMARK  10 active torsions:
REMARK  status: ('A' for Active; 'I' for Inactive)
REMARK    1  A    between atoms: N_4  and  C_21
REMARK    2  A    between atoms: N_5  and  C_26
REMARK    3  A    between atoms: N_6  and  C_29
REMARK    4  A    between atoms: C_8  and  C_13
REMARK    5  A    between atoms: C_11  and  C_19
REMARK    6  A    between atoms: C_13  and  C_16
REMARK    7  A    between atoms: C_16  and  C_23
REMARK    8  A    between atoms: C_16  and  C_24
REMARK    9  A    between atoms: C_21  and  C_25
REMARK   10  A    between atoms: C_26  and  C_28
REMARK                            x       y       z     vdW  Elec       q    Type
REMARK                         _______ _______ _______ _____ _____    ______ ____
ROOT
ATOM      3  N   UNL     1      14.108   8.516  18.138  0.00  0.00    -0.299 NA
ATOM      4  N   UNL     1      11.849  11.823  21.215  0.00  0.00    -0.339 N 
ATOM      8  C   UNL     1      13.266   7.713  19.037  0.00  0.00    +0.085 C 
ATOM      9  C   UNL     1      12.610   8.472  20.195  0.00  0.00    -0.021 A 
ATOM     10  C   UNL     1      12.470   9.888  20.272  0.00  0.00    +0.008 A 
ATOM     11  C   UNL     1      13.394   9.545  17.397  0.00  0.00    +0.145 C 
ATOM     12  C   UNL     1      12.831  10.979  19.406  0.00  0.00    -0.020 A 
ATOM     14  C   UNL     1      13.508  10.908  18.078  0.00  0.00    +0.065 C 
ATOM     15  C   UNL     1      11.835  10.459  21.382  0.00  0.00    +0.050 A 
ATOM     17  C   UNL     1      12.439  12.146  20.028  0.00  0.00    +0.091 A 
ATOM     18  C   UNL     1      12.020   7.728  21.246  0.00  0.00    +0.006 A 
ATOM     20  C   UNL     1      11.301   9.710  22.431  0.00  0.00    +0.026 A 
ATOM     22  C   UNL     1      11.393   8.327  22.338  0.00  0.00    +0.002 A 
ATOM     34  H   UNL     1      14.904   8.906  18.639  0.00  0.00    +0.123 HD
ENDROOT
BRANCH  11  19
ATOM      1  O   UNL     1      13.912   8.732  15.213  0.00  0.00    -0.274 OA
ATOM      5  N   UNL     1      14.877  10.725  15.933  0.00  0.00    -0.307 N 
ATOM     19  C   UNL     1      14.070   9.607  16.061  0.00  0.00    +0.231 C 
ATOM     35  H   UNL     1      14.926  11.401  16.690  0.00  0.00    +0.149 HD
BRANCH   5  26
ATOM     26  C   UNL     1      15.656  11.007  14.749  0.00  0.00    +0.178 C 
BRANCH  26  28
ATOM      2  O   UNL     1      17.632  12.206  13.996  0.00  0.00    -0.466 OA
ATOM     28  C   UNL     1      16.801  11.935  15.037  0.00  0.00    +0.122 A 
ATOM     31  C   UNL     1      17.212  12.598  16.170  0.00  0.00    +0.046 A 
ATOM     32  C   UNL     1      18.370  13.324  15.802  0.00  0.00    +0.041 A 
ATOM     33  C   UNL     1      18.583  13.053  14.470  0.00  0.00    +0.195 A 
ENDBRANCH  26  28
ENDBRANCH   5  26
ENDBRANCH  11  19
BRANCH   8  13
ATOM     13  C   UNL     1      14.187   6.579  19.523  0.00  0.00    +0.026 C 
BRANCH  13  16
ATOM     16  C   UNL     1      15.567   7.076  19.961  0.00  0.00    -0.015 C 
ATOM     23  C   UNL     1      15.742   7.067  21.481  0.00  0.00    +0.007 C 
ATOM     24  C   UNL     1      16.647   6.206  19.311  0.00  0.00    +0.007 C 
ENDBRANCH  13  16
ENDBRANCH   8  13
BRANCH   4  21
ATOM     21  C   UNL     1      11.303  12.792  22.141  0.00  0.00    +0.196 C 
BRANCH  21  25
ATOM      6  N   UNL     1      12.057  12.921  24.541  0.00  0.00    -0.336 N 
ATOM      7  N   UNL     1      13.406  13.845  23.039  0.00  0.00    -0.239 NA
ATOM     25  C   UNL     1      12.275  13.200  23.220  0.00  0.00    +0.129 A 
ATOM     27  C   UNL     1      13.115  13.421  25.246  0.00  0.00    +0.106 A 
ATOM     29  C   UNL     1      10.923  12.227  25.105  0.00  0.00    +0.150 C 
ATOM     30  C   UNL     1      13.934  13.987  24.297  0.00  0.00    +0.130 A 
ENDBRANCH  21  25
ENDBRANCH   4  21
TORSDOF 7
ENDMDL
MODEL 7
REMARK VINA RESULT:      -6.7     13.547     17.379
REMARK  Name = 51138092
REMARK  10 active torsions:
REMARK  status: ('A' for Active; 'I' for Inactive)
REMARK    1  A    between atoms: N_4  and  C_21
REMARK    2  A    between atoms: N_5  and  C_26
REMARK    3  A    between atoms: N_6  and  C_29
REMARK    4  A    between atoms: C_8  and  C_13
REMARK    5  A    between atoms: C_11  and  C_19
REMARK    6  A    between atoms: C_13  and  C_16
REMARK    7  A    between atoms: C_16  and  C_23
REMARK    8  A    between atoms: C_16  and  C_24
REMARK    9  A    between atoms: C_21  and  C_25
REMARK   10  A    between atoms: C_26  and  C_28
REMARK                            x       y       z     vdW  Elec       q    Type
REMARK                         _______ _______ _______ _____ _____    ______ ____
ROOT
ATOM      3  N   UNL     1      15.277   6.329   2.236  0.00  0.00    -0.299 NA
ATOM      4  N   UNL     1      10.777   6.540   4.520  0.00  0.00    -0.339 N 
ATOM      8  C   UNL     1      14.351   5.595   1.362  0.00  0.00    +0.085 C 
ATOM      9  C   UNL     1      12.947   5.355   1.925  0.00  0.00    -0.021 A 
ATOM     10  C   UNL     1      12.376   6.051   3.029  0.00  0.00    +0.008 A 
ATOM     11  C   UNL     1      14.879   7.699   2.526  0.00  0.00    +0.145 C 
ATOM     12  C   UNL     1      12.837   7.102   3.897  0.00  0.00    -0.020 A 
ATOM     14  C   UNL     1      14.154   7.802   3.867  0.00  0.00    +0.065 C 
ATOM     15  C   UNL     1      11.072   5.745   3.437  0.00  0.00    +0.050 A 
ATOM     17  C   UNL     1      11.828   7.363   4.800  0.00  0.00    +0.091 A 
ATOM     18  C   UNL     1      12.102   4.427   1.266  0.00  0.00    +0.006 A 
ATOM     20  C   UNL     1      10.272   4.794   2.803  0.00  0.00    +0.026 A 
ATOM     22  C   UNL     1      10.806   4.146   1.697  0.00  0.00    +0.002 A 
ATOM     34  H   UNL     1      15.458   5.809   3.093  0.00  0.00    +0.123 HD
ENDROOT
BRANCH  11  19
ATOM      1  O   UNL     1      16.204   9.680   2.376  0.00  0.00    -0.274 OA
ATOM      5  N   UNL     1      17.240   7.667   2.922  0.00  0.00    -0.307 N 
ATOM     19  C   UNL     1      16.161   8.472   2.601  0.00  0.00    +0.231 C 
ATOM     35  H   UNL     1      17.095   6.679   3.108  0.00  0.00    +0.149 HD
BRANCH   5  26
ATOM     26  C   UNL     1      18.593   8.165   3.036  0.00  0.00    +0.178 C 
BRANCH  26  28
ATOM      2  O   UNL     1      20.238   7.674   4.756  0.00  0.00    -0.466 OA
ATOM     28  C   UNL     1      19.042   8.250   4.466  0.00  0.00    +0.122 A 
ATOM     31  C   UNL     1      18.486   8.806   5.595  0.00  0.00    +0.046 A 
ATOM     32  C   UNL     1      19.400   8.555   6.647  0.00  0.00    +0.041 A 
ATOM     33  C   UNL     1      20.448   7.864   6.085  0.00  0.00    +0.195 A 
ENDBRANCH  26  28
ENDBRANCH   5  26
ENDBRANCH  11  19
BRANCH   8  13
ATOM     13  C   UNL     1      15.087   4.283   1.032  0.00  0.00    +0.026 C 
BRANCH  13  16
ATOM     16  C   UNL     1      15.293   4.075  -0.472  0.00  0.00    -0.015 C 
ATOM     23  C   UNL     1      14.550   5.110  -1.317  0.00  0.00    +0.007 C 
ATOM     24  C   UNL     1      16.791   4.129  -0.787  0.00  0.00    +0.007 C 
ENDBRANCH  13  16
ENDBRANCH   8  13
BRANCH   4  21
ATOM     21  C   UNL     1       9.530   6.534   5.254  0.00  0.00    +0.196 C 
BRANCH  21  25
ATOM      6  N   UNL     1       9.374   6.451   7.767  0.00  0.00    -0.336 N 
ATOM      7  N   UNL     1       9.935   4.555   6.756  0.00  0.00    -0.239 NA
ATOM     25  C   UNL     1       9.621   5.819   6.579  0.00  0.00    +0.129 A 
ATOM     27  C   UNL     1       9.540   5.531   8.763  0.00  0.00    +0.106 A 
ATOM     29  C   UNL     1       9.003   7.834   7.952  0.00  0.00    +0.150 C 
ATOM     30  C   UNL     1       9.887   4.369   8.115  0.00  0.00    +0.130 A 
ENDBRANCH  21  25
ENDBRANCH   4  21
TORSDOF 7
ENDMDL
MODEL 8
REMARK VINA RESULT:      -6.6      4.619      8.225
REMARK  Name = 51138092
REMARK  10 active torsions:
REMARK  status: ('A' for Active; 'I' for Inactive)
REMARK    1  A    between atoms: N_4  and  C_21
REMARK    2  A    between atoms: N_5  and  C_26
REMARK    3  A    between atoms: N_6  and  C_29
REMARK    4  A    between atoms: C_8  and  C_13
REMARK    5  A    between atoms: C_11  and  C_19
REMARK    6  A    between atoms: C_13  and  C_16
REMARK    7  A    between atoms: C_16  and  C_23
REMARK    8  A    between atoms: C_16  and  C_24
REMARK    9  A    between atoms: C_21  and  C_25
REMARK   10  A    between atoms: C_26  and  C_28
REMARK                            x       y       z     vdW  Elec       q    Type
REMARK                         _______ _______ _______ _____ _____    ______ ____
ROOT
ATOM      3  N   UNL     1      18.989   8.805  22.557  0.00  0.00    -0.299 NA
ATOM      4  N   UNL     1      14.521   8.712  20.204  0.00  0.00    -0.339 N 
ATOM      8  C   UNL     1      19.120   7.802  21.490  0.00  0.00    +0.085 C 
ATOM      9  C   UNL     1      17.833   7.450  20.740  0.00  0.00    -0.021 A 
ATOM     10  C   UNL     1      16.639   8.228  20.750  0.00  0.00    +0.008 A 
ATOM     11  C   UNL     1      18.589  10.128  22.100  0.00  0.00    +0.145 C 
ATOM     12  C   UNL     1      16.257   9.467  21.373  0.00  0.00    -0.020 A 
ATOM     14  C   UNL     1      17.084  10.343  22.252  0.00  0.00    +0.065 C 
ATOM     15  C   UNL     1      15.532   7.801  20.007  0.00  0.00    +0.050 A 
ATOM     17  C   UNL     1      14.948   9.720  21.017  0.00  0.00    +0.091 A 
ATOM     18  C   UNL     1      17.827   6.308  19.900  0.00  0.00    +0.006 A 
ATOM     20  C   UNL     1      15.531   6.647  19.223  0.00  0.00    +0.026 A 
ATOM     22  C   UNL     1      16.708   5.910  19.171  0.00  0.00    +0.002 A 
ATOM     34  H   UNL     1      18.375   8.469  23.297  0.00  0.00    +0.123 HD
ENDROOT
BRANCH  11  19
ATOM      1  O   UNL     1      20.486  11.400  22.794  0.00  0.00    -0.274 OA
ATOM      5  N   UNL     1      18.522  11.532  24.038  0.00  0.00    -0.307 N 
ATOM     19  C   UNL     1      19.315  11.087  22.994  0.00  0.00    +0.231 C 
ATOM     35  H   UNL     1      17.556  11.226  24.104  0.00  0.00    +0.149 HD
BRANCH   5  26
ATOM     26  C   UNL     1      18.992  12.447  25.053  0.00  0.00    +0.178 C 
BRANCH  26  28
ATOM      2  O   UNL     1      17.230  13.715  26.148  0.00  0.00    -0.466 OA
ATOM     28  C   UNL     1      18.004  12.598  26.175  0.00  0.00    +0.122 A 
ATOM     31  C   UNL     1      17.697  11.822  27.269  0.00  0.00    +0.046 A 
ATOM     32  C   UNL     1      16.669  12.506  27.959  0.00  0.00    +0.041 A 
ATOM     33  C   UNL     1      16.420  13.651  27.237  0.00  0.00    +0.195 A 
ENDBRANCH  26  28
ENDBRANCH   5  26
ENDBRANCH  11  19
BRANCH   8  13
ATOM     13  C   UNL     1      19.753   6.580  22.181  0.00  0.00    +0.026 C 
BRANCH  13  16
ATOM     16  C   UNL     1      21.170   6.278  21.682  0.00  0.00    -0.015 C 
ATOM     23  C   UNL     1      21.361   4.808  21.309  0.00  0.00    +0.007 C 
ATOM     24  C   UNL     1      21.477   7.164  20.472  0.00  0.00    +0.007 C 
ENDBRANCH  13  16
ENDBRANCH   8  13
BRANCH   4  21
ATOM     21  C   UNL     1      13.198   8.641  19.623  0.00  0.00    +0.196 C 
BRANCH  21  25
ATOM      6  N   UNL     1      11.398   8.558  21.383  0.00  0.00    -0.336 N 
ATOM      7  N   UNL     1      11.992   6.611  20.498  0.00  0.00    -0.239 NA
ATOM     25  C   UNL     1      12.203   7.908  20.490  0.00  0.00    +0.129 A 
ATOM     27  C   UNL     1      10.625   7.616  22.000  0.00  0.00    +0.106 A 
ATOM     29  C   UNL     1      11.357   9.979  21.641  0.00  0.00    +0.150 C 
ATOM     30  C   UNL     1      11.010   6.422  21.437  0.00  0.00    +0.130 A 
ENDBRANCH  21  25
ENDBRANCH   4  21
TORSDOF 7
ENDMDL
MODEL 9
REMARK VINA RESULT:      -6.5      5.465      9.523
REMARK  Name = 51138092
REMARK  10 active torsions:
REMARK  status: ('A' for Active; 'I' for Inactive)
REMARK    1  A    between atoms: N_4  and  C_21
REMARK    2  A    between atoms: N_5  and  C_26
REMARK    3  A    between atoms: N_6  and  C_29
REMARK    4  A    between atoms: C_8  and  C_13
REMARK    5  A    between atoms: C_11  and  C_19
REMARK    6  A    between atoms: C_13  and  C_16
REMARK    7  A    between atoms: C_16  and  C_23
REMARK    8  A    between atoms: C_16  and  C_24
REMARK    9  A    between atoms: C_21  and  C_25
REMARK   10  A    between atoms: C_26  and  C_28
REMARK                            x       y       z     vdW  Elec       q    Type
REMARK                         _______ _______ _______ _____ _____    ______ ____
ROOT
ATOM      3  N   UNL     1      16.502   8.310  21.075  0.00  0.00    -0.299 NA
ATOM      4  N   UNL     1      21.164   6.945  22.454  0.00  0.00    -0.339 N 
ATOM      8  C   UNL     1      17.236   9.564  21.296  0.00  0.00    +0.085 C 
ATOM      9  C   UNL     1      18.634   9.423  21.903  0.00  0.00    -0.021 A 
ATOM     10  C   UNL     1      19.391   8.216  21.949  0.00  0.00    +0.008 A 
ATOM     11  C   UNL     1      17.113   7.412  20.106  0.00  0.00    +0.145 C 
ATOM     12  C   UNL     1      19.159   6.872  21.494  0.00  0.00    -0.020 A 
ATOM     14  C   UNL     1      17.957   6.338  20.790  0.00  0.00    +0.065 C 
ATOM     15  C   UNL     1      20.668   8.225  22.522  0.00  0.00    +0.050 A 
ATOM     17  C   UNL     1      20.269   6.125  21.832  0.00  0.00    +0.091 A 
ATOM     18  C   UNL     1      19.280  10.585  22.395  0.00  0.00    +0.006 A 
ATOM     20  C   UNL     1      21.269   9.371  23.044  0.00  0.00    +0.026 A 
ATOM     22  C   UNL     1      20.555  10.560  22.959  0.00  0.00    +0.002 A 
ATOM     34  H   UNL     1      16.323   7.833  21.957  0.00  0.00    +0.123 HD
ENDROOT
BRANCH  11  19
ATOM      1  O   UNL     1      16.133   5.828  18.613  0.00  0.00    -0.274 OA
ATOM      5  N   UNL     1      14.750   7.334  19.727  0.00  0.00    -0.307 N 
ATOM     19  C   UNL     1      15.965   6.756  19.399  0.00  0.00    +0.231 C 
ATOM     35  H   UNL     1      14.717   8.089  20.405  0.00  0.00    +0.149 HD
BRANCH   5  26
ATOM     26  C   UNL     1      13.491   6.900  19.165  0.00  0.00    +0.178 C 
BRANCH  26  28
ATOM      2  O   UNL     1      12.053   6.449  21.072  0.00  0.00    -0.466 OA
ATOM     28  C   UNL     1      12.326   7.281  20.033  0.00  0.00    +0.122 A 
ATOM     31  C   UNL     1      11.438   8.332  20.007  0.00  0.00    +0.046 A 
ATOM     32  C   UNL     1      10.563   8.132  21.101  0.00  0.00    +0.041 A 
ATOM     33  C   UNL     1      10.978   6.975  21.717  0.00  0.00    +0.195 A 
ENDBRANCH  26  28
ENDBRANCH   5  26
ENDBRANCH  11  19
BRANCH   8  13
ATOM     13  C   UNL     1      16.296  10.415  22.169  0.00  0.00    +0.026 C 
BRANCH  13  16
ATOM     16  C   UNL     1      15.447  11.396  21.353  0.00  0.00    -0.015 C 
ATOM     23  C   UNL     1      16.045  11.688  19.976  0.00  0.00    +0.007 C 
ATOM     24  C   UNL     1      14.034  10.828  21.194  0.00  0.00    +0.007 C 
ENDBRANCH  13  16
ENDBRANCH   8  13
BRANCH   4  21
ATOM     21  C   UNL     1      22.456   6.514  22.944  0.00  0.00    +0.196 C 
BRANCH  21  25
ATOM      6  N   UNL     1      23.186   4.339  21.905  0.00  0.00    -0.336 N 
ATOM      7  N   UNL     1      22.264   4.201  23.920  0.00  0.00    -0.239 NA
ATOM     25  C   UNL     1      22.623   5.015  22.952  0.00  0.00    +0.129 A 
ATOM     27  C   UNL     1      23.188   3.012  22.227  0.00  0.00    +0.106 A 
ATOM     29  C   UNL     1      23.694   4.908  20.678  0.00  0.00    +0.150 C 
ATOM     30  C   UNL     1      22.613   2.952  23.475  0.00  0.00    +0.130 A 
ENDBRANCH  21  25
ENDBRANCH   4  21
TORSDOF 7
ENDMDL
MODEL 10
REMARK VINA RESULT:      -6.5     26.883     29.978
REMARK  Name = 51138092
REMARK  10 active torsions:
REMARK  status: ('A' for Active; 'I' for Inactive)
REMARK    1  A    between atoms: N_4  and  C_21
REMARK    2  A    between atoms: N_5  and  C_26
REMARK    3  A    between atoms: N_6  and  C_29
REMARK    4  A    between atoms: C_8  and  C_13
REMARK    5  A    between atoms: C_11  and  C_19
REMARK    6  A    between atoms: C_13  and  C_16
REMARK    7  A    between atoms: C_16  and  C_23
REMARK    8  A    between atoms: C_16  and  C_24
REMARK    9  A    between atoms: C_21  and  C_25
REMARK   10  A    between atoms: C_26  and  C_28
REMARK                            x       y       z     vdW  Elec       q    Type
REMARK                         _______ _______ _______ _____ _____    ______ ____
ROOT
ATOM      3  N   UNL     1      -5.911 -10.841  14.059  0.00  0.00    -0.299 NA
ATOM      4  N   UNL     1      -6.752  -9.148   9.376  0.00  0.00    -0.339 N 
ATOM      8  C   UNL     1      -4.599 -10.423  13.545  0.00  0.00    +0.085 C 
ATOM      9  C   UNL     1      -4.553 -10.038  12.063  0.00  0.00    -0.021 A 
ATOM     10  C   UNL     1      -5.689  -9.729  11.261  0.00  0.00    +0.008 A 
ATOM     11  C   UNL     1      -6.931  -9.803  14.033  0.00  0.00    +0.145 C 
ATOM     12  C   UNL     1      -7.103  -9.661  11.512  0.00  0.00    -0.020 A 
ATOM     14  C   UNL     1      -7.819  -9.920  12.795  0.00  0.00    +0.065 C 
ATOM     15  C   UNL     1      -5.509  -9.376   9.918  0.00  0.00    +0.050 A 
ATOM     17  C   UNL     1      -7.716  -9.311  10.326  0.00  0.00    +0.091 A 
ATOM     18  C   UNL     1      -3.288  -9.895  11.438  0.00  0.00    +0.006 A 
ATOM     20  C   UNL     1      -4.257  -9.286   9.308  0.00  0.00    +0.026 A 
ATOM     22  C   UNL     1      -3.143  -9.540  10.098  0.00  0.00    +0.002 A 
ATOM     34  H   UNL     1      -6.232 -11.687  13.591  0.00  0.00    +0.123 HD
ENDROOT
BRANCH  11  19
ATOM      1  O   UNL     1      -8.714 -10.818  15.254  0.00  0.00    -0.274 OA
ATOM      5  N   UNL     1      -7.342  -9.277  16.332  0.00  0.00    -0.307 N 
ATOM     19  C   UNL     1      -7.763 -10.040  15.257  0.00  0.00    +0.231 C 
ATOM     35  H   UNL     1      -6.530  -8.674  16.236  0.00  0.00    +0.149 HD
BRANCH   5  26
ATOM     26  C   UNL     1      -7.990  -9.304  17.624  0.00  0.00    +0.178 C 
BRANCH  26  28
ATOM      2  O   UNL     1      -6.219 -10.749  18.451  0.00  0.00    -0.466 OA
ATOM     28  C   UNL     1      -7.551 -10.480  18.449  0.00  0.00    +0.122 A 
ATOM     31  C   UNL     1      -8.229 -11.382  19.236  0.00  0.00    +0.046 A 
ATOM     32  C   UNL     1      -7.251 -12.263  19.755  0.00  0.00    +0.041 A 
ATOM     33  C   UNL     1      -6.045 -11.835  19.249  0.00  0.00    +0.195 A 
ENDBRANCH  26  28
ENDBRANCH   5  26
ENDBRANCH  11  19
BRANCH   8  13
ATOM     13  C   UNL     1      -3.659 -11.596  13.879  0.00  0.00    +0.026 C 
BRANCH  13  16
ATOM     16  C   UNL     1      -2.693 -11.281  15.025  0.00  0.00    -0.015 C 
ATOM     23  C   UNL     1      -1.615 -10.272  14.627  0.00  0.00    +0.007 C 
ATOM     24  C   UNL     1      -3.488 -10.745  16.220  0.00  0.00    +0.007 C 
ENDBRANCH  13  16
ENDBRANCH   8  13
BRANCH   4  21
ATOM     21  C   UNL     1      -7.017  -8.769   8.005  0.00  0.00    +0.196 C 
BRANCH  21  25
ATOM      6  N   UNL     1      -9.358  -8.060   7.406  0.00  0.00    -0.336 N 
ATOM      7  N   UNL     1      -8.017  -6.465   8.172  0.00  0.00    -0.239 NA
ATOM     25  C   UNL     1      -8.113  -7.741   7.872  0.00  0.00    +0.129 A 
ATOM     27  C   UNL     1     -10.104  -6.915   7.410  0.00  0.00    +0.106 A 
ATOM     29  C   UNL     1      -9.819  -9.362   6.985  0.00  0.00    +0.150 C 
ATOM     30  C   UNL     1      -9.254  -5.944   7.886  0.00  0.00    +0.130 A 
ENDBRANCH  21  25
ENDBRANCH   4  21
TORSDOF 7
ENDMDL
