MODEL 1
REMARK VINA RESULT:      -7.9      0.000      0.000
REMARK  Name = 11886046
REMARK  6 active torsions:
REMARK  status: ('A' for Active; 'I' for Inactive)
REMARK    1  A    between atoms: O_6  and  C_16
REMARK    2  A    between atoms: O_6  and  C_20
REMARK    3  A    between atoms: N_8  and  C_15
REMARK    4  A    between atoms: N_12  and  C_24
REMARK    5  A    between atoms: C_19  and  C_21
REMARK    6  A    between atoms: C_30  and  C_33
REMARK                            x       y       z     vdW  Elec       q    Type
REMARK                         _______ _______ _______ _____ _____    ______ ____
ROOT
ATOM      4  O   UNL     1      16.035   6.330  21.320  0.00  0.00    -0.368 OA
ATOM      5  O   UNL     1      17.173   9.119  20.621  0.00  0.00    -0.368 OA
ATOM     13  C   UNL     1      16.459   8.138  19.836  0.00  0.00    +0.177 C 
ATOM     14  C   UNL     1      16.939   6.776  20.296  0.00  0.00    +0.192 C 
ATOM     15  C   UNL     1      14.988   8.166  20.204  0.00  0.00    +0.168 C 
ATOM     16  C   UNL     1      18.310   7.078  20.854  0.00  0.00    +0.235 C 
ATOM     17  C   UNL     1      14.926   7.235  21.410  0.00  0.00    +0.190 C 
ATOM     18  C   UNL     1      18.107   8.442  21.472  0.00  0.00    +0.207 C 
ENDROOT
BRANCH  15   8
ATOM      8  N   UNL     1      14.122   7.799  19.082  0.00  0.00    -0.217 N 
ATOM      9  N   UNL     1      14.640   7.578  17.869  0.00  0.00    -0.043 NA
ATOM     10  N   UNL     1      12.427   7.304  17.832  0.00  0.00    -0.108 NA
ATOM     11  N   UNL     1      13.596   7.275  17.106  0.00  0.00    -0.023 NA
ATOM     19  C   UNL     1      12.778   7.631  19.055  0.00  0.00    +0.182 A 
BRANCH  19  21
ATOM     21  C   UNL     1      11.909   7.793  20.192  0.00  0.00    +0.021 A 
ATOM     22  C   UNL     1      11.539   9.072  20.613  0.00  0.00    +0.011 A 
ATOM     23  C   UNL     1      11.437   6.672  20.878  0.00  0.00    +0.011 A 
ATOM     25  C   UNL     1      10.699   9.229  21.716  0.00  0.00    +0.001 A 
ATOM     26  C   UNL     1      10.596   6.830  21.980  0.00  0.00    +0.001 A 
ATOM     27  C   UNL     1      10.228   8.108  22.399  0.00  0.00    +0.000 A 
ENDBRANCH  19  21
ENDBRANCH  15   8
BRANCH  16   6
ATOM      6  O   UNL     1      18.756   6.129  21.796  0.00  0.00    -0.442 OA
BRANCH   6  20
ATOM      7  O   UNL     1      20.592   6.214  23.159  0.00  0.00    -0.226 OA
ATOM     12  N   UNL     1      20.788   5.869  20.852  0.00  0.00    -0.251 N 
ATOM     20  C   UNL     1      20.114   6.082  22.039  0.00  0.00    +0.405 C 
ATOM     34  H   UNL     1      20.212   5.784  20.018  0.00  0.00    +0.158 HD
BRANCH  12  24
ATOM     24  C   UNL     1      22.183   5.755  20.651  0.00  0.00    +0.037 A 
ATOM     28  C   UNL     1      22.738   4.504  20.432  0.00  0.00    +0.035 A 
ATOM     29  C   UNL     1      22.967   6.897  20.677  0.00  0.00    +0.023 A 
ATOM     30  C   UNL     1      24.114   4.393  20.234  0.00  0.00    +0.057 A 
ATOM     31  C   UNL     1      24.344   6.785  20.479  0.00  0.00    +0.002 A 
ATOM     32  C   UNL     1      24.917   5.533  20.258  0.00  0.00    +0.012 A 
BRANCH  30  33
ATOM      1  F   UNL     1      23.954   2.014  20.431  0.00  0.00    -0.166 F 
ATOM      2  F   UNL     1      25.932   2.885  20.619  0.00  0.00    -0.166 F 
ATOM      3  F   UNL     1      24.960   2.810  18.675  0.00  0.00    -0.166 F 
ATOM     33  C   UNL     1      24.728   3.053  19.997  0.00  0.00    +0.417 C 
ENDBRANCH  30  33
ENDBRANCH  12  24
ENDBRANCH   6  20
ENDBRANCH  16   6
TORSDOF 6
ENDMDL
MODEL 2
REMARK VINA RESULT:      -7.8      1.907      2.906
REMARK  Name = 11886046
REMARK  6 active torsions:
REMARK  status: ('A' for Active; 'I' for Inactive)
REMARK    1  A    between atoms: O_6  and  C_16
REMARK    2  A    between atoms: O_6  and  C_20
REMARK    3  A    between atoms: N_8  and  C_15
REMARK    4  A    between atoms: N_12  and  C_24
REMARK    5  A    between atoms: C_19  and  C_21
REMARK    6  A    between atoms: C_30  and  C_33
REMARK                            x       y       z     vdW  Elec       q    Type
REMARK                         _______ _______ _______ _____ _____    ______ ____
ROOT
ATOM      4  O   UNL     1      16.287   8.524  20.451  0.00  0.00    -0.368 OA
ATOM      5  O   UNL     1      16.286   5.768  19.050  0.00  0.00    -0.368 OA
ATOM     13  C   UNL     1      15.372   6.380  19.987  0.00  0.00    +0.177 C 
ATOM     14  C   UNL     1      16.215   7.182  20.959  0.00  0.00    +0.192 C 
ATOM     15  C   UNL     1      14.529   7.417  19.270  0.00  0.00    +0.168 C 
ATOM     16  C   UNL     1      17.554   6.486  20.891  0.00  0.00    +0.235 C 
ATOM     17  C   UNL     1      15.408   8.661  19.326  0.00  0.00    +0.190 C 
ATOM     18  C   UNL     1      17.630   6.086  19.436  0.00  0.00    +0.207 C 
ENDROOT
BRANCH  15   8
ATOM      8  N   UNL     1      13.196   7.561  19.860  0.00  0.00    -0.217 N 
ATOM      9  N   UNL     1      12.960   7.151  21.111  0.00  0.00    -0.043 NA
ATOM     10  N   UNL     1      11.109   8.006  20.209  0.00  0.00    -0.108 NA
ATOM     11  N   UNL     1      11.678   7.426  21.320  0.00  0.00    -0.023 NA
ATOM     19  C   UNL     1      12.070   8.080  19.317  0.00  0.00    +0.182 A 
BRANCH  19  21
ATOM     21  C   UNL     1      11.974   8.613  17.982  0.00  0.00    +0.021 A 
ATOM     22  C   UNL     1      13.012   9.392  17.465  0.00  0.00    +0.011 A 
ATOM     23  C   UNL     1      10.844   8.356  17.204  0.00  0.00    +0.011 A 
ATOM     25  C   UNL     1      12.919   9.910  16.173  0.00  0.00    +0.001 A 
ATOM     26  C   UNL     1      10.751   8.874  15.912  0.00  0.00    +0.001 A 
ATOM     27  C   UNL     1      11.789   9.651  15.397  0.00  0.00    +0.000 A 
ENDBRANCH  19  21
ENDBRANCH  15   8
BRANCH  16   6
ATOM      6  O   UNL     1      18.635   7.306  21.274  0.00  0.00    -0.442 OA
BRANCH   6  20
ATOM      7  O   UNL     1      19.862   6.207  22.861  0.00  0.00    -0.226 OA
ATOM     12  N   UNL     1      20.723   6.649  20.729  0.00  0.00    -0.251 N 
ATOM     20  C   UNL     1      19.770   6.668  21.730  0.00  0.00    +0.405 C 
ATOM     34  H   UNL     1      20.458   7.087  19.851  0.00  0.00    +0.158 HD
BRANCH  12  24
ATOM     24  C   UNL     1      22.023   6.095  20.775  0.00  0.00    +0.037 A 
ATOM     28  C   UNL     1      22.176   4.718  20.765  0.00  0.00    +0.035 A 
ATOM     29  C   UNL     1      23.119   6.942  20.829  0.00  0.00    +0.023 A 
ATOM     30  C   UNL     1      23.459   4.173  20.810  0.00  0.00    +0.057 A 
ATOM     31  C   UNL     1      24.402   6.397  20.874  0.00  0.00    +0.002 A 
ATOM     32  C   UNL     1      24.572   5.012  20.865  0.00  0.00    +0.012 A 
BRANCH  30  33
ATOM      1  F   UNL     1      24.081   2.188  21.991  0.00  0.00    -0.166 F 
ATOM      2  F   UNL     1      24.545   2.258  19.873  0.00  0.00    -0.166 F 
ATOM      3  F   UNL     1      22.484   2.024  20.525  0.00  0.00    -0.166 F 
ATOM     33  C   UNL     1      23.641   2.692  20.800  0.00  0.00    +0.417 C 
ENDBRANCH  30  33
ENDBRANCH  12  24
ENDBRANCH   6  20
ENDBRANCH  16   6
TORSDOF 6
ENDMDL
MODEL 3
REMARK VINA RESULT:      -7.7     30.844     34.052
REMARK  Name = 11886046
REMARK  6 active torsions:
REMARK  status: ('A' for Active; 'I' for Inactive)
REMARK    1  A    between atoms: O_6  and  C_16
REMARK    2  A    between atoms: O_6  and  C_20
REMARK    3  A    between atoms: N_8  and  C_15
REMARK    4  A    between atoms: N_12  and  C_24
REMARK    5  A    between atoms: C_19  and  C_21
REMARK    6  A    between atoms: C_30  and  C_33
REMARK                            x       y       z     vdW  Elec       q    Type
REMARK                         _______ _______ _______ _____ _____    ______ ____
ROOT
ATOM      4  O   UNL     1     -14.526   4.645  23.666  0.00  0.00    -0.368 OA
ATOM      5  O   UNL     1     -17.210   4.909  22.154  0.00  0.00    -0.368 OA
ATOM     13  C   UNL     1     -16.447   5.846  22.947  0.00  0.00    +0.177 C 
ATOM     14  C   UNL     1     -15.836   5.058  24.088  0.00  0.00    +0.192 C 
ATOM     15  C   UNL     1     -15.257   6.336  22.145  0.00  0.00    +0.168 C 
ATOM     16  C   UNL     1     -16.776   3.883  24.221  0.00  0.00    +0.235 C 
ATOM     17  C   UNL     1     -14.206   5.265  22.414  0.00  0.00    +0.190 C 
ATOM     18  C   UNL     1     -17.162   3.621  22.784  0.00  0.00    +0.207 C 
ENDROOT
BRANCH  15   8
ATOM      8  N   UNL     1     -14.866   7.703  22.500  0.00  0.00    -0.217 N 
ATOM      9  N   UNL     1     -15.406   8.308  23.564  0.00  0.00    -0.043 NA
ATOM     10  N   UNL     1     -13.950   9.661  22.553  0.00  0.00    -0.108 NA
ATOM     11  N   UNL     1     -14.840   9.509  23.592  0.00  0.00    -0.023 NA
ATOM     19  C   UNL     1     -13.983   8.528  21.890  0.00  0.00    +0.182 A 
BRANCH  19  21
ATOM     21  C   UNL     1     -13.224   8.190  20.713  0.00  0.00    +0.021 A 
ATOM     22  C   UNL     1     -11.943   7.650  20.839  0.00  0.00    +0.011 A 
ATOM     23  C   UNL     1     -13.767   8.404  19.444  0.00  0.00    +0.011 A 
ATOM     25  C   UNL     1     -11.207   7.324  19.699  0.00  0.00    +0.001 A 
ATOM     26  C   UNL     1     -13.031   8.078  18.305  0.00  0.00    +0.001 A 
ATOM     27  C   UNL     1     -11.751   7.539  18.432  0.00  0.00    +0.000 A 
ENDBRANCH  19  21
ENDBRANCH  15   8
BRANCH  16   6
ATOM      6  O   UNL     1     -16.186   2.754  24.827  0.00  0.00    -0.442 OA
BRANCH   6  20
ATOM      7  O   UNL     1     -17.486   1.760  26.424  0.00  0.00    -0.226 OA
ATOM     12  N   UNL     1     -15.693   3.154  26.991  0.00  0.00    -0.251 N 
ATOM     20  C   UNL     1     -16.545   2.487  26.132  0.00  0.00    +0.405 C 
ATOM     34  H   UNL     1     -14.965   3.715  26.555  0.00  0.00    +0.158 HD
BRANCH  12  24
ATOM     24  C   UNL     1     -15.707   3.154  28.405  0.00  0.00    +0.037 A 
ATOM     28  C   UNL     1     -15.318   2.013  29.089  0.00  0.00    +0.035 A 
ATOM     29  C   UNL     1     -16.110   4.296  29.079  0.00  0.00    +0.023 A 
ATOM     30  C   UNL     1     -15.332   2.015  30.483  0.00  0.00    +0.057 A 
ATOM     31  C   UNL     1     -16.124   4.298  30.474  0.00  0.00    +0.002 A 
ATOM     32  C   UNL     1     -15.736   3.157  31.176  0.00  0.00    +0.012 A 
BRANCH  30  33
ATOM      1  F   UNL     1     -14.957   0.948  32.591  0.00  0.00    -0.166 F 
ATOM      2  F   UNL     1     -13.640   0.391  30.960  0.00  0.00    -0.166 F 
ATOM      3  F   UNL     1     -15.707  -0.283  30.964  0.00  0.00    -0.166 F 
ATOM     33  C   UNL     1     -14.916   0.795  31.234  0.00  0.00    +0.417 C 
ENDBRANCH  30  33
ENDBRANCH  12  24
ENDBRANCH   6  20
ENDBRANCH  16   6
TORSDOF 6
ENDMDL
MODEL 4
REMARK VINA RESULT:      -7.6      1.346      2.023
REMARK  Name = 11886046
REMARK  6 active torsions:
REMARK  status: ('A' for Active; 'I' for Inactive)
REMARK    1  A    between atoms: O_6  and  C_16
REMARK    2  A    between atoms: O_6  and  C_20
REMARK    3  A    between atoms: N_8  and  C_15
REMARK    4  A    between atoms: N_12  and  C_24
REMARK    5  A    between atoms: C_19  and  C_21
REMARK    6  A    between atoms: C_30  and  C_33
REMARK                            x       y       z     vdW  Elec       q    Type
REMARK                         _______ _______ _______ _____ _____    ______ ____
ROOT
ATOM      4  O   UNL     1      15.723   6.595  21.599  0.00  0.00    -0.368 OA
ATOM      5  O   UNL     1      16.812   9.262  20.476  0.00  0.00    -0.368 OA
ATOM     13  C   UNL     1      15.810   8.341  19.989  0.00  0.00    +0.177 C 
ATOM     14  C   UNL     1      16.296   6.947  20.329  0.00  0.00    +0.192 C 
ATOM     15  C   UNL     1      14.535   8.506  20.794  0.00  0.00    +0.168 C 
ATOM     16  C   UNL     1      17.792   7.129  20.423  0.00  0.00    +0.235 C 
ATOM     17  C   UNL     1      14.775   7.597  21.994  0.00  0.00    +0.190 C 
ATOM     18  C   UNL     1      17.906   8.512  21.021  0.00  0.00    +0.207 C 
ENDROOT
BRANCH  15   8
ATOM      8  N   UNL     1      13.334   8.208  20.010  0.00  0.00    -0.217 N 
ATOM      9  N   UNL     1      13.367   7.282  19.045  0.00  0.00    -0.043 NA
ATOM     10  N   UNL     1      11.331   8.179  19.196  0.00  0.00    -0.108 NA
ATOM     11  N   UNL     1      12.135   7.269  18.549  0.00  0.00    -0.023 NA
ATOM     19  C   UNL     1      12.097   8.749  20.098  0.00  0.00    +0.182 A 
BRANCH  19  21
ATOM     21  C   UNL     1      11.716   9.777  21.033  0.00  0.00    +0.021 A 
ATOM     22  C   UNL     1      11.012   9.442  22.191  0.00  0.00    +0.011 A 
ATOM     23  C   UNL     1      12.048  11.110  20.783  0.00  0.00    +0.011 A 
ATOM     25  C   UNL     1      10.642  10.437  23.097  0.00  0.00    +0.001 A 
ATOM     26  C   UNL     1      11.678  12.105  21.689  0.00  0.00    +0.001 A 
ATOM     27  C   UNL     1      10.975  11.768  22.845  0.00  0.00    +0.000 A 
ENDBRANCH  19  21
ENDBRANCH  15   8
BRANCH  16   6
ATOM      6  O   UNL     1      18.430   6.153  21.216  0.00  0.00    -0.442 OA
BRANCH   6  20
ATOM      7  O   UNL     1      19.444   4.763  19.708  0.00  0.00    -0.226 OA
ATOM     12  N   UNL     1      20.666   5.891  21.356  0.00  0.00    -0.251 N 
ATOM     20  C   UNL     1      19.527   5.523  20.665  0.00  0.00    +0.405 C 
ATOM     34  H   UNL     1      20.532   6.538  22.128  0.00  0.00    +0.158 HD
BRANCH  12  24
ATOM     24  C   UNL     1      21.998   5.478  21.121  0.00  0.00    +0.037 A 
ATOM     28  C   UNL     1      22.340   4.148  21.312  0.00  0.00    +0.035 A 
ATOM     29  C   UNL     1      22.934   6.410  20.704  0.00  0.00    +0.023 A 
ATOM     30  C   UNL     1      23.654   3.741  21.080  0.00  0.00    +0.057 A 
ATOM     31  C   UNL     1      24.248   6.003  20.472  0.00  0.00    +0.002 A 
ATOM     32  C   UNL     1      24.608   4.669  20.660  0.00  0.00    +0.012 A 
BRANCH  30  33
ATOM      1  F   UNL     1      23.354   1.445  20.479  0.00  0.00    -0.166 F 
ATOM      2  F   UNL     1      23.831   1.865  22.554  0.00  0.00    -0.166 F 
ATOM      3  F   UNL     1      25.359   2.086  21.023  0.00  0.00    -0.166 F 
ATOM     33  C   UNL     1      24.039   2.314  21.281  0.00  0.00    +0.417 C 
ENDBRANCH  30  33
ENDBRANCH  12  24
ENDBRANCH   6  20
ENDBRANCH  16   6
TORSDOF 6
ENDMDL
MODEL 5
REMARK VINA RESULT:      -7.6     29.432     32.871
REMARK  Name = 11886046
REMARK  6 active torsions:
REMARK  status: ('A' for Active; 'I' for Inactive)
REMARK    1  A    between atoms: O_6  and  C_16
REMARK    2  A    between atoms: O_6  and  C_20
REMARK    3  A    between atoms: N_8  and  C_15
REMARK    4  A    between atoms: N_12  and  C_24
REMARK    5  A    between atoms: C_19  and  C_21
REMARK    6  A    between atoms: C_30  and  C_33
REMARK                            x       y       z     vdW  Elec       q    Type
REMARK                         _______ _______ _______ _____ _____    ______ ____
ROOT
ATOM      4  O   UNL     1      -9.787 -10.200  17.933  0.00  0.00    -0.368 OA
ATOM      5  O   UNL     1      -8.081  -9.721  15.400  0.00  0.00    -0.368 OA
ATOM     13  C   UNL     1      -7.759  -9.678  16.809  0.00  0.00    +0.177 C 
ATOM     14  C   UNL     1      -8.968  -9.096  17.514  0.00  0.00    +0.192 C 
ATOM     15  C   UNL     1      -7.648 -11.091  17.347  0.00  0.00    +0.168 C 
ATOM     16  C   UNL     1      -9.633  -8.289  16.425  0.00  0.00    +0.235 C 
ATOM     17  C   UNL     1      -9.093 -11.432  17.695  0.00  0.00    +0.190 C 
ATOM     18  C   UNL     1      -9.374  -9.135  15.200  0.00  0.00    +0.207 C 
ENDROOT
BRANCH  15   8
ATOM      8  N   UNL     1      -6.694 -11.195  18.454  0.00  0.00    -0.217 N 
ATOM      9  N   UNL     1      -7.102 -11.049  19.718  0.00  0.00    -0.043 NA
ATOM     10  N   UNL     1      -4.908 -11.441  19.649  0.00  0.00    -0.108 NA
ATOM     11  N   UNL     1      -6.003 -11.201  20.448  0.00  0.00    -0.023 NA
ATOM     19  C   UNL     1      -5.361 -11.434  18.416  0.00  0.00    +0.182 A 
BRANCH  19  21
ATOM     21  C   UNL     1      -4.599 -11.640  17.212  0.00  0.00    +0.021 A 
ATOM     22  C   UNL     1      -4.809 -12.783  16.438  0.00  0.00    +0.011 A 
ATOM     23  C   UNL     1      -3.647 -10.698  16.816  0.00  0.00    +0.011 A 
ATOM     25  C   UNL     1      -4.069 -12.983  15.272  0.00  0.00    +0.001 A 
ATOM     26  C   UNL     1      -2.908 -10.899  15.649  0.00  0.00    +0.001 A 
ATOM     27  C   UNL     1      -3.119 -12.041  14.878  0.00  0.00    +0.000 A 
ENDBRANCH  19  21
ENDBRANCH  15   8
BRANCH  16   6
ATOM      6  O   UNL     1     -11.010  -8.077  16.642  0.00  0.00    -0.442 OA
BRANCH   6  20
ATOM      7  O   UNL     1     -11.283  -5.806  16.602  0.00  0.00    -0.226 OA
ATOM     12  N   UNL     1     -12.388  -7.204  15.084  0.00  0.00    -0.251 N 
ATOM     20  C   UNL     1     -11.548  -6.909  16.140  0.00  0.00    +0.405 C 
ATOM     34  H   UNL     1     -12.480  -8.187  14.846  0.00  0.00    +0.158 HD
BRANCH  12  24
ATOM     24  C   UNL     1     -13.137  -6.304  14.290  0.00  0.00    +0.037 A 
ATOM     28  C   UNL     1     -12.475  -5.454  13.418  0.00  0.00    +0.035 A 
ATOM     29  C   UNL     1     -14.518  -6.292  14.400  0.00  0.00    +0.023 A 
ATOM     30  C   UNL     1     -13.215  -4.568  12.636  0.00  0.00    +0.057 A 
ATOM     31  C   UNL     1     -15.258  -5.405  13.617  0.00  0.00    +0.002 A 
ATOM     32  C   UNL     1     -14.607  -4.543  12.735  0.00  0.00    +0.012 A 
BRANCH  30  33
ATOM      1  F   UNL     1     -11.691  -4.286  10.814  0.00  0.00    -0.166 F 
ATOM      2  F   UNL     1     -11.730  -2.719  12.314  0.00  0.00    -0.166 F 
ATOM      3  F   UNL     1     -13.387  -2.930  10.921  0.00  0.00    -0.166 F 
ATOM     33  C   UNL     1     -12.518  -3.646  11.692  0.00  0.00    +0.417 C 
ENDBRANCH  30  33
ENDBRANCH  12  24
ENDBRANCH   6  20
ENDBRANCH  16   6
TORSDOF 6
ENDMDL
MODEL 6
REMARK VINA RESULT:      -7.4      1.459      2.237
REMARK  Name = 11886046
REMARK  6 active torsions:
REMARK  status: ('A' for Active; 'I' for Inactive)
REMARK    1  A    between atoms: O_6  and  C_16
REMARK    2  A    between atoms: O_6  and  C_20
REMARK    3  A    between atoms: N_8  and  C_15
REMARK    4  A    between atoms: N_12  and  C_24
REMARK    5  A    between atoms: C_19  and  C_21
REMARK    6  A    between atoms: C_30  and  C_33
REMARK                            x       y       z     vdW  Elec       q    Type
REMARK                         _______ _______ _______ _____ _____    ______ ____
ROOT
ATOM      4  O   UNL     1      15.988   6.577  21.595  0.00  0.00    -0.368 OA
ATOM      5  O   UNL     1      17.033   9.309  20.592  0.00  0.00    -0.368 OA
ATOM     13  C   UNL     1      16.093   8.364  20.031  0.00  0.00    +0.177 C 
ATOM     14  C   UNL     1      16.613   6.980  20.365  0.00  0.00    +0.192 C 
ATOM     15  C   UNL     1      14.773   8.463  20.770  0.00  0.00    +0.168 C 
ATOM     16  C   UNL     1      18.094   7.215  20.543  0.00  0.00    +0.235 C 
ATOM     17  C   UNL     1      14.984   7.534  21.961  0.00  0.00    +0.190 C 
ATOM     18  C   UNL     1      18.124   8.586  21.177  0.00  0.00    +0.207 C 
ENDROOT
BRANCH  15   8
ATOM      8  N   UNL     1      13.627   8.139  19.917  0.00  0.00    -0.217 N 
ATOM      9  N   UNL     1      13.763   7.293  18.891  0.00  0.00    -0.043 NA
ATOM     10  N   UNL     1      11.663   8.031  19.019  0.00  0.00    -0.108 NA
ATOM     11  N   UNL     1      12.555   7.230  18.344  0.00  0.00    -0.023 NA
ATOM     19  C   UNL     1      12.351   8.584  19.991  0.00  0.00    +0.182 A 
BRANCH  19  21
ATOM     21  C   UNL     1      11.861   9.509  20.981  0.00  0.00    +0.021 A 
ATOM     22  C   UNL     1      12.043  10.883  20.805  0.00  0.00    +0.011 A 
ATOM     23  C   UNL     1      11.207   9.036  22.121  0.00  0.00    +0.011 A 
ATOM     25  C   UNL     1      11.570  11.779  21.764  0.00  0.00    +0.001 A 
ATOM     26  C   UNL     1      10.735   9.932  23.079  0.00  0.00    +0.001 A 
ATOM     27  C   UNL     1      10.917  11.304  22.901  0.00  0.00    +0.000 A 
ENDBRANCH  19  21
ENDBRANCH  15   8
BRANCH  16   6
ATOM      6  O   UNL     1      18.727   6.244  21.347  0.00  0.00    -0.442 OA
BRANCH   6  20
ATOM      7  O   UNL     1      19.279   4.755  19.701  0.00  0.00    -0.226 OA
ATOM     12  N   UNL     1      20.792   5.339  21.389  0.00  0.00    -0.251 N 
ATOM     20  C   UNL     1      19.589   5.374  20.711  0.00  0.00    +0.405 C 
ATOM     34  H   UNL     1      20.859   5.929  22.214  0.00  0.00    +0.158 HD
BRANCH  12  24
ATOM     24  C   UNL     1      21.945   4.581  21.077  0.00  0.00    +0.037 A 
ATOM     28  C   UNL     1      23.089   5.232  20.645  0.00  0.00    +0.035 A 
ATOM     29  C   UNL     1      21.907   3.203  21.212  0.00  0.00    +0.023 A 
ATOM     30  C   UNL     1      24.226   4.484  20.338  0.00  0.00    +0.057 A 
ATOM     31  C   UNL     1      23.044   2.454  20.905  0.00  0.00    +0.002 A 
ATOM     32  C   UNL     1      24.203   3.095  20.468  0.00  0.00    +0.012 A 
BRANCH  30  33
ATOM      1  F   UNL     1      25.318   6.518  19.712  0.00  0.00    -0.166 F 
ATOM      2  F   UNL     1      25.921   4.716  18.666  0.00  0.00    -0.166 F 
ATOM      3  F   UNL     1      26.508   5.015  20.738  0.00  0.00    -0.166 F 
ATOM     33  C   UNL     1      25.466   5.169  19.871  0.00  0.00    +0.417 C 
ENDBRANCH  30  33
ENDBRANCH  12  24
ENDBRANCH   6  20
ENDBRANCH  16   6
TORSDOF 6
ENDMDL
MODEL 7
REMARK VINA RESULT:      -7.4      4.997     10.504
REMARK  Name = 11886046
REMARK  6 active torsions:
REMARK  status: ('A' for Active; 'I' for Inactive)
REMARK    1  A    between atoms: O_6  and  C_16
REMARK    2  A    between atoms: O_6  and  C_20
REMARK    3  A    between atoms: N_8  and  C_15
REMARK    4  A    between atoms: N_12  and  C_24
REMARK    5  A    between atoms: C_19  and  C_21
REMARK    6  A    between atoms: C_30  and  C_33
REMARK                            x       y       z     vdW  Elec       q    Type
REMARK                         _______ _______ _______ _____ _____    ______ ____
ROOT
ATOM      4  O   UNL     1      21.492   6.547  20.178  0.00  0.00    -0.368 OA
ATOM      5  O   UNL     1      20.820   5.850  23.114  0.00  0.00    -0.368 OA
ATOM     13  C   UNL     1      21.382   5.068  22.035  0.00  0.00    +0.177 C 
ATOM     14  C   UNL     1      20.685   5.514  20.765  0.00  0.00    +0.192 C 
ATOM     15  C   UNL     1      22.832   5.457  21.829  0.00  0.00    +0.168 C 
ATOM     16  C   UNL     1      19.372   6.055  21.278  0.00  0.00    +0.235 C 
ATOM     17  C   UNL     1      22.730   6.658  20.895  0.00  0.00    +0.190 C 
ATOM     18  C   UNL     1      19.779   6.684  22.590  0.00  0.00    +0.207 C 
ENDROOT
BRANCH  15   8
ATOM      8  N   UNL     1      23.646   4.344  21.334  0.00  0.00    -0.217 N 
ATOM      9  N   UNL     1      24.027   4.300  20.053  0.00  0.00    -0.043 NA
ATOM     10  N   UNL     1      24.801   2.524  21.158  0.00  0.00    -0.108 NA
ATOM     11  N   UNL     1      24.735   3.181  19.950  0.00  0.00    -0.023 NA
ATOM     19  C   UNL     1      24.119   3.265  22.001  0.00  0.00    +0.182 A 
BRANCH  19  21
ATOM     21  C   UNL     1      23.893   3.002  23.399  0.00  0.00    +0.021 A 
ATOM     22  C   UNL     1      24.745   3.550  24.360  0.00  0.00    +0.011 A 
ATOM     23  C   UNL     1      22.823   2.197  23.797  0.00  0.00    +0.011 A 
ATOM     25  C   UNL     1      24.527   3.293  25.714  0.00  0.00    +0.001 A 
ATOM     26  C   UNL     1      22.605   1.942  25.151  0.00  0.00    +0.001 A 
ATOM     27  C   UNL     1      23.458   2.490  26.110  0.00  0.00    +0.000 A 
ENDBRANCH  19  21
ENDBRANCH  15   8
BRANCH  16   6
ATOM      6  O   UNL     1      18.767   6.985  20.407  0.00  0.00    -0.442 OA
BRANCH   6  20
ATOM      7  O   UNL     1      17.536   5.613  19.053  0.00  0.00    -0.226 OA
ATOM     12  N   UNL     1      16.578   7.455  20.133  0.00  0.00    -0.251 N 
ATOM     20  C   UNL     1      17.599   6.591  19.787  0.00  0.00    +0.405 C 
ATOM     34  H   UNL     1      16.827   8.215  20.761  0.00  0.00    +0.158 HD
BRANCH  12  24
ATOM     24  C   UNL     1      15.226   7.414  19.721  0.00  0.00    +0.037 A 
ATOM     28  C   UNL     1      14.231   7.246  20.672  0.00  0.00    +0.035 A 
ATOM     29  C   UNL     1      14.923   7.544  18.375  0.00  0.00    +0.023 A 
ATOM     30  C   UNL     1      12.898   7.207  20.264  0.00  0.00    +0.057 A 
ATOM     31  C   UNL     1      13.589   7.504  17.968  0.00  0.00    +0.002 A 
ATOM     32  C   UNL     1      12.577   7.335  18.912  0.00  0.00    +0.012 A 
BRANCH  30  33
ATOM      1  F   UNL     1      10.588   7.447  20.841  0.00  0.00    -0.166 F 
ATOM      2  F   UNL     1      12.033   7.707  22.438  0.00  0.00    -0.166 F 
ATOM      3  F   UNL     1      11.647   5.723  21.637  0.00  0.00    -0.166 F 
ATOM     33  C   UNL     1      11.814   7.027  21.274  0.00  0.00    +0.417 C 
ENDBRANCH  30  33
ENDBRANCH  12  24
ENDBRANCH   6  20
ENDBRANCH  16   6
TORSDOF 6
ENDMDL
MODEL 8
REMARK VINA RESULT:      -7.3     29.222     31.909
REMARK  Name = 11886046
REMARK  6 active torsions:
REMARK  status: ('A' for Active; 'I' for Inactive)
REMARK    1  A    between atoms: O_6  and  C_16
REMARK    2  A    between atoms: O_6  and  C_20
REMARK    3  A    between atoms: N_8  and  C_15
REMARK    4  A    between atoms: N_12  and  C_24
REMARK    5  A    between atoms: C_19  and  C_21
REMARK    6  A    between atoms: C_30  and  C_33
REMARK                            x       y       z     vdW  Elec       q    Type
REMARK                         _______ _______ _______ _____ _____    ______ ____
ROOT
ATOM      4  O   UNL     1     -11.238  -6.653  16.349  0.00  0.00    -0.368 OA
ATOM      5  O   UNL     1     -10.829  -8.662  14.036  0.00  0.00    -0.368 OA
ATOM     13  C   UNL     1     -12.015  -8.049  14.589  0.00  0.00    +0.177 C 
ATOM     14  C   UNL     1     -11.798  -7.950  16.086  0.00  0.00    +0.192 C 
ATOM     15  C   UNL     1     -12.105  -6.609  14.123  0.00  0.00    +0.168 C 
ATOM     16  C   UNL     1     -10.800  -9.052  16.351  0.00  0.00    +0.235 C 
ATOM     17  C   UNL     1     -11.253  -5.869  15.148  0.00  0.00    +0.190 C 
ATOM     18  C   UNL     1      -9.942  -9.009  15.108  0.00  0.00    +0.207 C 
ENDROOT
BRANCH  15   8
ATOM      8  N   UNL     1     -13.489  -6.144  14.003  0.00  0.00    -0.217 N 
ATOM      9  N   UNL     1     -14.387  -6.437  14.949  0.00  0.00    -0.043 NA
ATOM     10  N   UNL     1     -15.329  -5.229  13.329  0.00  0.00    -0.108 NA
ATOM     11  N   UNL     1     -15.514  -5.873  14.531  0.00  0.00    -0.023 NA
ATOM     19  C   UNL     1     -14.065  -5.410  13.021  0.00  0.00    +0.182 A 
BRANCH  19  21
ATOM     21  C   UNL     1     -13.380  -4.927  11.850  0.00  0.00    +0.021 A 
ATOM     22  C   UNL     1     -13.550  -5.573  10.624  0.00  0.00    +0.011 A 
ATOM     23  C   UNL     1     -12.543  -3.812  11.938  0.00  0.00    +0.011 A 
ATOM     25  C   UNL     1     -12.885  -5.106   9.490  0.00  0.00    +0.001 A 
ATOM     26  C   UNL     1     -11.879  -3.345  10.803  0.00  0.00    +0.001 A 
ATOM     27  C   UNL     1     -12.050  -3.993   9.580  0.00  0.00    +0.000 A 
ENDBRANCH  19  21
ENDBRANCH  15   8
BRANCH  16   6
ATOM      6  O   UNL     1     -10.044  -8.858  17.525  0.00  0.00    -0.442 OA
BRANCH   6  20
ATOM      7  O   UNL     1      -9.592 -11.002  18.182  0.00  0.00    -0.226 OA
ATOM     12  N   UNL     1      -7.889  -9.423  17.881  0.00  0.00    -0.251 N 
ATOM     20  C   UNL     1      -9.193  -9.879  17.896  0.00  0.00    +0.405 C 
ATOM     34  H   UNL     1      -7.758  -8.451  17.613  0.00  0.00    +0.158 HD
BRANCH  12  24
ATOM     24  C   UNL     1      -6.712 -10.142  18.193  0.00  0.00    +0.037 A 
ATOM     28  C   UNL     1      -5.736 -10.301  17.222  0.00  0.00    +0.035 A 
ATOM     29  C   UNL     1      -6.558 -10.671  19.464  0.00  0.00    +0.023 A 
ATOM     30  C   UNL     1      -4.575 -11.009  17.531  0.00  0.00    +0.057 A 
ATOM     31  C   UNL     1      -5.397 -11.380  19.773  0.00  0.00    +0.002 A 
ATOM     32  C   UNL     1      -4.405 -11.549  18.807  0.00  0.00    +0.012 A 
BRANCH  30  33
ATOM      1  F   UNL     1      -3.521 -12.428  15.919  0.00  0.00    -0.166 F 
ATOM      2  F   UNL     1      -2.247 -11.029  16.980  0.00  0.00    -0.166 F 
ATOM      3  F   UNL     1      -3.630 -10.304  15.467  0.00  0.00    -0.166 F 
ATOM     33  C   UNL     1      -3.514 -11.191  16.497  0.00  0.00    +0.417 C 
ENDBRANCH  30  33
ENDBRANCH  12  24
ENDBRANCH   6  20
ENDBRANCH  16   6
TORSDOF 6
ENDMDL
MODEL 9
REMARK VINA RESULT:      -7.3     27.128     30.344
REMARK  Name = 11886046
REMARK  6 active torsions:
REMARK  status: ('A' for Active; 'I' for Inactive)
REMARK    1  A    between atoms: O_6  and  C_16
REMARK    2  A    between atoms: O_6  and  C_20
REMARK    3  A    between atoms: N_8  and  C_15
REMARK    4  A    between atoms: N_12  and  C_24
REMARK    5  A    between atoms: C_19  and  C_21
REMARK    6  A    between atoms: C_30  and  C_33
REMARK                            x       y       z     vdW  Elec       q    Type
REMARK                         _______ _______ _______ _____ _____    ______ ____
ROOT
ATOM      4  O   UNL     1      -5.483 -10.745   8.531  0.00  0.00    -0.368 OA
ATOM      5  O   UNL     1      -6.604  -8.465  10.292  0.00  0.00    -0.368 OA
ATOM     13  C   UNL     1      -6.233  -8.520   8.896  0.00  0.00    +0.177 C 
ATOM     14  C   UNL     1      -5.014  -9.415   8.803  0.00  0.00    +0.192 C 
ATOM     15  C   UNL     1      -7.305  -9.255   8.116  0.00  0.00    +0.168 C 
ATOM     16  C   UNL     1      -4.415  -9.306  10.185  0.00  0.00    +0.235 C 
ATOM     17  C   UNL     1      -6.894 -10.715   8.274  0.00  0.00    +0.190 C 
ATOM     18  C   UNL     1      -5.644  -9.207  11.057  0.00  0.00    +0.207 C 
ENDROOT
BRANCH  15   8
ATOM      8  N   UNL     1      -7.417  -8.781   6.734  0.00  0.00    -0.217 N 
ATOM      9  N   UNL     1      -6.704  -9.354   5.760  0.00  0.00    -0.043 NA
ATOM     10  N   UNL     1      -7.962  -7.706   4.938  0.00  0.00    -0.108 NA
ATOM     11  N   UNL     1      -7.041  -8.691   4.660  0.00  0.00    -0.023 NA
ATOM     19  C   UNL     1      -8.180  -7.781   6.231  0.00  0.00    +0.182 A 
BRANCH  19  21
ATOM     21  C   UNL     1      -9.069  -6.957   7.009  0.00  0.00    +0.021 A 
ATOM     22  C   UNL     1      -8.551  -5.970   7.850  0.00  0.00    +0.011 A 
ATOM     23  C   UNL     1     -10.451  -7.145   6.926  0.00  0.00    +0.011 A 
ATOM     25  C   UNL     1      -9.413  -5.173   8.604  0.00  0.00    +0.001 A 
ATOM     26  C   UNL     1     -11.311  -6.347   7.681  0.00  0.00    +0.001 A 
ATOM     27  C   UNL     1     -10.792  -5.362   8.520  0.00  0.00    +0.000 A 
ENDBRANCH  19  21
ENDBRANCH  15   8
BRANCH  16   6
ATOM      6  O   UNL     1      -3.602 -10.404  10.535  0.00  0.00    -0.442 OA
BRANCH   6  20
ATOM      7  O   UNL     1      -1.636  -9.776  11.521  0.00  0.00    -0.226 OA
ATOM     12  N   UNL     1      -3.405 -10.671  12.767  0.00  0.00    -0.251 N 
ATOM     20  C   UNL     1      -2.765 -10.240  11.620  0.00  0.00    +0.405 C 
ATOM     34  H   UNL     1      -4.349 -11.027  12.646  0.00  0.00    +0.158 HD
BRANCH  12  24
ATOM     24  C   UNL     1      -2.907 -10.678  14.090  0.00  0.00    +0.037 A 
ATOM     28  C   UNL     1      -3.763 -10.988  15.136  0.00  0.00    +0.035 A 
ATOM     29  C   UNL     1      -1.574 -10.375  14.315  0.00  0.00    +0.023 A 
ATOM     30  C   UNL     1      -3.271 -10.995  16.441  0.00  0.00    +0.057 A 
ATOM     31  C   UNL     1      -1.082 -10.382  15.621  0.00  0.00    +0.002 A 
ATOM     32  C   UNL     1      -1.931 -10.692  16.684  0.00  0.00    +0.012 A 
BRANCH  30  33
ATOM      1  F   UNL     1      -5.023 -12.369  17.317  0.00  0.00    -0.166 F 
ATOM      2  F   UNL     1      -4.991 -10.294  17.949  0.00  0.00    -0.166 F 
ATOM      3  F   UNL     1      -3.497 -11.681  18.706  0.00  0.00    -0.166 F 
ATOM     33  C   UNL     1      -4.178 -11.327  17.578  0.00  0.00    +0.417 C 
ENDBRANCH  30  33
ENDBRANCH  12  24
ENDBRANCH   6  20
ENDBRANCH  16   6
TORSDOF 6
ENDMDL
MODEL 10
REMARK VINA RESULT:      -7.2     28.663     31.349
REMARK  Name = 11886046
REMARK  6 active torsions:
REMARK  status: ('A' for Active; 'I' for Inactive)
REMARK    1  A    between atoms: O_6  and  C_16
REMARK    2  A    between atoms: O_6  and  C_20
REMARK    3  A    between atoms: N_8  and  C_15
REMARK    4  A    between atoms: N_12  and  C_24
REMARK    5  A    between atoms: C_19  and  C_21
REMARK    6  A    between atoms: C_30  and  C_33
REMARK                            x       y       z     vdW  Elec       q    Type
REMARK                         _______ _______ _______ _____ _____    ______ ____
ROOT
ATOM      4  O   UNL     1      -5.760 -13.011  16.340  0.00  0.00    -0.368 OA
ATOM      5  O   UNL     1      -4.146 -10.385  16.094  0.00  0.00    -0.368 OA
ATOM     13  C   UNL     1      -3.831 -11.753  15.750  0.00  0.00    +0.177 C 
ATOM     14  C   UNL     1      -4.459 -12.628  16.817  0.00  0.00    +0.192 C 
ATOM     15  C   UNL     1      -4.554 -12.134  14.473  0.00  0.00    +0.168 C 
ATOM     16  C   UNL     1      -4.551 -11.694  18.000  0.00  0.00    +0.235 C 
ATOM     17  C   UNL     1      -5.919 -12.584  14.980  0.00  0.00    +0.190 C 
ATOM     18  C   UNL     1      -4.858 -10.372  17.338  0.00  0.00    +0.207 C 
ENDROOT
BRANCH  15   8
ATOM      8  N   UNL     1      -3.818 -13.126  13.686  0.00  0.00    -0.217 N 
ATOM      9  N   UNL     1      -3.767 -14.403  14.081  0.00  0.00    -0.043 NA
ATOM     10  N   UNL     1      -2.624 -14.128  12.186  0.00  0.00    -0.108 NA
ATOM     11  N   UNL     1      -3.034 -15.013  13.158  0.00  0.00    -0.023 NA
ATOM     19  C   UNL     1      -3.123 -12.964  12.535  0.00  0.00    +0.182 A 
BRANCH  19  21
ATOM     21  C   UNL     1      -2.974 -11.713  11.837  0.00  0.00    +0.021 A 
ATOM     22  C   UNL     1      -1.890 -10.879  12.119  0.00  0.00    +0.011 A 
ATOM     23  C   UNL     1      -3.915 -11.330  10.878  0.00  0.00    +0.011 A 
ATOM     25  C   UNL     1      -1.747  -9.667  11.444  0.00  0.00    +0.001 A 
ATOM     26  C   UNL     1      -3.770 -10.117  10.203  0.00  0.00    +0.001 A 
ATOM     27  C   UNL     1      -2.687  -9.286  10.487  0.00  0.00    +0.000 A 
ENDBRANCH  19  21
ENDBRANCH  15   8
BRANCH  16   6
ATOM      6  O   UNL     1      -5.541 -12.064  18.934  0.00  0.00    -0.442 OA
BRANCH   6  20
ATOM      7  O   UNL     1      -6.308 -10.214  20.039  0.00  0.00    -0.226 OA
ATOM     12  N   UNL     1      -7.642 -11.368  18.501  0.00  0.00    -0.251 N 
ATOM     20  C   UNL     1      -6.499 -11.118  19.235  0.00  0.00    +0.405 C 
ATOM     34  H   UNL     1      -7.609 -12.172  17.880  0.00  0.00    +0.158 HD
BRANCH  12  24
ATOM     24  C   UNL     1      -8.856 -10.643  18.506  0.00  0.00    +0.037 A 
ATOM     28  C   UNL     1      -9.067  -9.664  17.548  0.00  0.00    +0.035 A 
ATOM     29  C   UNL     1      -9.811 -10.927  19.469  0.00  0.00    +0.023 A 
ATOM     30  C   UNL     1     -10.265  -8.950  17.553  0.00  0.00    +0.057 A 
ATOM     31  C   UNL     1     -11.010 -10.212  19.474  0.00  0.00    +0.002 A 
ATOM     32  C   UNL     1     -11.237  -9.224  18.517  0.00  0.00    +0.012 A 
BRANCH  30  33
ATOM      1  F   UNL     1     -11.198  -8.339  15.437  0.00  0.00    -0.166 F 
ATOM      2  F   UNL     1      -9.363  -7.343  16.027  0.00  0.00    -0.166 F 
ATOM      3  F   UNL     1     -11.234  -6.846  17.017  0.00  0.00    -0.166 F 
ATOM     33  C   UNL     1     -10.508  -7.893  16.529  0.00  0.00    +0.417 C 
ENDBRANCH  30  33
ENDBRANCH  12  24
ENDBRANCH   6  20
ENDBRANCH  16   6
TORSDOF 6
ENDMDL
