MODEL 1
REMARK VINA RESULT:      -6.2      0.000      0.000
REMARK  Name = 25313359
REMARK  12 active torsions:
REMARK  status: ('A' for Active; 'I' for Inactive)
REMARK    1  A    between atoms: O_3  and  C_23
REMARK    2  A    between atoms: N_6  and  C_15
REMARK    3  A    between atoms: N_7  and  C_27
REMARK    4  A    between atoms: C_8  and  C_12
REMARK    5  A    between atoms: C_9  and  C_14
REMARK    6  A    between atoms: C_12  and  C_15
REMARK    7  A    between atoms: C_14  and  C_23
REMARK    8  A    between atoms: C_16  and  C_19
REMARK    9  A    between atoms: C_19  and  C_20
REMARK   10  A    between atoms: C_20  and  C_24
REMARK   11  A    between atoms: C_20  and  C_25
REMARK   12  A    between atoms: C_20  and  C_26
REMARK                            x       y       z     vdW  Elec       q    Type
REMARK                         _______ _______ _______ _____ _____    ______ ____
ROOT
ATOM      2  O   UNL     1      -9.895   9.178  17.218  0.00  0.00    -0.276 OA
ATOM      5  N   UNL     1     -11.854   8.221  18.019  0.00  0.00    -0.301 N 
ATOM      8  C   UNL     1     -13.699   8.085  19.679  0.00  0.00    +0.011 C 
ATOM      9  C   UNL     1     -13.008   6.839  20.289  0.00  0.00    +0.006 C 
ATOM     10  C   UNL     1     -13.312   8.223  18.195  0.00  0.00    +0.111 C 
ATOM     11  C   UNL     1     -11.490   6.854  20.038  0.00  0.00    +0.023 C 
ATOM     13  C   UNL     1     -11.175   7.043  18.555  0.00  0.00    +0.108 C 
ATOM     16  C   UNL     1     -11.117   9.215  17.375  0.00  0.00    +0.216 C 
ENDROOT
BRANCH   8  12
ATOM     12  C   UNL     1     -13.405   9.390  20.428  0.00  0.00    +0.020 C 
BRANCH  12  15
ATOM     15  C   UNL     1     -14.638   9.876  21.177  0.00  0.00    +0.085 C 
BRANCH  15   6
ATOM      6  N   UNL     1     -14.239  10.515  22.430  0.00  0.00    -0.299 NA
ATOM      7  N   UNL     1     -12.926  10.703  24.960  0.00  0.00    -0.327 N 
ATOM     17  C   UNL     1     -12.778  10.644  22.502  0.00  0.00    +0.103 C 
ATOM     18  C   UNL     1     -14.731   9.747  23.581  0.00  0.00    +0.103 C 
ATOM     21  C   UNL     1     -12.350  11.363  23.783  0.00  0.00    +0.120 C 
ATOM     22  C   UNL     1     -14.369  10.438  24.897  0.00  0.00    +0.120 C 
BRANCH   7  27
ATOM      1  F   UNL     1     -10.645  11.492  29.934  0.00  0.00    -0.205 F 
ATOM     27  C   UNL     1     -12.348  10.903  26.219  0.00  0.00    +0.030 A 
ATOM     28  C   UNL     1     -12.532  12.114  26.886  0.00  0.00    +0.026 A 
ATOM     29  C   UNL     1     -11.590   9.891  26.808  0.00  0.00    +0.026 A 
ATOM     30  C   UNL     1     -11.957  12.313  28.142  0.00  0.00    +0.040 A 
ATOM     31  C   UNL     1     -11.015  10.091  28.062  0.00  0.00    +0.040 A 
ATOM     32  C   UNL     1     -11.198  11.302  28.729  0.00  0.00    +0.124 A 
ENDBRANCH   7  27
ENDBRANCH  15   6
ENDBRANCH  12  15
ENDBRANCH   8  12
BRANCH   9  14
ATOM     14  C   UNL     1     -13.305   6.655  21.776  0.00  0.00    +0.124 C 
BRANCH  14  23
ATOM      4  O   UNL     1     -14.618   4.609  21.950  0.00  0.00    -0.251 OA
ATOM     23  C   UNL     1     -13.570   5.215  22.116  0.00  0.00    +0.305 C 
BRANCH  23   3
ATOM      3  O   UNL     1     -12.452   4.657  22.649  0.00  0.00    -0.481 OA
ATOM     33  H   UNL     1     -12.362   4.861  23.604  0.00  0.00    +0.295 HD
ENDBRANCH  23   3
ENDBRANCH  14  23
ENDBRANCH   9  14
BRANCH  16  19
ATOM     19  C   UNL     1     -11.891  10.399  16.853  0.00  0.00    +0.102 C 
BRANCH  19  20
ATOM     20  C   UNL     1     -11.559  11.705  17.596  0.00  0.00    -0.029 C 
ATOM     24  C   UNL     1     -10.520  12.535  16.824  0.00  0.00    +0.011 C 
ATOM     25  C   UNL     1     -11.034  11.420  19.013  0.00  0.00    +0.011 C 
ATOM     26  C   UNL     1     -12.857  12.527  17.710  0.00  0.00    +0.011 C 
ENDBRANCH  19  20
ENDBRANCH  16  19
TORSDOF 9
ENDMDL
MODEL 2
REMARK VINA RESULT:      -6.1     26.480     30.625
REMARK  Name = 25313359
REMARK  12 active torsions:
REMARK  status: ('A' for Active; 'I' for Inactive)
REMARK    1  A    between atoms: O_3  and  C_23
REMARK    2  A    between atoms: N_6  and  C_15
REMARK    3  A    between atoms: N_7  and  C_27
REMARK    4  A    between atoms: C_8  and  C_12
REMARK    5  A    between atoms: C_9  and  C_14
REMARK    6  A    between atoms: C_12  and  C_15
REMARK    7  A    between atoms: C_14  and  C_23
REMARK    8  A    between atoms: C_16  and  C_19
REMARK    9  A    between atoms: C_19  and  C_20
REMARK   10  A    between atoms: C_20  and  C_24
REMARK   11  A    between atoms: C_20  and  C_25
REMARK   12  A    between atoms: C_20  and  C_26
REMARK                            x       y       z     vdW  Elec       q    Type
REMARK                         _______ _______ _______ _____ _____    ______ ____
ROOT
ATOM      2  O   UNL     1       8.496  10.394   5.694  0.00  0.00    -0.276 OA
ATOM      5  N   UNL     1       9.884   8.707   6.482  0.00  0.00    -0.301 N 
ATOM      8  C   UNL     1      10.507   6.311   6.691  0.00  0.00    +0.011 C 
ATOM      9  C   UNL     1       9.943   6.328   8.134  0.00  0.00    +0.006 C 
ATOM     10  C   UNL     1      10.959   7.726   6.289  0.00  0.00    +0.111 C 
ATOM     11  C   UNL     1       8.855   7.403   8.304  0.00  0.00    +0.023 C 
ATOM     13  C   UNL     1       9.352   8.771   7.843  0.00  0.00    +0.108 C 
ATOM     16  C   UNL     1       9.383   9.561   5.500  0.00  0.00    +0.216 C 
ENDROOT
BRANCH   8  12
ATOM     12  C   UNL     1       9.534   5.748   5.648  0.00  0.00    +0.020 C 
BRANCH  12  15
ATOM     15  C   UNL     1      10.160   4.585   4.893  0.00  0.00    +0.085 C 
BRANCH  15   6
ATOM      6  N   UNL     1      10.555   5.017   3.552  0.00  0.00    -0.299 NA
ATOM      7  N   UNL     1      12.127   5.011   1.168  0.00  0.00    -0.327 N 
ATOM     17  C   UNL     1      10.460   3.901   2.603  0.00  0.00    +0.103 C 
ATOM     18  C   UNL     1      11.923   5.549   3.564  0.00  0.00    +0.103 C 
ATOM     21  C   UNL     1      10.816   4.354   1.184  0.00  0.00    +0.120 C 
ATOM     22  C   UNL     1      12.326   6.058   2.178  0.00  0.00    +0.120 C 
BRANCH   7  27
ATOM      1  F   UNL     1      14.930   5.418  -3.580  0.00  0.00    -0.205 F 
ATOM     27  C   UNL     1      12.837   5.114  -0.034  0.00  0.00    +0.030 A 
ATOM     28  C   UNL     1      13.931   4.281  -0.272  0.00  0.00    +0.026 A 
ATOM     29  C   UNL     1      12.450   6.049  -0.994  0.00  0.00    +0.026 A 
ATOM     30  C   UNL     1      14.637   4.383  -1.470  0.00  0.00    +0.040 A 
ATOM     31  C   UNL     1      13.158   6.151  -2.192  0.00  0.00    +0.040 A 
ATOM     32  C   UNL     1      14.252   5.319  -2.430  0.00  0.00    +0.124 A 
ENDBRANCH   7  27
ENDBRANCH  15   6
ENDBRANCH  12  15
ENDBRANCH   8  12
BRANCH   9  14
ATOM     14  C   UNL     1       9.429   4.965   8.595  0.00  0.00    +0.124 C 
BRANCH  14  23
ATOM      4  O   UNL     1      10.494   4.768  10.778  0.00  0.00    -0.251 OA
ATOM     23  C   UNL     1       9.485   4.826  10.091  0.00  0.00    +0.305 C 
BRANCH  23   3
ATOM      3  O   UNL     1       8.225   4.772  10.594  0.00  0.00    -0.481 OA
ATOM     33  H   UNL     1       8.094   3.990  11.171  0.00  0.00    +0.295 HD
ENDBRANCH  23   3
ENDBRANCH  14  23
ENDBRANCH   9  14
BRANCH  16  19
ATOM     19  C   UNL     1       9.983   9.430   4.122  0.00  0.00    +0.102 C 
BRANCH  19  20
ATOM     20  C   UNL     1       8.953   9.006   3.060  0.00  0.00    -0.029 C 
ATOM     24  C   UNL     1       9.596   8.110   1.988  0.00  0.00    +0.011 C 
ATOM     25  C   UNL     1       8.314  10.231   2.384  0.00  0.00    +0.011 C 
ATOM     26  C   UNL     1       7.845   8.205   3.770  0.00  0.00    +0.011 C 
ENDBRANCH  19  20
ENDBRANCH  16  19
TORSDOF 9
ENDMDL
MODEL 3
REMARK VINA RESULT:      -5.9     21.304     22.826
REMARK  Name = 25313359
REMARK  12 active torsions:
REMARK  status: ('A' for Active; 'I' for Inactive)
REMARK    1  A    between atoms: O_3  and  C_23
REMARK    2  A    between atoms: N_6  and  C_15
REMARK    3  A    between atoms: N_7  and  C_27
REMARK    4  A    between atoms: C_8  and  C_12
REMARK    5  A    between atoms: C_9  and  C_14
REMARK    6  A    between atoms: C_12  and  C_15
REMARK    7  A    between atoms: C_14  and  C_23
REMARK    8  A    between atoms: C_16  and  C_19
REMARK    9  A    between atoms: C_19  and  C_20
REMARK   10  A    between atoms: C_20  and  C_24
REMARK   11  A    between atoms: C_20  and  C_25
REMARK   12  A    between atoms: C_20  and  C_26
REMARK                            x       y       z     vdW  Elec       q    Type
REMARK                         _______ _______ _______ _____ _____    ______ ____
ROOT
ATOM      2  O   UNL     1      -2.377  -9.912  12.271  0.00  0.00    -0.276 OA
ATOM      5  N   UNL     1      -3.628 -11.182  13.759  0.00  0.00    -0.301 N 
ATOM      8  C   UNL     1      -5.245 -11.385  15.635  0.00  0.00    +0.011 C 
ATOM      9  C   UNL     1      -4.057 -11.711  16.575  0.00  0.00    +0.006 C 
ATOM     10  C   UNL     1      -4.895 -11.787  14.191  0.00  0.00    +0.111 C 
ATOM     11  C   UNL     1      -2.743 -11.101  16.059  0.00  0.00    +0.023 C 
ATOM     13  C   UNL     1      -2.480 -11.498  14.608  0.00  0.00    +0.108 C 
ATOM     16  C   UNL     1      -3.457 -10.387  12.626  0.00  0.00    +0.216 C 
ENDROOT
BRANCH   8  12
ATOM     12  C   UNL     1      -5.696  -9.920  15.685  0.00  0.00    +0.020 C 
BRANCH  12  15
ATOM     15  C   UNL     1      -7.210  -9.814  15.582  0.00  0.00    +0.085 C 
BRANCH  15   6
ATOM      6  N   UNL     1      -7.839 -10.669  16.588  0.00  0.00    -0.299 NA
ATOM      7  N   UNL     1      -9.786 -11.389  18.550  0.00  0.00    -0.327 N 
ATOM     17  C   UNL     1      -9.205 -11.022  16.184  0.00  0.00    +0.103 C 
ATOM     18  C   UNL     1      -7.861  -9.997  17.894  0.00  0.00    +0.103 C 
ATOM     21  C   UNL     1      -9.855 -11.963  17.202  0.00  0.00    +0.120 C 
ATOM     22  C   UNL     1      -8.464 -10.905  18.968  0.00  0.00    +0.120 C 
BRANCH   7  27
ATOM      1  F   UNL     1     -13.256 -13.172  22.467  0.00  0.00    -0.205 F 
ATOM     27  C   UNL     1     -10.665 -11.840  19.542  0.00  0.00    +0.030 A 
ATOM     28  C   UNL     1     -10.332 -12.955  20.313  0.00  0.00    +0.026 A 
ATOM     29  C   UNL     1     -11.872 -11.176  19.759  0.00  0.00    +0.026 A 
ATOM     30  C   UNL     1     -11.207 -13.404  21.302  0.00  0.00    +0.040 A 
ATOM     31  C   UNL     1     -12.746 -11.627  20.748  0.00  0.00    +0.040 A 
ATOM     32  C   UNL     1     -12.415 -12.740  21.519  0.00  0.00    +0.124 A 
ENDBRANCH   7  27
ENDBRANCH  15   6
ENDBRANCH  12  15
ENDBRANCH   8  12
BRANCH   9  14
ATOM     14  C   UNL     1      -4.308 -11.300  18.025  0.00  0.00    +0.124 C 
BRANCH  14  23
ATOM      4  O   UNL     1      -3.288 -12.210  20.044  0.00  0.00    -0.251 OA
ATOM     23  C   UNL     1      -3.882 -12.373  18.988  0.00  0.00    +0.305 C 
BRANCH  23   3
ATOM      3  O   UNL     1      -4.258 -13.589  18.514  0.00  0.00    -0.481 OA
ATOM     33  H   UNL     1      -4.097 -14.302  19.168  0.00  0.00    +0.295 HD
ENDBRANCH  23   3
ENDBRANCH  14  23
ENDBRANCH   9  14
BRANCH  16  19
ATOM     19  C   UNL     1      -4.691 -10.106  11.806  0.00  0.00    +0.102 C 
BRANCH  19  20
ATOM     20  C   UNL     1      -4.547 -10.550  10.339  0.00  0.00    -0.029 C 
ATOM     24  C   UNL     1      -3.778  -9.503   9.514  0.00  0.00    +0.011 C 
ATOM     25  C   UNL     1      -5.921 -10.798   9.695  0.00  0.00    +0.011 C 
ATOM     26  C   UNL     1      -3.752 -11.869  10.321  0.00  0.00    +0.011 C 
ENDBRANCH  19  20
ENDBRANCH  16  19
TORSDOF 9
ENDMDL
MODEL 4
REMARK VINA RESULT:      -5.9     30.747     32.478
REMARK  Name = 25313359
REMARK  12 active torsions:
REMARK  status: ('A' for Active; 'I' for Inactive)
REMARK    1  A    between atoms: O_3  and  C_23
REMARK    2  A    between atoms: N_6  and  C_15
REMARK    3  A    between atoms: N_7  and  C_27
REMARK    4  A    between atoms: C_8  and  C_12
REMARK    5  A    between atoms: C_9  and  C_14
REMARK    6  A    between atoms: C_12  and  C_15
REMARK    7  A    between atoms: C_14  and  C_23
REMARK    8  A    between atoms: C_16  and  C_19
REMARK    9  A    between atoms: C_19  and  C_20
REMARK   10  A    between atoms: C_20  and  C_24
REMARK   11  A    between atoms: C_20  and  C_25
REMARK   12  A    between atoms: C_20  and  C_26
REMARK                            x       y       z     vdW  Elec       q    Type
REMARK                         _______ _______ _______ _____ _____    ______ ____
ROOT
ATOM      2  O   UNL     1      20.853   6.590  25.683  0.00  0.00    -0.276 OA
ATOM      5  N   UNL     1      22.018   6.212  23.709  0.00  0.00    -0.301 N 
ATOM      8  C   UNL     1      22.124   5.440  21.349  0.00  0.00    +0.011 C 
ATOM      9  C   UNL     1      22.821   4.148  21.843  0.00  0.00    +0.006 C 
ATOM     10  C   UNL     1      22.391   6.589  22.340  0.00  0.00    +0.111 C 
ATOM     11  C   UNL     1      22.441   3.818  23.297  0.00  0.00    +0.023 C 
ATOM     13  C   UNL     1      22.684   5.013  24.217  0.00  0.00    +0.108 C 
ATOM     16  C   UNL     1      21.130   6.913  24.526  0.00  0.00    +0.216 C 
ENDROOT
BRANCH   8  12
ATOM     12  C   UNL     1      20.617   5.284  21.111  0.00  0.00    +0.020 C 
BRANCH  12  15
ATOM     15  C   UNL     1      20.019   6.568  20.556  0.00  0.00    +0.085 C 
BRANCH  15   6
ATOM      6  N   UNL     1      18.567   6.556  20.730  0.00  0.00    -0.299 NA
ATOM      7  N   UNL     1      15.871   7.346  20.210  0.00  0.00    -0.327 N 
ATOM     17  C   UNL     1      17.901   6.154  19.485  0.00  0.00    +0.103 C 
ATOM     18  C   UNL     1      18.087   7.880  21.148  0.00  0.00    +0.103 C 
ATOM     21  C   UNL     1      16.383   6.083  19.670  0.00  0.00    +0.120 C 
ATOM     22  C   UNL     1      16.576   7.865  21.390  0.00  0.00    +0.120 C 
BRANCH   7  27
ATOM      1  F   UNL     1      10.524   8.614  19.614  0.00  0.00    -0.205 F 
ATOM     27  C   UNL     1      14.517   7.667  20.060  0.00  0.00    +0.030 A 
ATOM     28  C   UNL     1      13.854   7.353  18.873  0.00  0.00    +0.026 A 
ATOM     29  C   UNL     1      13.831   8.301  21.095  0.00  0.00    +0.026 A 
ATOM     30  C   UNL     1      12.505   7.672  18.723  0.00  0.00    +0.040 A 
ATOM     31  C   UNL     1      12.482   8.620  20.944  0.00  0.00    +0.040 A 
ATOM     32  C   UNL     1      11.819   8.307  19.758  0.00  0.00    +0.124 A 
ENDBRANCH   7  27
ENDBRANCH  15   6
ENDBRANCH  12  15
ENDBRANCH   8  12
BRANCH   9  14
ATOM     14  C   UNL     1      22.568   2.944  20.935  0.00  0.00    +0.124 C 
BRANCH  14  23
ATOM      4  O   UNL     1      24.349   1.335  21.357  0.00  0.00    -0.251 OA
ATOM     23  C   UNL     1      23.835   2.188  20.649  0.00  0.00    +0.305 C 
BRANCH  23   3
ATOM      3  O   UNL     1      24.349   2.591  19.458  0.00  0.00    -0.481 OA
ATOM     33  H   UNL     1      25.139   2.067  19.204  0.00  0.00    +0.295 HD
ENDBRANCH  23   3
ENDBRANCH  14  23
ENDBRANCH   9  14
BRANCH  16  19
ATOM     19  C   UNL     1      20.484   8.136  23.928  0.00  0.00    +0.102 C 
BRANCH  19  20
ATOM     20  C   UNL     1      21.183   9.444  24.340  0.00  0.00    -0.029 C 
ATOM     24  C   UNL     1      22.623   9.179  24.813  0.00  0.00    +0.011 C 
ATOM     25  C   UNL     1      20.404  10.163  25.455  0.00  0.00    +0.011 C 
ATOM     26  C   UNL     1      21.232  10.363  23.106  0.00  0.00    +0.011 C 
ENDBRANCH  19  20
ENDBRANCH  16  19
TORSDOF 9
ENDMDL
MODEL 5
REMARK VINA RESULT:      -5.9      1.202      2.113
REMARK  Name = 25313359
REMARK  12 active torsions:
REMARK  status: ('A' for Active; 'I' for Inactive)
REMARK    1  A    between atoms: O_3  and  C_23
REMARK    2  A    between atoms: N_6  and  C_15
REMARK    3  A    between atoms: N_7  and  C_27
REMARK    4  A    between atoms: C_8  and  C_12
REMARK    5  A    between atoms: C_9  and  C_14
REMARK    6  A    between atoms: C_12  and  C_15
REMARK    7  A    between atoms: C_14  and  C_23
REMARK    8  A    between atoms: C_16  and  C_19
REMARK    9  A    between atoms: C_19  and  C_20
REMARK   10  A    between atoms: C_20  and  C_24
REMARK   11  A    between atoms: C_20  and  C_25
REMARK   12  A    between atoms: C_20  and  C_26
REMARK                            x       y       z     vdW  Elec       q    Type
REMARK                         _______ _______ _______ _____ _____    ______ ____
ROOT
ATOM      2  O   UNL     1      -9.588   9.381  18.662  0.00  0.00    -0.276 OA
ATOM      5  N   UNL     1     -11.771   8.842  19.243  0.00  0.00    -0.301 N 
ATOM      8  C   UNL     1     -13.614   8.685  20.902  0.00  0.00    +0.011 C 
ATOM      9  C   UNL     1     -13.367   7.157  20.976  0.00  0.00    +0.006 C 
ATOM     10  C   UNL     1     -13.160   9.222  19.533  0.00  0.00    +0.111 C 
ATOM     11  C   UNL     1     -11.914   6.800  20.617  0.00  0.00    +0.023 C 
ATOM     13  C   UNL     1     -11.512   7.404  19.273  0.00  0.00    +0.108 C 
ATOM     16  C   UNL     1     -10.741   9.728  18.927  0.00  0.00    +0.216 C 
ENDROOT
BRANCH   8  12
ATOM     12  C   UNL     1     -12.949   9.480  22.032  0.00  0.00    +0.020 C 
BRANCH  12  15
ATOM     15  C   UNL     1     -13.992  10.036  22.991  0.00  0.00    +0.085 C 
BRANCH  15   6
ATOM      6  N   UNL     1     -13.422  10.151  24.334  0.00  0.00    -0.299 NA
ATOM      7  N   UNL     1     -12.500  11.516  26.667  0.00  0.00    -0.327 N 
ATOM     17  C   UNL     1     -14.377  10.792  25.246  0.00  0.00    +0.103 C 
ATOM     18  C   UNL     1     -12.171  10.919  24.298  0.00  0.00    +0.103 C 
ATOM     21  C   UNL     1     -13.815  10.868  26.667  0.00  0.00    +0.120 C 
ATOM     22  C   UNL     1     -11.536  10.996  25.689  0.00  0.00    +0.120 C 
BRANCH   7  27
ATOM      1  F   UNL     1     -10.526  13.716  31.339  0.00  0.00    -0.205 F 
ATOM     27  C   UNL     1     -12.000  12.073  27.850  0.00  0.00    +0.030 A 
ATOM     28  C   UNL     1     -11.479  11.245  28.845  0.00  0.00    +0.026 A 
ATOM     29  C   UNL     1     -12.023  13.456  28.034  0.00  0.00    +0.026 A 
ATOM     30  C   UNL     1     -10.980  11.800  30.023  0.00  0.00    +0.040 A 
ATOM     31  C   UNL     1     -11.525  14.010  29.213  0.00  0.00    +0.040 A 
ATOM     32  C   UNL     1     -11.004  13.182  30.207  0.00  0.00    +0.124 A 
ENDBRANCH   7  27
ENDBRANCH  15   6
ENDBRANCH  12  15
ENDBRANCH   8  12
BRANCH   9  14
ATOM     14  C   UNL     1     -13.751   6.550  22.326  0.00  0.00    +0.124 C 
BRANCH  14  23
ATOM      4  O   UNL     1     -14.671   4.362  21.772  0.00  0.00    -0.251 OA
ATOM     23  C   UNL     1     -13.790   5.049  22.269  0.00  0.00    +0.305 C 
BRANCH  23   3
ATOM      3  O   UNL     1     -12.680   4.539  22.862  0.00  0.00    -0.481 OA
ATOM     33  H   UNL     1     -12.062   5.245  23.150  0.00  0.00    +0.295 HD
ENDBRANCH  23   3
ENDBRANCH  14  23
ENDBRANCH   9  14
BRANCH  16  19
ATOM     19  C   UNL     1     -11.089  11.195  18.919  0.00  0.00    +0.102 C 
BRANCH  19  20
ATOM     20  C   UNL     1     -11.000  11.823  17.517  0.00  0.00    -0.029 C 
ATOM     24  C   UNL     1     -11.385  10.808  16.427  0.00  0.00    +0.011 C 
ATOM     25  C   UNL     1      -9.585  12.359  17.237  0.00  0.00    +0.011 C 
ATOM     26  C   UNL     1     -11.990  13.002  17.463  0.00  0.00    +0.011 C 
ENDBRANCH  19  20
ENDBRANCH  16  19
TORSDOF 9
ENDMDL
MODEL 6
REMARK VINA RESULT:      -5.9     30.552     32.216
REMARK  Name = 25313359
REMARK  12 active torsions:
REMARK  status: ('A' for Active; 'I' for Inactive)
REMARK    1  A    between atoms: O_3  and  C_23
REMARK    2  A    between atoms: N_6  and  C_15
REMARK    3  A    between atoms: N_7  and  C_27
REMARK    4  A    between atoms: C_8  and  C_12
REMARK    5  A    between atoms: C_9  and  C_14
REMARK    6  A    between atoms: C_12  and  C_15
REMARK    7  A    between atoms: C_14  and  C_23
REMARK    8  A    between atoms: C_16  and  C_19
REMARK    9  A    between atoms: C_19  and  C_20
REMARK   10  A    between atoms: C_20  and  C_24
REMARK   11  A    between atoms: C_20  and  C_25
REMARK   12  A    between atoms: C_20  and  C_26
REMARK                            x       y       z     vdW  Elec       q    Type
REMARK                         _______ _______ _______ _____ _____    ______ ____
ROOT
ATOM      2  O   UNL     1      22.849   9.735  23.166  0.00  0.00    -0.276 OA
ATOM      5  N   UNL     1      22.926   8.098  21.521  0.00  0.00    -0.301 N 
ATOM      8  C   UNL     1      21.972   6.114  20.367  0.00  0.00    +0.011 C 
ATOM      9  C   UNL     1      23.021   5.234  21.094  0.00  0.00    +0.006 C 
ATOM     10  C   UNL     1      22.505   7.551  20.224  0.00  0.00    +0.111 C 
ATOM     11  C   UNL     1      23.470   5.868  22.421  0.00  0.00    +0.023 C 
ATOM     13  C   UNL     1      23.940   7.307  22.217  0.00  0.00    +0.108 C 
ATOM     16  C   UNL     1      22.460   9.284  22.087  0.00  0.00    +0.216 C 
ENDROOT
BRANCH   8  12
ATOM     12  C   UNL     1      20.593   6.122  21.038  0.00  0.00    +0.020 C 
BRANCH  12  15
ATOM     15  C   UNL     1      19.557   5.439  20.158  0.00  0.00    +0.085 C 
BRANCH  15   6
ATOM      6  N   UNL     1      18.349   6.261  20.082  0.00  0.00    -0.299 NA
ATOM      7  N   UNL     1      15.559   6.825  20.318  0.00  0.00    -0.327 N 
ATOM     17  C   UNL     1      17.725   6.384  21.405  0.00  0.00    +0.103 C 
ATOM     18  C   UNL     1      17.392   5.684  19.129  0.00  0.00    +0.103 C 
ATOM     21  C   UNL     1      16.492   7.289  21.350  0.00  0.00    +0.120 C 
ATOM     22  C   UNL     1      16.149   6.567  18.998  0.00  0.00    +0.120 C 
BRANCH   7  27
ATOM      1  F   UNL     1      10.249   8.348  20.533  0.00  0.00    -0.205 F 
ATOM     27  C   UNL     1      14.215   7.211  20.373  0.00  0.00    +0.030 A 
ATOM     28  C   UNL     1      13.441   7.209  19.211  0.00  0.00    +0.026 A 
ATOM     29  C   UNL     1      13.648   7.596  21.587  0.00  0.00    +0.026 A 
ATOM     30  C   UNL     1      12.101   7.592  19.266  0.00  0.00    +0.040 A 
ATOM     31  C   UNL     1      12.309   7.981  21.641  0.00  0.00    +0.040 A 
ATOM     32  C   UNL     1      11.535   7.979  20.480  0.00  0.00    +0.124 A 
ENDBRANCH   7  27
ENDBRANCH  15   6
ENDBRANCH  12  15
ENDBRANCH   8  12
BRANCH   9  14
ATOM     14  C   UNL     1      22.549   3.797  21.316  0.00  0.00    +0.124 C 
BRANCH  14  23
ATOM      4  O   UNL     1      24.460   2.484  22.070  0.00  0.00    -0.251 OA
ATOM     23  C   UNL     1      23.680   2.815  21.189  0.00  0.00    +0.305 C 
BRANCH  23   3
ATOM      3  O   UNL     1      23.723   2.328  19.922  0.00  0.00    -0.481 OA
ATOM     33  H   UNL     1      24.642   2.160  19.625  0.00  0.00    +0.295 HD
ENDBRANCH  23   3
ENDBRANCH  14  23
ENDBRANCH   9  14
BRANCH  16  19
ATOM     19  C   UNL     1      21.414  10.040  21.307  0.00  0.00    +0.102 C 
BRANCH  19  20
ATOM     20  C   UNL     1      20.072  10.143  22.053  0.00  0.00    -0.029 C 
ATOM     24  C   UNL     1      19.990  11.443  22.873  0.00  0.00    +0.011 C 
ATOM     25  C   UNL     1      19.859   8.939  22.986  0.00  0.00    +0.011 C 
ATOM     26  C   UNL     1      18.946  10.154  21.002  0.00  0.00    +0.011 C 
ENDBRANCH  19  20
ENDBRANCH  16  19
TORSDOF 9
ENDMDL
MODEL 7
REMARK VINA RESULT:      -5.8     26.895     30.439
REMARK  Name = 25313359
REMARK  12 active torsions:
REMARK  status: ('A' for Active; 'I' for Inactive)
REMARK    1  A    between atoms: O_3  and  C_23
REMARK    2  A    between atoms: N_6  and  C_15
REMARK    3  A    between atoms: N_7  and  C_27
REMARK    4  A    between atoms: C_8  and  C_12
REMARK    5  A    between atoms: C_9  and  C_14
REMARK    6  A    between atoms: C_12  and  C_15
REMARK    7  A    between atoms: C_14  and  C_23
REMARK    8  A    between atoms: C_16  and  C_19
REMARK    9  A    between atoms: C_19  and  C_20
REMARK   10  A    between atoms: C_20  and  C_24
REMARK   11  A    between atoms: C_20  and  C_25
REMARK   12  A    between atoms: C_20  and  C_26
REMARK                            x       y       z     vdW  Elec       q    Type
REMARK                         _______ _______ _______ _____ _____    ______ ____
ROOT
ATOM      2  O   UNL     1       8.268   8.018   2.691  0.00  0.00    -0.276 OA
ATOM      5  N   UNL     1       8.366   8.152   5.008  0.00  0.00    -0.301 N 
ATOM      8  C   UNL     1       9.641   8.262   7.138  0.00  0.00    +0.011 C 
ATOM      9  C   UNL     1       9.294   6.772   7.380  0.00  0.00    +0.006 C 
ATOM     10  C   UNL     1       8.566   8.912   6.249  0.00  0.00    +0.111 C 
ATOM     11  C   UNL     1       9.044   6.027   6.057  0.00  0.00    +0.023 C 
ATOM     13  C   UNL     1       8.004   6.749   5.202  0.00  0.00    +0.108 C 
ATOM     16  C   UNL     1       8.466   8.672   3.717  0.00  0.00    +0.216 C 
ENDROOT
BRANCH   8  12
ATOM     12  C   UNL     1      11.034   8.488   6.538  0.00  0.00    +0.020 C 
BRANCH  12  15
ATOM     15  C   UNL     1      11.801   9.540   7.327  0.00  0.00    +0.085 C 
BRANCH  15   6
ATOM      6  N   UNL     1      13.239   9.291   7.220  0.00  0.00    -0.299 NA
ATOM      7  N   UNL     1      15.726   8.905   5.870  0.00  0.00    -0.327 N 
ATOM     17  C   UNL     1      13.909  10.418   6.561  0.00  0.00    +0.103 C 
ATOM     18  C   UNL     1      13.494   8.052   6.476  0.00  0.00    +0.103 C 
ATOM     21  C   UNL     1      15.422  10.196   6.495  0.00  0.00    +0.120 C 
ATOM     22  C   UNL     1      14.993   7.751   6.408  0.00  0.00    +0.120 C 
BRANCH   7  27
ATOM      1  F   UNL     1      20.732   8.017   3.699  0.00  0.00    -0.205 F 
ATOM     27  C   UNL     1      16.993   8.680   5.321  0.00  0.00    +0.030 A 
ATOM     28  C   UNL     1      17.124   8.410   3.958  0.00  0.00    +0.026 A 
ATOM     29  C   UNL     1      18.125   8.726   6.135  0.00  0.00    +0.026 A 
ATOM     30  C   UNL     1      18.388   8.187   3.410  0.00  0.00    +0.040 A 
ATOM     31  C   UNL     1      19.388   8.502   5.586  0.00  0.00    +0.040 A 
ATOM     32  C   UNL     1      19.519   8.232   4.224  0.00  0.00    +0.124 A 
ENDBRANCH   7  27
ENDBRANCH  15   6
ENDBRANCH  12  15
ENDBRANCH   8  12
BRANCH   9  14
ATOM     14  C   UNL     1      10.339   6.039   8.220  0.00  0.00    +0.124 C 
BRANCH  14  23
ATOM      4  O   UNL     1       8.960   4.822   9.819  0.00  0.00    -0.251 OA
ATOM     23  C   UNL     1       9.760   4.828   8.895  0.00  0.00    +0.305 C 
BRANCH  23   3
ATOM      3  O   UNL     1      10.260   3.702   8.323  0.00  0.00    -0.481 OA
ATOM     33  H   UNL     1      10.995   3.320   8.849  0.00  0.00    +0.295 HD
ENDBRANCH  23   3
ENDBRANCH  14  23
ENDBRANCH   9  14
BRANCH  16  19
ATOM     19  C   UNL     1       8.845  10.127   3.603  0.00  0.00    +0.102 C 
BRANCH  19  20
ATOM     20  C   UNL     1      10.296  10.330   3.131  0.00  0.00    -0.029 C 
ATOM     24  C   UNL     1      11.058   8.995   3.084  0.00  0.00    +0.011 C 
ATOM     25  C   UNL     1      11.046  11.313   4.047  0.00  0.00    +0.011 C 
ATOM     26  C   UNL     1      10.253  10.921   1.709  0.00  0.00    +0.011 C 
ENDBRANCH  19  20
ENDBRANCH  16  19
TORSDOF 9
ENDMDL
MODEL 8
REMARK VINA RESULT:      -5.8     26.857     31.063
REMARK  Name = 25313359
REMARK  12 active torsions:
REMARK  status: ('A' for Active; 'I' for Inactive)
REMARK    1  A    between atoms: O_3  and  C_23
REMARK    2  A    between atoms: N_6  and  C_15
REMARK    3  A    between atoms: N_7  and  C_27
REMARK    4  A    between atoms: C_8  and  C_12
REMARK    5  A    between atoms: C_9  and  C_14
REMARK    6  A    between atoms: C_12  and  C_15
REMARK    7  A    between atoms: C_14  and  C_23
REMARK    8  A    between atoms: C_16  and  C_19
REMARK    9  A    between atoms: C_19  and  C_20
REMARK   10  A    between atoms: C_20  and  C_24
REMARK   11  A    between atoms: C_20  and  C_25
REMARK   12  A    between atoms: C_20  and  C_26
REMARK                            x       y       z     vdW  Elec       q    Type
REMARK                         _______ _______ _______ _____ _____    ______ ____
ROOT
ATOM      2  O   UNL     1      10.219  11.194   5.614  0.00  0.00    -0.276 OA
ATOM      5  N   UNL     1      10.914   9.293   6.753  0.00  0.00    -0.301 N 
ATOM      8  C   UNL     1      11.068   6.825   6.994  0.00  0.00    +0.011 C 
ATOM      9  C   UNL     1       9.963   6.898   8.077  0.00  0.00    +0.006 C 
ATOM     10  C   UNL     1      11.831   8.160   6.933  0.00  0.00    +0.111 C 
ATOM     11  C   UNL     1       9.057   8.126   7.880  0.00  0.00    +0.023 C 
ATOM     13  C   UNL     1       9.878   9.410   7.779  0.00  0.00    +0.108 C 
ATOM     16  C   UNL     1      10.986  10.236   5.728  0.00  0.00    +0.216 C 
ENDROOT
BRANCH   8  12
ATOM     12  C   UNL     1      10.551   6.444   5.601  0.00  0.00    +0.020 C 
BRANCH  12  15
ATOM     15  C   UNL     1      11.696   6.357   4.602  0.00  0.00    +0.085 C 
BRANCH  15   6
ATOM      6  N   UNL     1      11.179   5.993   3.283  0.00  0.00    -0.299 NA
ATOM      7  N   UNL     1      11.264   4.818   0.682  0.00  0.00    -0.327 N 
ATOM     17  C   UNL     1      11.146   4.534   3.126  0.00  0.00    +0.103 C 
ATOM     18  C   UNL     1      12.001   6.593   2.224  0.00  0.00    +0.103 C 
ATOM     21  C   UNL     1      10.554   4.139   1.771  0.00  0.00    +0.120 C 
ATOM     22  C   UNL     1      11.435   6.267   0.840  0.00  0.00    +0.120 C 
BRANCH   7  27
ATOM      1  F   UNL     1      10.996   2.782  -4.451  0.00  0.00    -0.205 F 
ATOM     27  C   UNL     1      11.197   4.302  -0.618  0.00  0.00    +0.030 A 
ATOM     28  C   UNL     1      10.249   4.796  -1.515  0.00  0.00    +0.026 A 
ATOM     29  C   UNL     1      12.076   3.295  -1.016  0.00  0.00    +0.026 A 
ATOM     30  C   UNL     1      10.182   4.283  -2.811  0.00  0.00    +0.040 A 
ATOM     31  C   UNL     1      12.008   2.782  -2.311  0.00  0.00    +0.040 A 
ATOM     32  C   UNL     1      11.061   3.276  -3.208  0.00  0.00    +0.124 A 
ENDBRANCH   7  27
ENDBRANCH  15   6
ENDBRANCH  12  15
ENDBRANCH   8  12
BRANCH   9  14
ATOM     14  C   UNL     1       9.127   5.623   8.171  0.00  0.00    +0.124 C 
BRANCH  14  23
ATOM      4  O   UNL     1       9.952   4.541  10.194  0.00  0.00    -0.251 OA
ATOM     23  C   UNL     1       9.821   4.561   8.979  0.00  0.00    +0.305 C 
BRANCH  23   3
ATOM      3  O   UNL     1      10.298   3.595   8.152  0.00  0.00    -0.481 OA
ATOM     33  H   UNL     1      10.037   3.751   7.219  0.00  0.00    +0.295 HD
ENDBRANCH  23   3
ENDBRANCH  14  23
ENDBRANCH   9  14
BRANCH  16  19
ATOM     19  C   UNL     1      12.081  10.044   4.709  0.00  0.00    +0.102 C 
BRANCH  19  20
ATOM     20  C   UNL     1      13.253  11.023   4.900  0.00  0.00    -0.029 C 
ATOM     24  C   UNL     1      13.378  11.462   6.369  0.00  0.00    +0.011 C 
ATOM     25  C   UNL     1      13.090  12.266   4.009  0.00  0.00    +0.011 C 
ATOM     26  C   UNL     1      14.548  10.295   4.493  0.00  0.00    +0.011 C 
ENDBRANCH  19  20
ENDBRANCH  16  19
TORSDOF 9
ENDMDL
MODEL 9
REMARK VINA RESULT:      -5.8     20.233     23.838
REMARK  Name = 25313359
REMARK  12 active torsions:
REMARK  status: ('A' for Active; 'I' for Inactive)
REMARK    1  A    between atoms: O_3  and  C_23
REMARK    2  A    between atoms: N_6  and  C_15
REMARK    3  A    between atoms: N_7  and  C_27
REMARK    4  A    between atoms: C_8  and  C_12
REMARK    5  A    between atoms: C_9  and  C_14
REMARK    6  A    between atoms: C_12  and  C_15
REMARK    7  A    between atoms: C_14  and  C_23
REMARK    8  A    between atoms: C_16  and  C_19
REMARK    9  A    between atoms: C_19  and  C_20
REMARK   10  A    between atoms: C_20  and  C_24
REMARK   11  A    between atoms: C_20  and  C_25
REMARK   12  A    between atoms: C_20  and  C_26
REMARK                            x       y       z     vdW  Elec       q    Type
REMARK                         _______ _______ _______ _____ _____    ______ ____
ROOT
ATOM      2  O   UNL     1      -8.171 -11.547  18.119  0.00  0.00    -0.276 OA
ATOM      5  N   UNL     1      -6.451 -10.447  17.012  0.00  0.00    -0.301 N 
ATOM      8  C   UNL     1      -4.718 -10.333  15.235  0.00  0.00    +0.011 C 
ATOM      9  C   UNL     1      -3.645 -10.629  16.313  0.00  0.00    +0.006 C 
ATOM     10  C   UNL     1      -5.940  -9.658  15.884  0.00  0.00    +0.111 C 
ATOM     11  C   UNL     1      -4.235 -11.413  17.499  0.00  0.00    +0.023 C 
ATOM     13  C   UNL     1      -5.471 -10.716  18.064  0.00  0.00    +0.108 C 
ATOM     16  C   UNL     1      -7.760 -10.908  17.148  0.00  0.00    +0.216 C 
ENDROOT
BRANCH   8  12
ATOM     12  C   UNL     1      -5.154 -11.567  14.435  0.00  0.00    +0.020 C 
BRANCH  12  15
ATOM     15  C   UNL     1      -4.389 -11.663  13.124  0.00  0.00    +0.085 C 
BRANCH  15   6
ATOM      6  N   UNL     1      -4.864 -10.639  12.194  0.00  0.00    -0.299 NA
ATOM      7  N   UNL     1      -6.154  -9.643   9.848  0.00  0.00    -0.327 N 
ATOM     17  C   UNL     1      -6.326 -10.694  12.069  0.00  0.00    +0.103 C 
ATOM     18  C   UNL     1      -4.242 -10.812  10.875  0.00  0.00    +0.103 C 
ATOM     21  C   UNL     1      -6.842  -9.591  11.142  0.00  0.00    +0.120 C 
ATOM     22  C   UNL     1      -4.688  -9.711   9.909  0.00  0.00    +0.120 C 
BRANCH   7  27
ATOM      1  F   UNL     1      -8.458  -7.264   5.422  0.00  0.00    -0.205 F 
ATOM     27  C   UNL     1      -6.737  -9.041   8.727  0.00  0.00    +0.030 A 
ATOM     28  C   UNL     1      -7.558  -7.924   8.884  0.00  0.00    +0.026 A 
ATOM     29  C   UNL     1      -6.498  -9.557   7.453  0.00  0.00    +0.026 A 
ATOM     30  C   UNL     1      -8.139  -7.323   7.767  0.00  0.00    +0.040 A 
ATOM     31  C   UNL     1      -7.079  -8.956   6.337  0.00  0.00    +0.040 A 
ATOM     32  C   UNL     1      -7.900  -7.839   6.494  0.00  0.00    +0.124 A 
ENDBRANCH   7  27
ENDBRANCH  15   6
ENDBRANCH  12  15
ENDBRANCH   8  12
BRANCH   9  14
ATOM     14  C   UNL     1      -2.414 -11.343  15.757  0.00  0.00    +0.124 C 
BRANCH  14  23
ATOM      4  O   UNL     1      -1.388  -9.759  14.214  0.00  0.00    -0.251 OA
ATOM     23  C   UNL     1      -1.377 -10.367  15.274  0.00  0.00    +0.305 C 
BRANCH  23   3
ATOM      3  O   UNL     1      -0.394 -10.246  16.204  0.00  0.00    -0.481 OA
ATOM     33  H   UNL     1      -0.744 -10.318  17.118  0.00  0.00    +0.295 HD
ENDBRANCH  23   3
ENDBRANCH  14  23
ENDBRANCH   9  14
BRANCH  16  19
ATOM     19  C   UNL     1      -8.708 -10.591  16.019  0.00  0.00    +0.102 C 
BRANCH  19  20
ATOM     20  C   UNL     1      -9.807  -9.592  16.424  0.00  0.00    -0.029 C 
ATOM     24  C   UNL     1      -9.247  -8.491  17.341  0.00  0.00    +0.011 C 
ATOM     25  C   UNL     1     -10.971 -10.303  17.135  0.00  0.00    +0.011 C 
ATOM     26  C   UNL     1     -10.345  -8.935  15.139  0.00  0.00    +0.011 C 
ENDBRANCH  19  20
ENDBRANCH  16  19
TORSDOF 9
ENDMDL
MODEL 10
REMARK VINA RESULT:      -5.8     27.077     31.262
REMARK  Name = 25313359
REMARK  12 active torsions:
REMARK  status: ('A' for Active; 'I' for Inactive)
REMARK    1  A    between atoms: O_3  and  C_23
REMARK    2  A    between atoms: N_6  and  C_15
REMARK    3  A    between atoms: N_7  and  C_27
REMARK    4  A    between atoms: C_8  and  C_12
REMARK    5  A    between atoms: C_9  and  C_14
REMARK    6  A    between atoms: C_12  and  C_15
REMARK    7  A    between atoms: C_14  and  C_23
REMARK    8  A    between atoms: C_16  and  C_19
REMARK    9  A    between atoms: C_19  and  C_20
REMARK   10  A    between atoms: C_20  and  C_24
REMARK   11  A    between atoms: C_20  and  C_25
REMARK   12  A    between atoms: C_20  and  C_26
REMARK                            x       y       z     vdW  Elec       q    Type
REMARK                         _______ _______ _______ _____ _____    ______ ____
ROOT
ATOM      2  O   UNL     1       8.466  10.812   4.227  0.00  0.00    -0.276 OA
ATOM      5  N   UNL     1       9.816   9.280   5.334  0.00  0.00    -0.301 N 
ATOM      8  C   UNL     1      10.661   6.970   5.689  0.00  0.00    +0.011 C 
ATOM      9  C   UNL     1       9.762   6.875   6.948  0.00  0.00    +0.006 C 
ATOM     10  C   UNL     1      11.019   8.442   5.413  0.00  0.00    +0.111 C 
ATOM     11  C   UNL     1       8.541   7.805   6.844  0.00  0.00    +0.023 C 
ATOM     13  C   UNL     1       8.962   9.237   6.520  0.00  0.00    +0.108 C 
ATOM     16  C   UNL     1       9.470  10.097   4.258  0.00  0.00    +0.216 C 
ENDROOT
BRANCH   8  12
ATOM     12  C   UNL     1      10.051   6.327   4.438  0.00  0.00    +0.020 C 
BRANCH  12  15
ATOM     15  C   UNL     1      10.828   5.083   4.033  0.00  0.00    +0.085 C 
BRANCH  15   6
ATOM      6  N   UNL     1      11.142   5.134   2.606  0.00  0.00    -0.299 NA
ATOM      7  N   UNL     1      11.192   4.189  -0.089  0.00  0.00    -0.327 N 
ATOM     17  C   UNL     1       9.912   5.106   1.806  0.00  0.00    +0.103 C 
ATOM     18  C   UNL     1      12.010   4.011   2.229  0.00  0.00    +0.103 C 
ATOM     21  C   UNL     1      10.225   5.216   0.311  0.00  0.00    +0.120 C 
ATOM     22  C   UNL     1      12.393   4.087   0.749  0.00  0.00    +0.120 C 
BRANCH   7  27
ATOM      1  F   UNL     1      11.604   2.738  -5.408  0.00  0.00    -0.205 F 
ATOM     27  C   UNL     1      11.296   3.822  -1.436  0.00  0.00    +0.030 A 
ATOM     28  C   UNL     1      10.430   4.376  -2.379  0.00  0.00    +0.026 A 
ATOM     29  C   UNL     1      12.266   2.902  -1.835  0.00  0.00    +0.026 A 
ATOM     30  C   UNL     1      10.535   4.011  -3.721  0.00  0.00    +0.040 A 
ATOM     31  C   UNL     1      12.369   2.536  -3.177  0.00  0.00    +0.040 A 
ATOM     32  C   UNL     1      11.504   3.090  -4.120  0.00  0.00    +0.124 A 
ENDBRANCH   7  27
ENDBRANCH  15   6
ENDBRANCH  12  15
ENDBRANCH   8  12
BRANCH   9  14
ATOM     14  C   UNL     1       9.323   5.446   7.266  0.00  0.00    +0.124 C 
BRANCH  14  23
ATOM      4  O   UNL     1      10.317   5.488   9.491  0.00  0.00    -0.251 OA
ATOM     23  C   UNL     1      10.055   4.892   8.457  0.00  0.00    +0.305 C 
BRANCH  23   3
ATOM      3  O   UNL     1      10.397   3.598   8.223  0.00  0.00    -0.481 OA
ATOM     33  H   UNL     1      11.270   3.375   8.611  0.00  0.00    +0.295 HD
ENDBRANCH  23   3
ENDBRANCH  14  23
ENDBRANCH   9  14
BRANCH  16  19
ATOM     19  C   UNL     1      10.401  10.083   3.072  0.00  0.00    +0.102 C 
BRANCH  19  20
ATOM     20  C   UNL     1       9.740   9.525   1.800  0.00  0.00    -0.029 C 
ATOM     24  C   UNL     1      10.747   8.729   0.952  0.00  0.00    +0.011 C 
ATOM     25  C   UNL     1       9.134  10.653   0.947  0.00  0.00    +0.011 C 
ATOM     26  C   UNL     1       8.606   8.577   2.234  0.00  0.00    +0.011 C 
ENDBRANCH  19  20
ENDBRANCH  16  19
TORSDOF 9
ENDMDL
