REMARK  Name = 7155440
REMARK  4 active torsions:
REMARK  status: ('A' for Active; 'I' for Inactive)
REMARK    1  A    between atoms: S_1  and  N_8
REMARK    2  A    between atoms: S_1  and  C_20
REMARK    3  A    between atoms: C_17  and  C_22
REMARK    4  A    between atoms: C_27  and  C_33
REMARK                            x       y       z     vdW  Elec       q    Type
REMARK                         _______ _______ _______ _____ _____    ______ ____
ROOT
ATOM      7  O   UNL     1      -4.669  -2.992   0.577  0.00  0.00    -0.268 OA
ATOM      8  N   UNL     1       0.070  -1.611   0.168  0.00  0.00    -0.176 NA
ATOM      9  N   UNL     1      -3.042  -1.561  -0.312  0.00  0.00    -0.311 N 
ATOM     10  C   UNL     1      -1.169  -2.434  -1.829  0.00  0.00    +0.025 C 
ATOM     11  C   UNL     1      -1.260  -0.052  -1.244  0.00  0.00    +0.053 C 
ATOM     12  C   UNL     1      -1.186  -1.031  -2.413  0.00  0.00    +0.017 C 
ATOM     13  C   UNL     1       0.051  -2.632  -0.916  0.00  0.00    +0.114 C 
ATOM     14  C   UNL     1      -0.009  -0.217  -0.358  0.00  0.00    +0.119 C 
ATOM     15  C   UNL     1      -2.489  -2.674  -1.095  0.00  0.00    +0.130 C 
ATOM     16  C   UNL     1      -2.537  -0.250  -0.423  0.00  0.00    +0.034 A 
ATOM     17  C   UNL     1      -3.171   0.774   0.205  0.00  0.00    +0.002 A 
ATOM     18  C   UNL     1      -4.177  -1.869   0.458  0.00  0.00    +0.252 A 
ATOM     19  C   UNL     1      -4.343   0.493   1.013  0.00  0.00    +0.015 A 
ATOM     21  C   UNL     1      -4.827  -0.739   1.160  0.00  0.00    +0.071 A 
ENDROOT
BRANCH  17  22
ATOM     22  C   UNL     1      -2.690   2.170   0.102  0.00  0.00    -0.016 A 
ATOM     25  C   UNL     1      -1.759   2.649   1.019  0.00  0.00    +0.008 A 
ATOM     26  C   UNL     1      -3.172   2.993  -0.911  0.00  0.00    +0.008 A 
ATOM     29  C   UNL     1      -1.305   3.964   0.922  0.00  0.00    +0.001 A 
ATOM     30  C   UNL     1      -2.718   4.309  -1.008  0.00  0.00    +0.001 A 
ATOM     32  C   UNL     1      -1.785   4.794  -0.092  0.00  0.00    +0.000 A 
ENDBRANCH  17  22
BRANCH   8   1
ATOM      1  S   UNL     1       1.217  -1.869   1.411  0.00  0.00    +0.061 S 
ATOM      5  O   UNL     1       1.294  -3.286   1.698  0.00  0.00    -0.153 OA
ATOM      6  O   UNL     1       0.992  -0.906   2.468  0.00  0.00    -0.153 OA
BRANCH   1  20
ATOM     20  C   UNL     1       2.698  -1.409   0.565  0.00  0.00    +0.106 A 
ATOM     23  C   UNL     1       3.122  -0.091   0.610  0.00  0.00    +0.041 A 
ATOM     24  C   UNL     1       3.409  -2.374  -0.128  0.00  0.00    +0.028 A 
ATOM     27  C   UNL     1       4.292   0.272  -0.058  0.00  0.00    +0.057 A 
ATOM     28  C   UNL     1       4.578  -2.011  -0.797  0.00  0.00    +0.002 A 
ATOM     31  C   UNL     1       5.019  -0.688  -0.762  0.00  0.00    +0.012 A 
BRANCH  27  33
ATOM      2  F   UNL     1       5.920   1.896  -0.717  0.00  0.00    -0.166 F 
ATOM      3  F   UNL     1       3.867   2.575  -0.541  0.00  0.00    -0.166 F 
ATOM      4  F   UNL     1       5.016   2.121   1.248  0.00  0.00    -0.166 F 
ATOM     33  C   UNL     1       4.763   1.686  -0.021  0.00  0.00    +0.417 C 
ENDBRANCH  27  33
ENDBRANCH   1  20
ENDBRANCH   8   1
TORSDOF 4
