MODEL 1
REMARK VINA RESULT:      -6.6      0.000      0.000
REMARK  Name = 26744096
REMARK  6 active torsions:
REMARK  status: ('A' for Active; 'I' for Inactive)
REMARK    1  A    between atoms: O_1  and  C_9
REMARK    2  A    between atoms: N_3  and  C_11
REMARK    3  A    between atoms: C_7  and  C_12
REMARK    4  A    between atoms: C_11  and  C_13
REMARK    5  A    between atoms: C_14  and  C_17
REMARK    6  A    between atoms: C_17  and  C_19
REMARK                            x       y       z     vdW  Elec       q    Type
REMARK                         _______ _______ _______ _____ _____    ______ ____
ROOT
ATOM      3  N   UNL     1      11.796  10.510  22.725  0.00  0.00    -0.285 NA
ATOM      7  C   UNL     1      12.815  11.573  22.627  0.00  0.00    +0.149 C 
ATOM      8  C   UNL     1      12.940  12.131  24.056  0.00  0.00    +0.061 C 
ATOM      9  C   UNL     1      11.920  11.352  24.875  0.00  0.00    +0.130 C 
ATOM     10  C   UNL     1      10.921  10.875  23.838  0.00  0.00    +0.116 C 
ENDROOT
BRANCH   7  12
ATOM      2  O   UNL     1      14.542  11.602  20.897  0.00  0.00    -0.336 OA
ATOM      4  N   UNL     1      14.953  10.178  22.576  0.00  0.00    -0.194 NA
ATOM      5  N   UNL     1      15.765  10.988  20.597  0.00  0.00    -0.061 NA
ATOM     12  C   UNL     1      14.134  11.069  22.078  0.00  0.00    +0.245 A 
ATOM     14  C   UNL     1      15.939  10.163  21.633  0.00  0.00    +0.176 A 
BRANCH  14  17
ATOM     17  C   UNL     1      17.117   9.295  21.746  0.00  0.00    +0.114 C 
BRANCH  17  19
ATOM     19  C   UNL     1      17.100   8.073  20.831  0.00  0.00    -0.040 A 
ATOM     21  C   UNL     1      15.979   7.806  20.047  0.00  0.00    +0.004 A 
ATOM     22  C   UNL     1      18.207   7.226  20.780  0.00  0.00    +0.004 A 
ATOM     23  C   UNL     1      15.965   6.689  19.211  0.00  0.00    +0.000 A 
ATOM     24  C   UNL     1      18.193   6.109  19.945  0.00  0.00    +0.000 A 
ATOM     25  C   UNL     1      17.071   5.841  19.159  0.00  0.00    +0.000 A 
ENDBRANCH  17  19
ENDBRANCH  14  17
ENDBRANCH   7  12
BRANCH   9   1
ATOM      1  O   UNL     1      11.313  12.183  25.845  0.00  0.00    -0.390 OA
ATOM     26  H   UNL     1      10.566  12.635  25.416  0.00  0.00    +0.210 HD
ENDBRANCH   9   1
BRANCH   3  11
ATOM     11  C   UNL     1      11.053  10.310  21.487  0.00  0.00    +0.122 C 
BRANCH  11  13
ATOM      6  N   UNL     1      11.522   6.633  20.719  0.00  0.00    -0.263 NA
ATOM     13  C   UNL     1      11.473   9.048  20.779  0.00  0.00    -0.015 A 
ATOM     15  C   UNL     1      12.175   9.100  19.580  0.00  0.00    +0.008 A 
ATOM     16  C   UNL     1      11.173   7.802  21.301  0.00  0.00    +0.115 A 
ATOM     18  C   UNL     1      12.552   7.918  18.950  0.00  0.00    +0.020 A 
ATOM     20  C   UNL     1      12.204   6.721  19.555  0.00  0.00    +0.111 A 
ENDBRANCH  11  13
ENDBRANCH   3  11
TORSDOF 6
ENDMDL
MODEL 2
REMARK VINA RESULT:      -6.5      4.116      5.940
REMARK  Name = 26744096
REMARK  6 active torsions:
REMARK  status: ('A' for Active; 'I' for Inactive)
REMARK    1  A    between atoms: O_1  and  C_9
REMARK    2  A    between atoms: N_3  and  C_11
REMARK    3  A    between atoms: C_7  and  C_12
REMARK    4  A    between atoms: C_11  and  C_13
REMARK    5  A    between atoms: C_14  and  C_17
REMARK    6  A    between atoms: C_17  and  C_19
REMARK                            x       y       z     vdW  Elec       q    Type
REMARK                         _______ _______ _______ _____ _____    ______ ____
ROOT
ATOM      3  N   UNL     1      13.379   7.925  19.971  0.00  0.00    -0.285 NA
ATOM      7  C   UNL     1      12.427   7.821  18.847  0.00  0.00    +0.149 C 
ATOM      8  C   UNL     1      11.122   8.444  19.376  0.00  0.00    +0.061 C 
ATOM      9  C   UNL     1      11.425   8.823  20.820  0.00  0.00    +0.130 C 
ATOM     10  C   UNL     1      12.578   7.912  21.194  0.00  0.00    +0.116 C 
ENDROOT
BRANCH   7  12
ATOM      2  O   UNL     1      13.392   7.689  16.604  0.00  0.00    -0.336 OA
ATOM      4  N   UNL     1      12.998   9.778  17.308  0.00  0.00    -0.194 NA
ATOM      5  N   UNL     1      13.799   8.534  15.564  0.00  0.00    -0.061 NA
ATOM     12  C   UNL     1      12.933   8.502  17.591  0.00  0.00    +0.245 A 
ATOM     14  C   UNL     1      13.535   9.748  16.055  0.00  0.00    +0.176 A 
BRANCH  14  17
ATOM     17  C   UNL     1      13.810  10.971  15.291  0.00  0.00    +0.114 C 
BRANCH  17  19
ATOM     19  C   UNL     1      15.216  11.536  15.473  0.00  0.00    -0.040 A 
ATOM     21  C   UNL     1      15.526  12.278  16.611  0.00  0.00    +0.004 A 
ATOM     22  C   UNL     1      16.189  11.310  14.499  0.00  0.00    +0.004 A 
ATOM     23  C   UNL     1      16.811  12.795  16.777  0.00  0.00    +0.000 A 
ATOM     24  C   UNL     1      17.474  11.827  14.665  0.00  0.00    +0.000 A 
ATOM     25  C   UNL     1      17.785  12.569  15.804  0.00  0.00    +0.000 A 
ENDBRANCH  17  19
ENDBRANCH  14  17
ENDBRANCH   7  12
BRANCH   9   1
ATOM      1  O   UNL     1      10.295   8.606  21.643  0.00  0.00    -0.390 OA
ATOM     26  H   UNL     1      10.620   8.377  22.531  0.00  0.00    +0.210 HD
ENDBRANCH   9   1
BRANCH   3  11
ATOM     11  C   UNL     1      14.390   6.874  19.967  0.00  0.00    +0.122 C 
BRANCH  11  13
ATOM      6  N   UNL     1      17.902   6.895  21.379  0.00  0.00    -0.263 NA
ATOM     13  C   UNL     1      15.724   7.379  20.450  0.00  0.00    -0.015 A 
ATOM     15  C   UNL     1      16.026   8.737  20.430  0.00  0.00    +0.008 A 
ATOM     16  C   UNL     1      16.687   6.508  20.929  0.00  0.00    +0.115 A 
ATOM     18  C   UNL     1      17.266   9.173  20.885  0.00  0.00    +0.020 A 
ATOM     20  C   UNL     1      18.161   8.221  21.345  0.00  0.00    +0.111 A 
ENDBRANCH  11  13
ENDBRANCH   3  11
TORSDOF 6
ENDMDL
MODEL 3
REMARK VINA RESULT:      -6.3     30.321     32.099
REMARK  Name = 26744096
REMARK  6 active torsions:
REMARK  status: ('A' for Active; 'I' for Inactive)
REMARK    1  A    between atoms: O_1  and  C_9
REMARK    2  A    between atoms: N_3  and  C_11
REMARK    3  A    between atoms: C_7  and  C_12
REMARK    4  A    between atoms: C_11  and  C_13
REMARK    5  A    between atoms: C_14  and  C_17
REMARK    6  A    between atoms: C_17  and  C_19
REMARK                            x       y       z     vdW  Elec       q    Type
REMARK                         _______ _______ _______ _____ _____    ______ ____
ROOT
ATOM      3  N   UNL     1     -16.983   3.383  26.954  0.00  0.00    -0.285 NA
ATOM      7  C   UNL     1     -17.055   1.909  26.975  0.00  0.00    +0.149 C 
ATOM      8  C   UNL     1     -16.393   1.464  25.658  0.00  0.00    +0.061 C 
ATOM      9  C   UNL     1     -16.026   2.759  24.944  0.00  0.00    +0.130 C 
ATOM     10  C   UNL     1     -16.973   3.778  25.546  0.00  0.00    +0.116 C 
ENDROOT
BRANCH   7  12
ATOM      2  O   UNL     1     -17.007   0.242  28.762  0.00  0.00    -0.336 OA
ATOM      4  N   UNL     1     -15.286   1.675  28.803  0.00  0.00    -0.194 NA
ATOM      5  N   UNL     1     -16.216  -0.128  29.858  0.00  0.00    -0.061 NA
ATOM     12  C   UNL     1     -16.387   1.310  28.197  0.00  0.00    +0.245 A 
ATOM     14  C   UNL     1     -15.222   0.763  29.815  0.00  0.00    +0.176 A 
BRANCH  14  17
ATOM     17  C   UNL     1     -14.132   0.759  30.798  0.00  0.00    +0.114 C 
BRANCH  17  19
ATOM     19  C   UNL     1     -14.127   1.952  31.750  0.00  0.00    -0.040 A 
ATOM     21  C   UNL     1     -14.843   1.892  32.945  0.00  0.00    +0.004 A 
ATOM     22  C   UNL     1     -13.405   3.100  31.425  0.00  0.00    +0.004 A 
ATOM     23  C   UNL     1     -14.837   2.981  33.816  0.00  0.00    +0.000 A 
ATOM     24  C   UNL     1     -13.399   4.190  32.296  0.00  0.00    +0.000 A 
ATOM     25  C   UNL     1     -14.116   4.130  33.492  0.00  0.00    +0.000 A 
ENDBRANCH  17  19
ENDBRANCH  14  17
ENDBRANCH   7  12
BRANCH   9   1
ATOM      1  O   UNL     1     -16.210   2.631  23.547  0.00  0.00    -0.390 OA
ATOM     26  H   UNL     1     -15.336   2.718  23.128  0.00  0.00    +0.210 HD
ENDBRANCH   9   1
BRANCH   3  11
ATOM     11  C   UNL     1     -18.064   4.022  27.694  0.00  0.00    +0.122 C 
BRANCH  11  13
ATOM      6  N   UNL     1     -16.528   6.450  30.158  0.00  0.00    -0.263 NA
ATOM     13  C   UNL     1     -17.581   4.614  28.992  0.00  0.00    -0.015 A 
ATOM     15  C   UNL     1     -17.721   3.923  30.191  0.00  0.00    +0.008 A 
ATOM     16  C   UNL     1     -16.984   5.863  29.029  0.00  0.00    +0.115 A 
ATOM     18  C   UNL     1     -17.263   4.495  31.373  0.00  0.00    +0.020 A 
ATOM     20  C   UNL     1     -16.679   5.749  31.304  0.00  0.00    +0.111 A 
ENDBRANCH  11  13
ENDBRANCH   3  11
TORSDOF 6
ENDMDL
MODEL 4
REMARK VINA RESULT:      -6.3     27.051     28.531
REMARK  Name = 26744096
REMARK  6 active torsions:
REMARK  status: ('A' for Active; 'I' for Inactive)
REMARK    1  A    between atoms: O_1  and  C_9
REMARK    2  A    between atoms: N_3  and  C_11
REMARK    3  A    between atoms: C_7  and  C_12
REMARK    4  A    between atoms: C_11  and  C_13
REMARK    5  A    between atoms: C_14  and  C_17
REMARK    6  A    between atoms: C_17  and  C_19
REMARK                            x       y       z     vdW  Elec       q    Type
REMARK                         _______ _______ _______ _____ _____    ______ ____
ROOT
ATOM      3  N   UNL     1      -5.782 -10.901  16.566  0.00  0.00    -0.285 NA
ATOM      7  C   UNL     1      -4.433 -10.880  17.166  0.00  0.00    +0.149 C 
ATOM      8  C   UNL     1      -4.490 -11.922  18.299  0.00  0.00    +0.061 C 
ATOM      9  C   UNL     1      -5.924 -12.438  18.287  0.00  0.00    +0.130 C 
ATOM     10  C   UNL     1      -6.700 -11.317  17.624  0.00  0.00    +0.116 C 
ENDROOT
BRANCH   7  12
ATOM      2  O   UNL     1      -2.079 -10.819  16.512  0.00  0.00    -0.336 OA
ATOM      4  N   UNL     1      -3.432 -11.721  14.972  0.00  0.00    -0.194 NA
ATOM      5  N   UNL     1      -1.258 -11.181  15.435  0.00  0.00    -0.061 NA
ATOM     12  C   UNL     1      -3.341 -11.173  16.157  0.00  0.00    +0.245 A 
ATOM     14  C   UNL     1      -2.129 -11.706  14.569  0.00  0.00    +0.176 A 
BRANCH  14  17
ATOM     17  C   UNL     1      -1.707 -12.229  13.265  0.00  0.00    +0.114 C 
BRANCH  17  19
ATOM     19  C   UNL     1      -2.400 -11.590  12.064  0.00  0.00    -0.040 A 
ATOM     21  C   UNL     1      -2.181 -10.245  11.770  0.00  0.00    +0.004 A 
ATOM     22  C   UNL     1      -3.250 -12.352  11.263  0.00  0.00    +0.004 A 
ATOM     23  C   UNL     1      -2.814  -9.661  10.672  0.00  0.00    +0.000 A 
ATOM     24  C   UNL     1      -3.884 -11.768  10.167  0.00  0.00    +0.000 A 
ATOM     25  C   UNL     1      -3.665 -10.422   9.871  0.00  0.00    +0.000 A 
ENDBRANCH  17  19
ENDBRANCH  14  17
ENDBRANCH   7  12
BRANCH   9   1
ATOM      1  O   UNL     1      -6.379 -12.686  19.603  0.00  0.00    -0.390 OA
ATOM     26  H   UNL     1      -6.682 -11.838  19.972  0.00  0.00    +0.210 HD
ENDBRANCH   9   1
BRANCH   3  11
ATOM     11  C   UNL     1      -6.168  -9.625  15.976  0.00  0.00    +0.122 C 
BRANCH  11  13
ATOM      6  N   UNL     1      -8.684 -10.062  13.182  0.00  0.00    -0.263 NA
ATOM     13  C   UNL     1      -6.740  -9.797  14.594  0.00  0.00    -0.015 A 
ATOM     15  C   UNL     1      -5.913  -9.855  13.478  0.00  0.00    +0.008 A 
ATOM     16  C   UNL     1      -8.106  -9.904  14.394  0.00  0.00    +0.115 A 
ATOM     18  C   UNL     1      -6.470 -10.016  12.214  0.00  0.00    +0.020 A 
ATOM     20  C   UNL     1      -7.849 -10.114  12.120  0.00  0.00    +0.111 A 
ENDBRANCH  11  13
ENDBRANCH   3  11
TORSDOF 6
ENDMDL
MODEL 5
REMARK VINA RESULT:      -6.2     26.004     29.059
REMARK  Name = 26744096
REMARK  6 active torsions:
REMARK  status: ('A' for Active; 'I' for Inactive)
REMARK    1  A    between atoms: O_1  and  C_9
REMARK    2  A    between atoms: N_3  and  C_11
REMARK    3  A    between atoms: C_7  and  C_12
REMARK    4  A    between atoms: C_11  and  C_13
REMARK    5  A    between atoms: C_14  and  C_17
REMARK    6  A    between atoms: C_17  and  C_19
REMARK                            x       y       z     vdW  Elec       q    Type
REMARK                         _______ _______ _______ _____ _____    ______ ____
ROOT
ATOM      3  N   UNL     1      -3.223 -10.534  13.947  0.00  0.00    -0.285 NA
ATOM      7  C   UNL     1      -3.755 -11.209  15.146  0.00  0.00    +0.149 C 
ATOM      8  C   UNL     1      -2.741 -10.890  16.260  0.00  0.00    +0.061 C 
ATOM      9  C   UNL     1      -1.651 -10.072  15.580  0.00  0.00    +0.130 C 
ATOM     10  C   UNL     1      -1.773 -10.464  14.120  0.00  0.00    +0.116 C 
ENDROOT
BRANCH   7  12
ATOM      2  O   UNL     1      -6.175 -11.435  14.885  0.00  0.00    -0.336 OA
ATOM      4  N   UNL     1      -5.556  -9.809  16.296  0.00  0.00    -0.194 NA
ATOM      5  N   UNL     1      -7.360 -10.851  15.351  0.00  0.00    -0.061 NA
ATOM     12  C   UNL     1      -5.162 -10.763  15.491  0.00  0.00    +0.245 A 
ATOM     14  C   UNL     1      -6.912  -9.902  16.178  0.00  0.00    +0.176 A 
BRANCH  14  17
ATOM     17  C   UNL     1      -7.823  -9.015  16.909  0.00  0.00    +0.114 C 
BRANCH  17  19
ATOM     19  C   UNL     1      -8.750  -9.721  17.894  0.00  0.00    -0.040 A 
ATOM     21  C   UNL     1     -10.101  -9.379  17.947  0.00  0.00    +0.004 A 
ATOM     22  C   UNL     1      -8.246 -10.709  18.741  0.00  0.00    +0.004 A 
ATOM     23  C   UNL     1     -10.948 -10.025  18.847  0.00  0.00    +0.000 A 
ATOM     24  C   UNL     1      -9.093 -11.354  19.641  0.00  0.00    +0.000 A 
ATOM     25  C   UNL     1     -10.445 -11.013  19.694  0.00  0.00    +0.000 A 
ENDBRANCH  17  19
ENDBRANCH  14  17
ENDBRANCH   7  12
BRANCH   9   1
ATOM      1  O   UNL     1      -0.379 -10.394  16.106  0.00  0.00    -0.390 OA
ATOM     26  H   UNL     1      -0.358 -11.355  16.252  0.00  0.00    +0.210 HD
ENDBRANCH   9   1
BRANCH   3  11
ATOM     11  C   UNL     1      -3.595 -11.194  12.702  0.00  0.00    +0.122 C 
BRANCH  11  13
ATOM      6  N   UNL     1      -5.760  -8.686  10.872  0.00  0.00    -0.263 NA
ATOM     13  C   UNL     1      -4.057 -10.209  11.661  0.00  0.00    -0.015 A 
ATOM     15  C   UNL     1      -3.265  -9.906  10.559  0.00  0.00    +0.008 A 
ATOM     16  C   UNL     1      -5.285  -9.578  11.770  0.00  0.00    +0.115 A 
ATOM     18  C   UNL     1      -3.720  -8.994   9.613  0.00  0.00    +0.020 A 
ATOM     20  C   UNL     1      -4.963  -8.416   9.813  0.00  0.00    +0.111 A 
ENDBRANCH  11  13
ENDBRANCH   3  11
TORSDOF 6
ENDMDL
MODEL 6
REMARK VINA RESULT:      -6.1      2.436      4.983
REMARK  Name = 26744096
REMARK  6 active torsions:
REMARK  status: ('A' for Active; 'I' for Inactive)
REMARK    1  A    between atoms: O_1  and  C_9
REMARK    2  A    between atoms: N_3  and  C_11
REMARK    3  A    between atoms: C_7  and  C_12
REMARK    4  A    between atoms: C_11  and  C_13
REMARK    5  A    between atoms: C_14  and  C_17
REMARK    6  A    between atoms: C_17  and  C_19
REMARK                            x       y       z     vdW  Elec       q    Type
REMARK                         _______ _______ _______ _____ _____    ______ ____
ROOT
ATOM      3  N   UNL     1      12.118   8.332  20.101  0.00  0.00    -0.285 NA
ATOM      7  C   UNL     1      12.755   7.074  19.665  0.00  0.00    +0.149 C 
ATOM      8  C   UNL     1      12.630   7.081  18.130  0.00  0.00    +0.061 C 
ATOM      9  C   UNL     1      11.867   8.358  17.802  0.00  0.00    +0.130 C 
ATOM     10  C   UNL     1      11.120   8.666  19.085  0.00  0.00    +0.116 C 
ENDROOT
BRANCH   7  12
ATOM      2  O   UNL     1      14.390   6.959  21.478  0.00  0.00    -0.336 OA
ATOM      4  N   UNL     1      15.288   6.848  19.429  0.00  0.00    -0.194 NA
ATOM      5  N   UNL     1      15.774   6.841  21.664  0.00  0.00    -0.061 NA
ATOM     12  C   UNL     1      14.191   6.954  20.134  0.00  0.00    +0.245 A 
ATOM     14  C   UNL     1      16.232   6.780  20.410  0.00  0.00    +0.176 A 
BRANCH  14  17
ATOM     17  C   UNL     1      17.663   6.652  20.112  0.00  0.00    +0.114 C 
BRANCH  17  19
ATOM     19  C   UNL     1      18.592   7.277  21.149  0.00  0.00    -0.040 A 
ATOM     21  C   UNL     1      18.646   8.663  21.289  0.00  0.00    +0.004 A 
ATOM     22  C   UNL     1      19.385   6.462  21.957  0.00  0.00    +0.004 A 
ATOM     23  C   UNL     1      19.495   9.235  22.238  0.00  0.00    +0.000 A 
ATOM     24  C   UNL     1      20.233   7.033  22.904  0.00  0.00    +0.000 A 
ATOM     25  C   UNL     1      20.288   8.420  23.045  0.00  0.00    +0.000 A 
ENDBRANCH  17  19
ENDBRANCH  14  17
ENDBRANCH   7  12
BRANCH   9   1
ATOM      1  O   UNL     1      10.984   8.151  16.717  0.00  0.00    -0.390 OA
ATOM     26  H   UNL     1      11.395   7.497  16.127  0.00  0.00    +0.210 HD
ENDBRANCH   9   1
BRANCH   3  11
ATOM     11  C   UNL     1      11.536   8.250  21.435  0.00  0.00    +0.122 C 
BRANCH  11  13
ATOM      6  N   UNL     1      13.340  11.200  22.974  0.00  0.00    -0.263 NA
ATOM     13  C   UNL     1      11.789   9.501  22.235  0.00  0.00    -0.015 A 
ATOM     15  C   UNL     1      10.768  10.108  22.957  0.00  0.00    +0.008 A 
ATOM     16  C   UNL     1      13.045  10.081  22.275  0.00  0.00    +0.115 A 
ATOM     18  C   UNL     1      11.032  11.261  23.688  0.00  0.00    +0.020 A 
ATOM     20  C   UNL     1      12.323  11.763  23.664  0.00  0.00    +0.111 A 
ENDBRANCH  11  13
ENDBRANCH   3  11
TORSDOF 6
ENDMDL
MODEL 7
REMARK VINA RESULT:      -6.1     27.083     28.707
REMARK  Name = 26744096
REMARK  6 active torsions:
REMARK  status: ('A' for Active; 'I' for Inactive)
REMARK    1  A    between atoms: O_1  and  C_9
REMARK    2  A    between atoms: N_3  and  C_11
REMARK    3  A    between atoms: C_7  and  C_12
REMARK    4  A    between atoms: C_11  and  C_13
REMARK    5  A    between atoms: C_14  and  C_17
REMARK    6  A    between atoms: C_17  and  C_19
REMARK                            x       y       z     vdW  Elec       q    Type
REMARK                         _______ _______ _______ _____ _____    ______ ____
ROOT
ATOM      3  N   UNL     1      -6.328 -10.600  17.431  0.00  0.00    -0.285 NA
ATOM      7  C   UNL     1      -4.855 -10.625  17.530  0.00  0.00    +0.149 C 
ATOM      8  C   UNL     1      -4.563 -11.317  18.875  0.00  0.00    +0.061 C 
ATOM      9  C   UNL     1      -5.933 -11.600  19.479  0.00  0.00    +0.130 C 
ATOM     10  C   UNL     1      -6.835 -10.586  18.802  0.00  0.00    +0.116 C 
ENDROOT
BRANCH   7  12
ATOM      2  O   UNL     1      -4.572 -12.618  16.144  0.00  0.00    -0.336 OA
ATOM      4  N   UNL     1      -3.321 -10.875  15.504  0.00  0.00    -0.194 NA
ATOM      5  N   UNL     1      -3.847 -13.048  15.025  0.00  0.00    -0.061 NA
ATOM     12  C   UNL     1      -4.204 -11.329  16.357  0.00  0.00    +0.245 A 
ATOM     14  C   UNL     1      -3.133 -11.965  14.706  0.00  0.00    +0.176 A 
BRANCH  14  17
ATOM     17  C   UNL     1      -2.205 -11.953  13.570  0.00  0.00    +0.114 C 
BRANCH  17  19
ATOM     19  C   UNL     1      -2.611 -11.032  12.422  0.00  0.00    -0.040 A 
ATOM     21  C   UNL     1      -3.904 -11.094  11.904  0.00  0.00    +0.004 A 
ATOM     22  C   UNL     1      -1.688 -10.130  11.892  0.00  0.00    +0.004 A 
ATOM     23  C   UNL     1      -4.274 -10.252  10.855  0.00  0.00    +0.000 A 
ATOM     24  C   UNL     1      -2.059  -9.289  10.843  0.00  0.00    +0.000 A 
ATOM     25  C   UNL     1      -3.352  -9.350  10.325  0.00  0.00    +0.000 A 
ENDBRANCH  17  19
ENDBRANCH  14  17
ENDBRANCH   7  12
BRANCH   9   1
ATOM      1  O   UNL     1      -5.908 -11.426  20.882  0.00  0.00    -0.390 OA
ATOM     26  H   UNL     1      -4.976 -11.408  21.158  0.00  0.00    +0.210 HD
ENDBRANCH   9   1
BRANCH   3  11
ATOM     11  C   UNL     1      -6.832  -9.478  16.649  0.00  0.00    +0.122 C 
BRANCH  11  13
ATOM      6  N   UNL     1     -10.400 -10.503  15.908  0.00  0.00    -0.263 NA
ATOM     13  C   UNL     1      -8.338  -9.455  16.608  0.00  0.00    -0.015 A 
ATOM     15  C   UNL     1      -9.055  -8.419  17.197  0.00  0.00    +0.008 A 
ATOM     16  C   UNL     1      -9.051 -10.463  15.982  0.00  0.00    +0.115 A 
ATOM     18  C   UNL     1     -10.444  -8.425  17.141  0.00  0.00    +0.020 A 
ATOM     20  C   UNL     1     -11.064  -9.479  16.490  0.00  0.00    +0.111 A 
ENDBRANCH  11  13
ENDBRANCH   3  11
TORSDOF 6
ENDMDL
MODEL 8
REMARK VINA RESULT:      -6.1     15.983     18.294
REMARK  Name = 26744096
REMARK  6 active torsions:
REMARK  status: ('A' for Active; 'I' for Inactive)
REMARK    1  A    between atoms: O_1  and  C_9
REMARK    2  A    between atoms: N_3  and  C_11
REMARK    3  A    between atoms: C_7  and  C_12
REMARK    4  A    between atoms: C_11  and  C_13
REMARK    5  A    between atoms: C_14  and  C_17
REMARK    6  A    between atoms: C_17  and  C_19
REMARK                            x       y       z     vdW  Elec       q    Type
REMARK                         _______ _______ _______ _____ _____    ______ ____
ROOT
ATOM      3  N   UNL     1      10.968   6.999   6.166  0.00  0.00    -0.285 NA
ATOM      7  C   UNL     1      10.334   5.815   5.554  0.00  0.00    +0.149 C 
ATOM      8  C   UNL     1       8.849   6.195   5.409  0.00  0.00    +0.061 C 
ATOM      9  C   UNL     1       8.738   7.591   6.010  0.00  0.00    +0.130 C 
ATOM     10  C   UNL     1       9.928   7.670   6.945  0.00  0.00    +0.116 C 
ENDROOT
BRANCH   7  12
ATOM      2  O   UNL     1      11.627   6.413   3.568  0.00  0.00    -0.336 OA
ATOM      4  N   UNL     1      10.981   4.270   3.627  0.00  0.00    -0.194 NA
ATOM      5  N   UNL     1      12.121   5.825   2.396  0.00  0.00    -0.061 NA
ATOM     12  C   UNL     1      10.971   5.429   4.235  0.00  0.00    +0.245 A 
ATOM     14  C   UNL     1      11.699   4.562   2.505  0.00  0.00    +0.176 A 
BRANCH  14  17
ATOM     17  C   UNL     1      11.989   3.555   1.477  0.00  0.00    +0.114 C 
BRANCH  17  19
ATOM     19  C   UNL     1      13.321   3.742   0.756  0.00  0.00    -0.040 A 
ATOM     21  C   UNL     1      14.518   3.582   1.453  0.00  0.00    +0.004 A 
ATOM     22  C   UNL     1      13.340   4.073  -0.599  0.00  0.00    +0.004 A 
ATOM     23  C   UNL     1      15.736   3.753   0.794  0.00  0.00    +0.000 A 
ATOM     24  C   UNL     1      14.557   4.245  -1.257  0.00  0.00    +0.000 A 
ATOM     25  C   UNL     1      15.756   4.084  -0.561  0.00  0.00    +0.000 A 
ENDBRANCH  17  19
ENDBRANCH  14  17
ENDBRANCH   7  12
BRANCH   9   1
ATOM      1  O   UNL     1       7.514   7.743   6.702  0.00  0.00    -0.390 OA
ATOM     26  H   UNL     1       6.982   6.947   6.534  0.00  0.00    +0.210 HD
ENDBRANCH   9   1
BRANCH   3  11
ATOM     11  C   UNL     1      12.135   6.673   6.976  0.00  0.00    +0.122 C 
BRANCH  11  13
ATOM      6  N   UNL     1      14.076   9.897   6.570  0.00  0.00    -0.263 NA
ATOM     13  C   UNL     1      13.277   7.621   6.722  0.00  0.00    -0.015 A 
ATOM     15  C   UNL     1      14.547   7.147   6.413  0.00  0.00    +0.008 A 
ATOM     16  C   UNL     1      13.095   8.992   6.788  0.00  0.00    +0.115 A 
ATOM     18  C   UNL     1      15.581   8.047   6.182  0.00  0.00    +0.020 A 
ATOM     20  C   UNL     1      15.297   9.400   6.271  0.00  0.00    +0.111 A 
ENDBRANCH  11  13
ENDBRANCH   3  11
TORSDOF 6
ENDMDL
MODEL 9
REMARK VINA RESULT:      -6.0     27.614     30.483
REMARK  Name = 26744096
REMARK  6 active torsions:
REMARK  status: ('A' for Active; 'I' for Inactive)
REMARK    1  A    between atoms: O_1  and  C_9
REMARK    2  A    between atoms: N_3  and  C_11
REMARK    3  A    between atoms: C_7  and  C_12
REMARK    4  A    between atoms: C_11  and  C_13
REMARK    5  A    between atoms: C_14  and  C_17
REMARK    6  A    between atoms: C_17  and  C_19
REMARK                            x       y       z     vdW  Elec       q    Type
REMARK                         _______ _______ _______ _____ _____    ______ ____
ROOT
ATOM      3  N   UNL     1       3.018   5.478  -5.665  0.00  0.00    -0.285 NA
ATOM      7  C   UNL     1       1.912   5.268  -4.710  0.00  0.00    +0.149 C 
ATOM      8  C   UNL     1       0.859   6.326  -5.088  0.00  0.00    +0.061 C 
ATOM      9  C   UNL     1       1.483   7.112  -6.234  0.00  0.00    +0.130 C 
ATOM     10  C   UNL     1       2.972   6.888  -6.049  0.00  0.00    +0.116 C 
ENDROOT
BRANCH   7  12
ATOM      2  O   UNL     1       0.467   3.525  -3.788  0.00  0.00    -0.336 OA
ATOM      4  N   UNL     1       1.632   2.888  -5.592  0.00  0.00    -0.194 NA
ATOM      5  N   UNL     1       0.112   2.191  -4.031  0.00  0.00    -0.061 NA
ATOM     12  C   UNL     1       1.364   3.856  -4.753  0.00  0.00    +0.245 A 
ATOM     14  C   UNL     1       0.840   1.888  -5.109  0.00  0.00    +0.176 A 
BRANCH  14  17
ATOM     17  C   UNL     1       0.790   0.560  -5.731  0.00  0.00    +0.114 C 
BRANCH  17  19
ATOM     19  C   UNL     1      -0.520   0.237  -6.446  0.00  0.00    -0.040 A 
ATOM     21  C   UNL     1      -1.089   1.170  -7.311  0.00  0.00    +0.004 A 
ATOM     22  C   UNL     1      -1.145  -0.992  -6.233  0.00  0.00    +0.004 A 
ATOM     23  C   UNL     1      -2.286   0.874  -7.964  0.00  0.00    +0.000 A 
ATOM     24  C   UNL     1      -2.342  -1.287  -6.886  0.00  0.00    +0.000 A 
ATOM     25  C   UNL     1      -2.912  -0.353  -7.752  0.00  0.00    +0.000 A 
ENDBRANCH  17  19
ENDBRANCH  14  17
ENDBRANCH   7  12
BRANCH   9   1
ATOM      1  O   UNL     1       1.144   8.482  -6.146  0.00  0.00    -0.390 OA
ATOM     26  H   UNL     1       0.248   8.585  -6.511  0.00  0.00    +0.210 HD
ENDBRANCH   9   1
BRANCH   3  11
ATOM     11  C   UNL     1       4.319   5.098  -5.130  0.00  0.00    +0.122 C 
BRANCH  11  13
ATOM      6  N   UNL     1       6.630   7.986  -4.325  0.00  0.00    -0.263 NA
ATOM     13  C   UNL     1       4.970   6.231  -4.380  0.00  0.00    -0.015 A 
ATOM     15  C   UNL     1       4.551   6.577  -3.100  0.00  0.00    +0.008 A 
ATOM     16  C   UNL     1       6.003   6.960  -4.944  0.00  0.00    +0.115 A 
ATOM     18  C   UNL     1       5.172   7.626  -2.432  0.00  0.00    +0.020 A 
ATOM     20  C   UNL     1       6.198   8.294  -3.082  0.00  0.00    +0.111 A 
ENDBRANCH  11  13
ENDBRANCH   3  11
TORSDOF 6
ENDMDL
MODEL 10
REMARK VINA RESULT:      -6.0     18.614     21.390
REMARK  Name = 26744096
REMARK  6 active torsions:
REMARK  status: ('A' for Active; 'I' for Inactive)
REMARK    1  A    between atoms: O_1  and  C_9
REMARK    2  A    between atoms: N_3  and  C_11
REMARK    3  A    between atoms: C_7  and  C_12
REMARK    4  A    between atoms: C_11  and  C_13
REMARK    5  A    between atoms: C_14  and  C_17
REMARK    6  A    between atoms: C_17  and  C_19
REMARK                            x       y       z     vdW  Elec       q    Type
REMARK                         _______ _______ _______ _____ _____    ______ ____
ROOT
ATOM      3  N   UNL     1      13.506   3.920  -0.439  0.00  0.00    -0.285 NA
ATOM      7  C   UNL     1      13.773   3.665   0.990  0.00  0.00    +0.149 C 
ATOM      8  C   UNL     1      15.068   4.441   1.293  0.00  0.00    +0.061 C 
ATOM      9  C   UNL     1      15.478   5.059  -0.037  0.00  0.00    +0.130 C 
ATOM     10  C   UNL     1      14.803   4.171  -1.065  0.00  0.00    +0.116 C 
ENDROOT
BRANCH   7  12
ATOM      2  O   UNL     1      11.804   3.087   2.318  0.00  0.00    -0.336 OA
ATOM      4  N   UNL     1      12.284   5.275   2.300  0.00  0.00    -0.194 NA
ATOM      5  N   UNL     1      10.828   3.707   3.111  0.00  0.00    -0.061 NA
ATOM     12  C   UNL     1      12.620   4.081   1.882  0.00  0.00    +0.245 A 
ATOM     14  C   UNL     1      11.180   4.995   3.051  0.00  0.00    +0.176 A 
BRANCH  14  17
ATOM     17  C   UNL     1      10.422   6.040   3.748  0.00  0.00    +0.114 C 
BRANCH  17  19
ATOM     19  C   UNL     1      10.522   5.996   5.270  0.00  0.00    -0.040 A 
ATOM     21  C   UNL     1      11.644   6.522   5.909  0.00  0.00    +0.004 A 
ATOM     22  C   UNL     1       9.492   5.430   6.021  0.00  0.00    +0.004 A 
ATOM     23  C   UNL     1      11.736   6.482   7.301  0.00  0.00    +0.000 A 
ATOM     24  C   UNL     1       9.584   5.389   7.412  0.00  0.00    +0.000 A 
ATOM     25  C   UNL     1      10.706   5.916   8.052  0.00  0.00    +0.000 A 
ENDBRANCH  17  19
ENDBRANCH  14  17
ENDBRANCH   7  12
BRANCH   9   1
ATOM      1  O   UNL     1      16.885   5.052  -0.181  0.00  0.00    -0.390 OA
ATOM     26  H   UNL     1      17.113   5.718  -0.852  0.00  0.00    +0.210 HD
ENDBRANCH   9   1
BRANCH   3  11
ATOM     11  C   UNL     1      12.783   2.835  -1.091  0.00  0.00    +0.122 C 
BRANCH  11  13
ATOM      6  N   UNL     1       9.704   4.858  -1.959  0.00  0.00    -0.263 NA
ATOM     13  C   UNL     1      11.578   3.337  -1.842  0.00  0.00    -0.015 A 
ATOM     15  C   UNL     1      11.213   2.782  -3.064  0.00  0.00    +0.008 A 
ATOM     16  C   UNL     1      10.798   4.363  -1.338  0.00  0.00    +0.115 A 
ATOM     18  C   UNL     1      10.094   3.265  -3.733  0.00  0.00    +0.020 A 
ATOM     20  C   UNL     1       9.379   4.295  -3.144  0.00  0.00    +0.111 A 
ENDBRANCH  11  13
ENDBRANCH   3  11
TORSDOF 6
ENDMDL
