REMARK  Name = 38028493
REMARK  11 active torsions:
REMARK  status: ('A' for Active; 'I' for Inactive)
REMARK    1  A    between atoms: N_3  and  C_13
REMARK    2  A    between atoms: N_4  and  C_20
REMARK    3  A    between atoms: C_6  and  C_10
REMARK    4  A    between atoms: C_7  and  C_13
REMARK    5  A    between atoms: C_9  and  C_14
REMARK    6  A    between atoms: C_10  and  C_15
REMARK    7  A    between atoms: C_10  and  C_16
REMARK    8  A    between atoms: C_11  and  C_17
REMARK    9  A    between atoms: C_14  and  C_18
REMARK   10  A    between atoms: C_19  and  C_21
REMARK   11  A    between atoms: C_20  and  C_22
REMARK                            x       y       z     vdW  Elec       q    Type
REMARK                         _______ _______ _______ _____ _____    ______ ____
ROOT
ATOM      6  C   UNL     1       1.414  -0.236  -1.090  0.00  0.00    +0.000 C 
ATOM      7  C   UNL     1       2.962  -0.300  -1.050  0.00  0.00    +0.032 C 
ATOM      8  C   UNL     1       0.944   1.202  -1.354  0.00  0.00    +0.012 C 
ATOM      9  C   UNL     1       1.446   2.186  -0.280  0.00  0.00    +0.023 C 
ATOM     11  C   UNL     1       2.921   1.999   0.010  0.00  0.00    -0.073 C 
ATOM     12  C   UNL     1       3.585   0.887  -0.353  0.00  0.00    -0.022 C 
ATOM     17  C   UNL     1       3.628   3.139   0.688  0.00  0.00    +0.039 C 
ENDROOT
BRANCH   6  10
ATOM     10  C   UNL     1       0.834  -1.175  -2.152  0.00  0.00    -0.013 C 
ATOM     15  C   UNL     1       0.895  -0.523  -3.529  0.00  0.00    +0.007 C 
ATOM     16  C   UNL     1      -0.600  -1.557  -1.798  0.00  0.00    +0.007 C 
ENDBRANCH   6  10
BRANCH   7  13
ATOM     13  C   UNL     1       3.444  -1.594  -0.384  0.00  0.00    +0.112 C 
BRANCH  13   3
ATOM      2  O   UNL     1       1.769  -3.548   0.959  0.00  0.00    -0.276 OA
ATOM      3  N   UNL     1       3.078  -1.621   0.998  0.00  0.00    -0.315 N 
ATOM     19  C   UNL     1       2.265  -2.601   1.563  0.00  0.00    +0.210 C 
ATOM     21  C   UNL     1       2.058  -2.405   3.041  0.00  0.00    +0.109 C 
ATOM     27  H   UNL     1       3.484  -0.921   1.612  0.00  0.00    +0.149 HD
ENDBRANCH  13   3
ENDBRANCH   7  13
BRANCH   9  14
ATOM     14  C   UNL     1       0.616   2.072   1.004  0.00  0.00    +0.103 C 
BRANCH  14  18
ATOM      1  O   UNL     1      -1.323   2.932  -0.161  0.00  0.00    -0.276 OA
ATOM      4  N   UNL     1      -1.615   1.500   1.646  0.00  0.00    -0.311 N 
ATOM     18  C   UNL     1      -0.864   2.235   0.740  0.00  0.00    +0.214 C 
ATOM     28  H   UNL     1      -1.144   0.949   2.357  0.00  0.00    +0.149 HD
BRANCH   4  20
ATOM     20  C   UNL     1      -3.060   1.469   1.632  0.00  0.00    +0.141 C 
BRANCH  20  22
ATOM      5  N   UNL     1      -3.715  -2.001   0.280  0.00  0.00    -0.263 NA
ATOM     22  C   UNL     1      -3.590   0.364   0.765  0.00  0.00    -0.012 A 
ATOM     23  C   UNL     1      -4.414   0.638  -0.321  0.00  0.00    +0.008 A 
ATOM     24  C   UNL     1      -3.273  -0.960   1.021  0.00  0.00    +0.115 A 
ATOM     25  C   UNL     1      -4.889  -0.406  -1.107  0.00  0.00    +0.020 A 
ATOM     26  C   UNL     1      -4.514  -1.696  -0.768  0.00  0.00    +0.111 A 
ENDBRANCH  20  22
ENDBRANCH   4  20
ENDBRANCH  14  18
ENDBRANCH   9  14
TORSDOF 7
