MODEL 1
REMARK VINA RESULT:      -5.5      0.000      0.000
REMARK  Name = 28961815
REMARK  11 active torsions:
REMARK  status: ('A' for Active; 'I' for Inactive)
REMARK    1  A    between atoms: S_2  and  N_10
REMARK    2  A    between atoms: S_2  and  C_23
REMARK    3  A    between atoms: O_4  and  C_14
REMARK    4  A    between atoms: O_5  and  C_20
REMARK    5  A    between atoms: O_5  and  C_22
REMARK    6  A    between atoms: O_6  and  C_21
REMARK    7  A    between atoms: N_9  and  C_11
REMARK    8  A    between atoms: N_10  and  C_19
REMARK    9  A    between atoms: C_12  and  C_19
REMARK   10  A    between atoms: C_13  and  C_20
REMARK   11  A    between atoms: C_16  and  C_21
REMARK                            x       y       z     vdW  Elec       q    Type
REMARK                         _______ _______ _______ _____ _____    ______ ____
ROOT
ATOM      3  O   UNL     1      -5.044 -10.160  18.251  0.00  0.00    -0.366 OA
ATOM     11  C   UNL     1      -4.358 -11.856  16.727  0.00  0.00    +0.118 C 
ATOM     12  C   UNL     1      -4.716 -10.369  16.859  0.00  0.00    +0.154 C 
ATOM     14  C   UNL     1      -5.123 -12.496  17.875  0.00  0.00    +0.165 C 
ATOM     16  C   UNL     1      -4.976 -11.421  18.945  0.00  0.00    +0.174 C 
ENDROOT
BRANCH  11   9
ATOM      9  N   UNL     1      -4.581 -12.455  15.423  0.00  0.00    -0.289 NA
ATOM     13  C   UNL     1      -3.724 -11.958  14.340  0.00  0.00    +0.083 C 
ATOM     15  C   UNL     1      -4.458 -13.912  15.434  0.00  0.00    +0.085 C 
ATOM     17  C   UNL     1      -4.033 -12.970  13.239  0.00  0.00    +0.022 C 
ATOM     18  C   UNL     1      -4.268 -14.288  13.970  0.00  0.00    +0.017 C 
BRANCH  13  20
ATOM     20  C   UNL     1      -2.223 -11.900  14.644  0.00  0.00    +0.178 C 
BRANCH  20   5
ATOM      5  O   UNL     1      -1.799 -10.550  14.569  0.00  0.00    -0.381 OA
ATOM     22  C   UNL     1      -1.025 -10.178  15.702  0.00  0.00    +0.194 C 
ENDBRANCH  20   5
ENDBRANCH  13  20
ENDBRANCH  11   9
BRANCH  14   4
ATOM      4  O   UNL     1      -6.494 -12.684  17.547  0.00  0.00    -0.388 OA
ATOM     29  H   UNL     1      -6.819 -13.442  18.061  0.00  0.00    +0.210 HD
ENDBRANCH  14   4
BRANCH  12  19
ATOM     19  C   UNL     1      -5.902  -9.876  16.037  0.00  0.00    +0.139 C 
BRANCH  19  10
ATOM     10  N   UNL     1      -7.011  -9.526  16.942  0.00  0.00    -0.187 NA
ATOM     30  H   UNL     1      -6.739  -9.132  17.850  0.00  0.00    +0.148 HD
BRANCH  10   2
ATOM      2  S   UNL     1      -8.495 -10.355  16.834  0.00  0.00    +0.058 S 
ATOM      7  O   UNL     1      -8.898 -10.794  18.156  0.00  0.00    -0.153 OA
ATOM      8  O   UNL     1      -8.429 -11.305  15.739  0.00  0.00    -0.153 OA
BRANCH   2  23
ATOM      1 CL   UNL     1     -12.396  -5.770  15.052  0.00  0.00    -0.084 Cl
ATOM     23  C   UNL     1      -9.594  -9.064  16.331  0.00  0.00    +0.105 A 
ATOM     24  C   UNL     1      -9.896  -8.025  17.212  0.00  0.00    +0.030 A 
ATOM     25  C   UNL     1     -10.157  -9.084  15.056  0.00  0.00    +0.030 A 
ATOM     26  C   UNL     1     -10.762  -7.006  16.816  0.00  0.00    +0.022 A 
ATOM     27  C   UNL     1     -11.024  -8.066  14.661  0.00  0.00    +0.022 A 
ATOM     28  C   UNL     1     -11.326  -7.026  15.540  0.00  0.00    +0.041 A 
ENDBRANCH   2  23
ENDBRANCH  10   2
ENDBRANCH  19  10
ENDBRANCH  12  19
BRANCH  16  21
ATOM     21  C   UNL     1      -6.024 -11.445  20.043  0.00  0.00    +0.190 C 
BRANCH  21   6
ATOM      6  O   UNL     1      -6.738 -10.219  20.021  0.00  0.00    -0.392 OA
ATOM     31  H   UNL     1      -7.036 -10.046  20.930  0.00  0.00    +0.210 HD
ENDBRANCH  21   6
ENDBRANCH  16  21
TORSDOF 10
ENDMDL
MODEL 2
REMARK VINA RESULT:      -5.4      3.454      6.732
REMARK  Name = 28961815
REMARK  11 active torsions:
REMARK  status: ('A' for Active; 'I' for Inactive)
REMARK    1  A    between atoms: S_2  and  N_10
REMARK    2  A    between atoms: S_2  and  C_23
REMARK    3  A    between atoms: O_4  and  C_14
REMARK    4  A    between atoms: O_5  and  C_20
REMARK    5  A    between atoms: O_5  and  C_22
REMARK    6  A    between atoms: O_6  and  C_21
REMARK    7  A    between atoms: N_9  and  C_11
REMARK    8  A    between atoms: N_10  and  C_19
REMARK    9  A    between atoms: C_12  and  C_19
REMARK   10  A    between atoms: C_13  and  C_20
REMARK   11  A    between atoms: C_16  and  C_21
REMARK                            x       y       z     vdW  Elec       q    Type
REMARK                         _______ _______ _______ _____ _____    ______ ____
ROOT
ATOM      3  O   UNL     1      -4.434 -13.461  14.924  0.00  0.00    -0.366 OA
ATOM     11  C   UNL     1      -5.939 -12.934  16.693  0.00  0.00    +0.118 C 
ATOM     12  C   UNL     1      -4.886 -12.355  15.738  0.00  0.00    +0.154 C 
ATOM     14  C   UNL     1      -5.539 -14.398  16.797  0.00  0.00    +0.165 C 
ATOM     16  C   UNL     1      -5.085 -14.668  15.367  0.00  0.00    +0.174 C 
ENDROOT
BRANCH  11   9
ATOM      9  N   UNL     1      -6.103 -12.244  17.960  0.00  0.00    -0.289 NA
ATOM     13  C   UNL     1      -6.337 -10.799  17.872  0.00  0.00    +0.083 C 
ATOM     15  C   UNL     1      -7.176 -12.803  18.781  0.00  0.00    +0.085 C 
ATOM     17  C   UNL     1      -6.727 -10.479  19.313  0.00  0.00    +0.022 C 
ATOM     18  C   UNL     1      -7.484 -11.711  19.798  0.00  0.00    +0.017 C 
BRANCH  13  20
ATOM     20  C   UNL     1      -7.420 -10.352  16.885  0.00  0.00    +0.178 C 
BRANCH  20   5
ATOM      5  O   UNL     1      -7.779  -9.013  17.183  0.00  0.00    -0.381 OA
ATOM     22  C   UNL     1      -9.186  -8.818  17.115  0.00  0.00    +0.194 C 
ENDBRANCH  20   5
ENDBRANCH  13  20
ENDBRANCH  11   9
BRANCH  14   4
ATOM      4  O   UNL     1      -4.458 -14.579  17.703  0.00  0.00    -0.388 OA
ATOM     29  H   UNL     1      -4.681 -15.329  18.280  0.00  0.00    +0.210 HD
ENDBRANCH  14   4
BRANCH  12  19
ATOM     19  C   UNL     1      -3.651 -11.731  16.379  0.00  0.00    +0.139 C 
BRANCH  19  10
ATOM     10  N   UNL     1      -3.227 -10.564  15.586  0.00  0.00    -0.187 NA
ATOM     30  H   UNL     1      -3.971  -9.902  15.332  0.00  0.00    +0.148 HD
BRANCH  10   2
ATOM      2  S   UNL     1      -1.860 -10.668  14.576  0.00  0.00    +0.058 S 
ATOM      7  O   UNL     1      -1.392 -12.041  14.543  0.00  0.00    -0.153 OA
ATOM      8  O   UNL     1      -0.943  -9.593  14.906  0.00  0.00    -0.153 OA
BRANCH   2  23
ATOM      1 CL   UNL     1      -4.312  -9.324   8.956  0.00  0.00    -0.084 Cl
ATOM     23  C   UNL     1      -2.551 -10.290  12.994  0.00  0.00    +0.105 A 
ATOM     24  C   UNL     1      -1.723  -9.855  11.958  0.00  0.00    +0.030 A 
ATOM     25  C   UNL     1      -3.922 -10.427  12.780  0.00  0.00    +0.030 A 
ATOM     26  C   UNL     1      -2.268  -9.557  10.709  0.00  0.00    +0.022 A 
ATOM     27  C   UNL     1      -4.467 -10.128  11.532  0.00  0.00    +0.022 A 
ATOM     28  C   UNL     1      -3.640  -9.693  10.496  0.00  0.00    +0.041 A 
ENDBRANCH   2  23
ENDBRANCH  10   2
ENDBRANCH  19  10
ENDBRANCH  12  19
BRANCH  16  21
ATOM     21  C   UNL     1      -4.136 -15.840  15.194  0.00  0.00    +0.190 C 
BRANCH  21   6
ATOM      6  O   UNL     1      -2.806 -15.385  15.387  0.00  0.00    -0.392 OA
ATOM     31  H   UNL     1      -2.786 -14.913  16.236  0.00  0.00    +0.210 HD
ENDBRANCH  21   6
ENDBRANCH  16  21
TORSDOF 10
ENDMDL
MODEL 3
REMARK VINA RESULT:      -5.1     24.838     28.293
REMARK  Name = 28961815
REMARK  11 active torsions:
REMARK  status: ('A' for Active; 'I' for Inactive)
REMARK    1  A    between atoms: S_2  and  N_10
REMARK    2  A    between atoms: S_2  and  C_23
REMARK    3  A    between atoms: O_4  and  C_14
REMARK    4  A    between atoms: O_5  and  C_20
REMARK    5  A    between atoms: O_5  and  C_22
REMARK    6  A    between atoms: O_6  and  C_21
REMARK    7  A    between atoms: N_9  and  C_11
REMARK    8  A    between atoms: N_10  and  C_19
REMARK    9  A    between atoms: C_12  and  C_19
REMARK   10  A    between atoms: C_13  and  C_20
REMARK   11  A    between atoms: C_16  and  C_21
REMARK                            x       y       z     vdW  Elec       q    Type
REMARK                         _______ _______ _______ _____ _____    ______ ____
ROOT
ATOM      3  O   UNL     1       9.116   5.482   6.639  0.00  0.00    -0.366 OA
ATOM     11  C   UNL     1      10.733   7.162   6.154  0.00  0.00    +0.118 C 
ATOM     12  C   UNL     1       9.831   6.085   5.537  0.00  0.00    +0.154 C 
ATOM     14  C   UNL     1      10.947   6.657   7.573  0.00  0.00    +0.165 C 
ATOM     16  C   UNL     1       9.573   6.069   7.873  0.00  0.00    +0.174 C 
ENDROOT
BRANCH  11   9
ATOM      9  N   UNL     1      11.945   7.482   5.421  0.00  0.00    -0.289 NA
ATOM     13  C   UNL     1      11.786   8.434   4.316  0.00  0.00    +0.083 C 
ATOM     15  C   UNL     1      13.014   7.991   6.277  0.00  0.00    +0.085 C 
ATOM     17  C   UNL     1      13.245   8.731   3.978  0.00  0.00    +0.022 C 
ATOM     18  C   UNL     1      13.978   8.674   5.314  0.00  0.00    +0.017 C 
BRANCH  13  20
ATOM     20  C   UNL     1      11.013   9.716   4.640  0.00  0.00    +0.178 C 
BRANCH  20   5
ATOM      5  O   UNL     1      10.115   9.984   3.576  0.00  0.00    -0.381 OA
ATOM     22  C   UNL     1       9.742   8.795   2.890  0.00  0.00    +0.194 C 
ENDBRANCH  20   5
ENDBRANCH  13  20
ENDBRANCH  11   9
BRANCH  14   4
ATOM      4  O   UNL     1      11.941   5.641   7.620  0.00  0.00    -0.388 OA
ATOM     29  H   UNL     1      12.284   5.523   6.719  0.00  0.00    +0.210 HD
ENDBRANCH  14   4
BRANCH  12  19
ATOM     19  C   UNL     1      10.529   4.959   4.782  0.00  0.00    +0.139 C 
BRANCH  19  10
ATOM     10  N   UNL     1      10.637   5.320   3.357  0.00  0.00    -0.187 NA
ATOM     30  H   UNL     1      10.091   6.138   3.062  0.00  0.00    +0.148 HD
BRANCH  10   2
ATOM      2  S   UNL     1      10.990   4.124   2.198  0.00  0.00    +0.058 S 
ATOM      7  O   UNL     1      10.031   4.209   1.112  0.00  0.00    -0.153 OA
ATOM      8  O   UNL     1      11.214   2.860   2.874  0.00  0.00    -0.153 OA
BRANCH   2  23
ATOM      1 CL   UNL     1      16.552   6.054   0.021  0.00  0.00    -0.084 Cl
ATOM     23  C   UNL     1      12.556   4.667   1.585  0.00  0.00    +0.105 A 
ATOM     24  C   UNL     1      12.810   6.030   1.433  0.00  0.00    +0.030 A 
ATOM     25  C   UNL     1      13.538   3.733   1.254  0.00  0.00    +0.030 A 
ATOM     26  C   UNL     1      14.046   6.459   0.950  0.00  0.00    +0.022 A 
ATOM     27  C   UNL     1      14.773   4.162   0.770  0.00  0.00    +0.022 A 
ATOM     28  C   UNL     1      15.028   5.525   0.618  0.00  0.00    +0.041 A 
ENDBRANCH   2  23
ENDBRANCH  10   2
ENDBRANCH  19  10
ENDBRANCH  12  19
BRANCH  16  21
ATOM     21  C   UNL     1       9.537   5.020   8.969  0.00  0.00    +0.190 C 
BRANCH  21   6
ATOM      6  O   UNL     1      10.137   3.829   8.484  0.00  0.00    -0.392 OA
ATOM     31  H   UNL     1      11.096   3.918   8.617  0.00  0.00    +0.210 HD
ENDBRANCH  21   6
ENDBRANCH  16  21
TORSDOF 10
ENDMDL
MODEL 4
REMARK VINA RESULT:      -5.0     19.389     22.186
REMARK  Name = 28961815
REMARK  11 active torsions:
REMARK  status: ('A' for Active; 'I' for Inactive)
REMARK    1  A    between atoms: S_2  and  N_10
REMARK    2  A    between atoms: S_2  and  C_23
REMARK    3  A    between atoms: O_4  and  C_14
REMARK    4  A    between atoms: O_5  and  C_20
REMARK    5  A    between atoms: O_5  and  C_22
REMARK    6  A    between atoms: O_6  and  C_21
REMARK    7  A    between atoms: N_9  and  C_11
REMARK    8  A    between atoms: N_10  and  C_19
REMARK    9  A    between atoms: C_12  and  C_19
REMARK   10  A    between atoms: C_13  and  C_20
REMARK   11  A    between atoms: C_16  and  C_21
REMARK                            x       y       z     vdW  Elec       q    Type
REMARK                         _______ _______ _______ _____ _____    ______ ____
ROOT
ATOM      3  O   UNL     1     -10.251   9.112  16.495  0.00  0.00    -0.366 OA
ATOM     11  C   UNL     1     -10.104  11.454  16.090  0.00  0.00    +0.118 C 
ATOM     12  C   UNL     1      -9.748  10.335  17.078  0.00  0.00    +0.154 C 
ATOM     14  C   UNL     1     -11.321  10.898  15.367  0.00  0.00    +0.165 C 
ATOM     16  C   UNL     1     -10.942   9.425  15.269  0.00  0.00    +0.174 C 
ENDROOT
BRANCH  11   9
ATOM      9  N   UNL     1     -10.273  12.780  16.657  0.00  0.00    -0.289 NA
ATOM     13  C   UNL     1      -9.064  13.386  17.226  0.00  0.00    +0.083 C 
ATOM     15  C   UNL     1     -10.829  13.742  15.707  0.00  0.00    +0.085 C 
ATOM     17  C   UNL     1      -9.539  14.819  17.457  0.00  0.00    +0.022 C 
ATOM     18  C   UNL     1     -10.504  15.103  16.311  0.00  0.00    +0.017 C 
BRANCH  13  20
ATOM     20  C   UNL     1      -7.812  13.346  16.344  0.00  0.00    +0.178 C 
BRANCH  20   5
ATOM      5  O   UNL     1      -6.718  13.857  17.086  0.00  0.00    -0.381 OA
ATOM     22  C   UNL     1      -5.654  14.270  16.238  0.00  0.00    +0.194 C 
ENDBRANCH  20   5
ENDBRANCH  13  20
ENDBRANCH  11   9
BRANCH  14   4
ATOM      4  O   UNL     1     -12.504  11.054  16.141  0.00  0.00    -0.388 OA
ATOM     29  H   UNL     1     -13.241  10.677  15.632  0.00  0.00    +0.210 HD
ENDBRANCH  14   4
BRANCH  12  19
ATOM     19  C   UNL     1     -10.340  10.445  18.479  0.00  0.00    +0.139 C 
BRANCH  19  10
ATOM     10  N   UNL     1     -11.350   9.388  18.666  0.00  0.00    -0.187 NA
ATOM     30  H   UNL     1     -11.321   8.618  17.987  0.00  0.00    +0.148 HD
BRANCH  10   2
ATOM      2  S   UNL     1     -12.837   9.750  19.413  0.00  0.00    +0.058 S 
ATOM      7  O   UNL     1     -13.881   9.795  18.408  0.00  0.00    -0.153 OA
ATOM      8  O   UNL     1     -12.651  10.867  20.321  0.00  0.00    -0.153 OA
BRANCH   2  23
ATOM      1 CL   UNL     1     -13.773   4.648  22.948  0.00  0.00    -0.084 Cl
ATOM     23  C   UNL     1     -13.100   8.313  20.409  0.00  0.00    +0.105 A 
ATOM     24  C   UNL     1     -14.305   8.151  21.092  0.00  0.00    +0.030 A 
ATOM     25  C   UNL     1     -12.104   7.343  20.510  0.00  0.00    +0.030 A 
ATOM     26  C   UNL     1     -14.513   7.017  21.877  0.00  0.00    +0.022 A 
ATOM     27  C   UNL     1     -12.312   6.210  21.295  0.00  0.00    +0.022 A 
ATOM     28  C   UNL     1     -13.516   6.046  21.979  0.00  0.00    +0.041 A 
ENDBRANCH   2  23
ENDBRANCH  10   2
ENDBRANCH  19  10
ENDBRANCH  12  19
BRANCH  16  21
ATOM     21  C   UNL     1     -12.102   8.462  15.089  0.00  0.00    +0.190 C 
BRANCH  21   6
ATOM      6  O   UNL     1     -12.557   8.050  16.368  0.00  0.00    -0.392 OA
ATOM     31  H   UNL     1     -12.447   7.085  16.413  0.00  0.00    +0.210 HD
ENDBRANCH  21   6
ENDBRANCH  16  21
TORSDOF 10
ENDMDL
MODEL 5
REMARK VINA RESULT:      -5.0     24.821     28.215
REMARK  Name = 28961815
REMARK  11 active torsions:
REMARK  status: ('A' for Active; 'I' for Inactive)
REMARK    1  A    between atoms: S_2  and  N_10
REMARK    2  A    between atoms: S_2  and  C_23
REMARK    3  A    between atoms: O_4  and  C_14
REMARK    4  A    between atoms: O_5  and  C_20
REMARK    5  A    between atoms: O_5  and  C_22
REMARK    6  A    between atoms: O_6  and  C_21
REMARK    7  A    between atoms: N_9  and  C_11
REMARK    8  A    between atoms: N_10  and  C_19
REMARK    9  A    between atoms: C_12  and  C_19
REMARK   10  A    between atoms: C_13  and  C_20
REMARK   11  A    between atoms: C_16  and  C_21
REMARK                            x       y       z     vdW  Elec       q    Type
REMARK                         _______ _______ _______ _____ _____    ______ ____
ROOT
ATOM      3  O   UNL     1       9.222   5.509   6.586  0.00  0.00    -0.366 OA
ATOM     11  C   UNL     1      10.638   7.423   6.566  0.00  0.00    +0.118 C 
ATOM     12  C   UNL     1       9.880   6.424   5.681  0.00  0.00    +0.154 C 
ATOM     14  C   UNL     1      10.886   6.632   7.841  0.00  0.00    +0.165 C 
ATOM     16  C   UNL     1       9.586   5.843   7.940  0.00  0.00    +0.174 C 
ENDROOT
BRANCH  11   9
ATOM      9  N   UNL     1      11.816   8.035   5.977  0.00  0.00    -0.289 NA
ATOM     13  C   UNL     1      11.568   9.206   5.129  0.00  0.00    +0.083 C 
ATOM     15  C   UNL     1      12.814   8.428   6.971  0.00  0.00    +0.085 C 
ATOM     17  C   UNL     1      12.989   9.725   4.928  0.00  0.00    +0.022 C 
ATOM     18  C   UNL     1      13.709   9.420   6.238  0.00  0.00    +0.017 C 
BRANCH  13  20
ATOM     20  C   UNL     1      10.655  10.284   5.722  0.00  0.00    +0.178 C 
BRANCH  20   5
ATOM      5  O   UNL     1       9.725  10.685   4.731  0.00  0.00    -0.381 OA
ATOM     22  C   UNL     1       9.472   9.645   3.794  0.00  0.00    +0.194 C 
ENDBRANCH  20   5
ENDBRANCH  13  20
ENDBRANCH  11   9
BRANCH  14   4
ATOM      4  O   UNL     1      11.991   5.749   7.700  0.00  0.00    -0.388 OA
ATOM     29  H   UNL     1      12.803   6.277   7.787  0.00  0.00    +0.210 HD
ENDBRANCH  14   4
BRANCH  12  19
ATOM     19  C   UNL     1      10.719   5.586   4.722  0.00  0.00    +0.139 C 
BRANCH  19  10
ATOM     10  N   UNL     1      10.573   6.116   3.355  0.00  0.00    -0.187 NA
ATOM     30  H   UNL     1       9.749   5.790   2.835  0.00  0.00    +0.148 HD
BRANCH  10   2
ATOM      2  S   UNL     1      11.949   6.592   2.472  0.00  0.00    +0.058 S 
ATOM      7  O   UNL     1      13.130   6.421   3.296  0.00  0.00    -0.153 OA
ATOM      8  O   UNL     1      11.684   7.868   1.833  0.00  0.00    -0.153 OA
BRANCH   2  23
ATOM      1 CL   UNL     1      12.118   2.262  -2.070  0.00  0.00    -0.084 Cl
ATOM     23  C   UNL     1      11.996   5.373   1.193  0.00  0.00    +0.105 A 
ATOM     24  C   UNL     1      13.044   4.454   1.145  0.00  0.00    +0.030 A 
ATOM     25  C   UNL     1      10.986   5.330   0.233  0.00  0.00    +0.030 A 
ATOM     26  C   UNL     1      13.081   3.492   0.136  0.00  0.00    +0.022 A 
ATOM     27  C   UNL     1      11.024   4.368  -0.776  0.00  0.00    +0.022 A 
ATOM     28  C   UNL     1      12.071   3.448  -0.825  0.00  0.00    +0.041 A 
ENDBRANCH   2  23
ENDBRANCH  10   2
ENDBRANCH  19  10
ENDBRANCH  12  19
BRANCH  16  21
ATOM     21  C   UNL     1       9.654   4.572   8.767  0.00  0.00    +0.190 C 
BRANCH  21   6
ATOM      6  O   UNL     1      10.418   3.607   8.061  0.00  0.00    -0.392 OA
ATOM     31  H   UNL     1       9.803   3.123   7.484  0.00  0.00    +0.210 HD
ENDBRANCH  21   6
ENDBRANCH  16  21
TORSDOF 10
ENDMDL
MODEL 6
REMARK VINA RESULT:      -4.9      2.366      2.849
REMARK  Name = 28961815
REMARK  11 active torsions:
REMARK  status: ('A' for Active; 'I' for Inactive)
REMARK    1  A    between atoms: S_2  and  N_10
REMARK    2  A    between atoms: S_2  and  C_23
REMARK    3  A    between atoms: O_4  and  C_14
REMARK    4  A    between atoms: O_5  and  C_20
REMARK    5  A    between atoms: O_5  and  C_22
REMARK    6  A    between atoms: O_6  and  C_21
REMARK    7  A    between atoms: N_9  and  C_11
REMARK    8  A    between atoms: N_10  and  C_19
REMARK    9  A    between atoms: C_12  and  C_19
REMARK   10  A    between atoms: C_13  and  C_20
REMARK   11  A    between atoms: C_16  and  C_21
REMARK                            x       y       z     vdW  Elec       q    Type
REMARK                         _______ _______ _______ _____ _____    ______ ____
ROOT
ATOM      3  O   UNL     1      -5.208 -10.111  18.278  0.00  0.00    -0.366 OA
ATOM     11  C   UNL     1      -4.458 -11.793  16.769  0.00  0.00    +0.118 C 
ATOM     12  C   UNL     1      -4.890 -10.324  16.885  0.00  0.00    +0.154 C 
ATOM     14  C   UNL     1      -5.173 -12.454  17.937  0.00  0.00    +0.165 C 
ATOM     16  C   UNL     1      -5.066 -11.357  18.989  0.00  0.00    +0.174 C 
ENDROOT
BRANCH  11   9
ATOM      9  N   UNL     1      -4.667 -12.423  15.477  0.00  0.00    -0.289 NA
ATOM     13  C   UNL     1      -3.808 -11.942  14.389  0.00  0.00    +0.083 C 
ATOM     15  C   UNL     1      -4.531 -13.877  15.521  0.00  0.00    +0.085 C 
ATOM     17  C   UNL     1      -4.101 -12.980  13.308  0.00  0.00    +0.022 C 
ATOM     18  C   UNL     1      -4.329 -14.284  14.067  0.00  0.00    +0.017 C 
BRANCH  13  20
ATOM     20  C   UNL     1      -2.310 -11.864  14.700  0.00  0.00    +0.178 C 
BRANCH  20   5
ATOM      5  O   UNL     1      -1.904 -10.507  14.634  0.00  0.00    -0.381 OA
ATOM     22  C   UNL     1      -1.042 -10.163  15.711  0.00  0.00    +0.194 C 
ENDBRANCH  20   5
ENDBRANCH  13  20
ENDBRANCH  11   9
BRANCH  14   4
ATOM      4  O   UNL     1      -6.537 -12.717  17.632  0.00  0.00    -0.388 OA
ATOM     29  H   UNL     1      -6.903 -11.920  17.211  0.00  0.00    +0.210 HD
ENDBRANCH  14   4
BRANCH  12  19
ATOM     19  C   UNL     1      -6.111  -9.905  16.073  0.00  0.00    +0.139 C 
BRANCH  19  10
ATOM     10  N   UNL     1      -7.225  -9.601  16.988  0.00  0.00    -0.187 NA
ATOM     30  H   UNL     1      -7.095  -9.897  17.963  0.00  0.00    +0.148 HD
BRANCH  10   2
ATOM      2  S   UNL     1      -8.813  -9.474  16.388  0.00  0.00    +0.058 S 
ATOM      7  O   UNL     1      -8.931 -10.258  15.173  0.00  0.00    -0.153 OA
ATOM      8  O   UNL     1      -9.213  -8.079  16.397  0.00  0.00    -0.153 OA
BRANCH   2  23
ATOM      1 CL   UNL     1     -12.116 -12.361  20.879  0.00  0.00    -0.084 Cl
ATOM     23  C   UNL     1      -9.743 -10.286  17.653  0.00  0.00    +0.105 A 
ATOM     24  C   UNL     1      -9.734 -11.679  17.738  0.00  0.00    +0.030 A 
ATOM     25  C   UNL     1     -10.485  -9.536  18.565  0.00  0.00    +0.030 A 
ATOM     26  C   UNL     1     -10.468 -12.320  18.736  0.00  0.00    +0.022 A 
ATOM     27  C   UNL     1     -11.219 -10.177  19.562  0.00  0.00    +0.022 A 
ATOM     28  C   UNL     1     -11.211 -11.570  19.648  0.00  0.00    +0.041 A 
ENDBRANCH   2  23
ENDBRANCH  10   2
ENDBRANCH  19  10
ENDBRANCH  12  19
BRANCH  16  21
ATOM     21  C   UNL     1      -6.097 -11.417  20.102  0.00  0.00    +0.190 C 
BRANCH  21   6
ATOM      6  O   UNL     1      -7.089 -10.431  19.862  0.00  0.00    -0.392 OA
ATOM     31  H   UNL     1      -6.654  -9.696  19.399  0.00  0.00    +0.210 HD
ENDBRANCH  21   6
ENDBRANCH  16  21
TORSDOF 10
ENDMDL
MODEL 7
REMARK VINA RESULT:      -4.9      3.718      7.383
REMARK  Name = 28961815
REMARK  11 active torsions:
REMARK  status: ('A' for Active; 'I' for Inactive)
REMARK    1  A    between atoms: S_2  and  N_10
REMARK    2  A    between atoms: S_2  and  C_23
REMARK    3  A    between atoms: O_4  and  C_14
REMARK    4  A    between atoms: O_5  and  C_20
REMARK    5  A    between atoms: O_5  and  C_22
REMARK    6  A    between atoms: O_6  and  C_21
REMARK    7  A    between atoms: N_9  and  C_11
REMARK    8  A    between atoms: N_10  and  C_19
REMARK    9  A    between atoms: C_12  and  C_19
REMARK   10  A    between atoms: C_13  and  C_20
REMARK   11  A    between atoms: C_16  and  C_21
REMARK                            x       y       z     vdW  Elec       q    Type
REMARK                         _______ _______ _______ _____ _____    ______ ____
ROOT
ATOM      3  O   UNL     1      -7.172  -9.266  16.909  0.00  0.00    -0.366 OA
ATOM     11  C   UNL     1      -8.945 -10.652  17.687  0.00  0.00    +0.118 C 
ATOM     12  C   UNL     1      -7.775  -9.761  18.126  0.00  0.00    +0.154 C 
ATOM     14  C   UNL     1      -8.524 -11.112  16.299  0.00  0.00    +0.165 C 
ATOM     16  C   UNL     1      -7.848  -9.849  15.778  0.00  0.00    +0.174 C 
ENDROOT
BRANCH  11   9
ATOM      9  N   UNL     1      -9.322 -11.713  18.604  0.00  0.00    -0.289 NA
ATOM     13  C   UNL     1      -9.988 -11.280  19.837  0.00  0.00    +0.083 C 
ATOM     15  C   UNL     1     -10.177 -12.726  17.987  0.00  0.00    +0.085 C 
ATOM     17  C   UNL     1     -10.468 -12.619  20.393  0.00  0.00    +0.022 C 
ATOM     18  C   UNL     1     -10.813 -13.454  19.164  0.00  0.00    +0.017 C 
BRANCH  13  20
ATOM     20  C   UNL     1     -11.150 -10.296  19.664  0.00  0.00    +0.178 C 
BRANCH  20   5
ATOM      5  O   UNL     1     -12.196 -10.671  20.545  0.00  0.00    -0.381 OA
ATOM     22  C   UNL     1     -13.149  -9.628  20.705  0.00  0.00    +0.194 C 
ENDBRANCH  20   5
ENDBRANCH  13  20
ENDBRANCH  11   9
BRANCH  14   4
ATOM      4  O   UNL     1      -7.590 -12.182  16.366  0.00  0.00    -0.388 OA
ATOM     29  H   UNL     1      -7.086 -12.185  15.536  0.00  0.00    +0.210 HD
ENDBRANCH  14   4
BRANCH  12  19
ATOM     19  C   UNL     1      -6.672 -10.432  18.937  0.00  0.00    +0.139 C 
BRANCH  19  10
ATOM     10  N   UNL     1      -5.434 -10.470  18.139  0.00  0.00    -0.187 NA
ATOM     30  H   UNL     1      -5.397  -9.824  17.341  0.00  0.00    +0.148 HD
BRANCH  10   2
ATOM      2  S   UNL     1      -4.510 -11.899  18.065  0.00  0.00    +0.058 S 
ATOM      7  O   UNL     1      -5.399 -13.044  18.020  0.00  0.00    -0.153 OA
ATOM      8  O   UNL     1      -3.456 -11.833  19.059  0.00  0.00    -0.153 OA
BRANCH   2  23
ATOM      1 CL   UNL     1      -1.765 -11.359  12.445  0.00  0.00    -0.084 Cl
ATOM     23  C   UNL     1      -3.737 -11.747  16.482  0.00  0.00    +0.105 A 
ATOM     24  C   UNL     1      -2.732 -10.800  16.286  0.00  0.00    +0.030 A 
ATOM     25  C   UNL     1      -4.132 -12.574  15.431  0.00  0.00    +0.030 A 
ATOM     26  C   UNL     1      -2.122 -10.681  15.037  0.00  0.00    +0.022 A 
ATOM     27  C   UNL     1      -3.523 -12.453  14.182  0.00  0.00    +0.022 A 
ATOM     28  C   UNL     1      -2.517 -11.507  13.985  0.00  0.00    +0.041 A 
ENDBRANCH   2  23
ENDBRANCH  10   2
ENDBRANCH  19  10
ENDBRANCH  12  19
BRANCH  16  21
ATOM     21  C   UNL     1      -6.851 -10.060  14.653  0.00  0.00    +0.190 C 
BRANCH  21   6
ATOM      6  O   UNL     1      -5.626  -9.436  15.004  0.00  0.00    -0.392 OA
ATOM     31  H   UNL     1      -5.847  -8.639  15.514  0.00  0.00    +0.210 HD
ENDBRANCH  21   6
ENDBRANCH  16  21
TORSDOF 10
ENDMDL
MODEL 8
REMARK VINA RESULT:      -4.9      3.929      6.459
REMARK  Name = 28961815
REMARK  11 active torsions:
REMARK  status: ('A' for Active; 'I' for Inactive)
REMARK    1  A    between atoms: S_2  and  N_10
REMARK    2  A    between atoms: S_2  and  C_23
REMARK    3  A    between atoms: O_4  and  C_14
REMARK    4  A    between atoms: O_5  and  C_20
REMARK    5  A    between atoms: O_5  and  C_22
REMARK    6  A    between atoms: O_6  and  C_21
REMARK    7  A    between atoms: N_9  and  C_11
REMARK    8  A    between atoms: N_10  and  C_19
REMARK    9  A    between atoms: C_12  and  C_19
REMARK   10  A    between atoms: C_13  and  C_20
REMARK   11  A    between atoms: C_16  and  C_21
REMARK                            x       y       z     vdW  Elec       q    Type
REMARK                         _______ _______ _______ _____ _____    ______ ____
ROOT
ATOM      3  O   UNL     1      -2.537 -11.901  14.747  0.00  0.00    -0.366 OA
ATOM     11  C   UNL     1      -4.436 -12.106  16.169  0.00  0.00    +0.118 C 
ATOM     12  C   UNL     1      -3.916 -12.333  14.743  0.00  0.00    +0.154 C 
ATOM     14  C   UNL     1      -3.545 -10.986  16.684  0.00  0.00    +0.165 C 
ATOM     16  C   UNL     1      -2.215 -11.369  16.047  0.00  0.00    +0.174 C 
ENDROOT
BRANCH  11   9
ATOM      9  N   UNL     1      -5.863 -11.874  16.303  0.00  0.00    -0.289 NA
ATOM     13  C   UNL     1      -6.722 -13.039  16.058  0.00  0.00    +0.083 C 
ATOM     15  C   UNL     1      -6.235 -11.333  17.608  0.00  0.00    +0.085 C 
ATOM     17  C   UNL     1      -8.069 -12.512  16.545  0.00  0.00    +0.022 C 
ATOM     18  C   UNL     1      -7.734 -11.590  17.713  0.00  0.00    +0.017 C 
BRANCH  13  20
ATOM     20  C   UNL     1      -6.328 -14.329  16.785  0.00  0.00    +0.178 C 
BRANCH  20   5
ATOM      5  O   UNL     1      -6.531 -15.423  15.907  0.00  0.00    -0.381 OA
ATOM     22  C   UNL     1      -5.364 -15.710  15.146  0.00  0.00    +0.194 C 
ENDBRANCH  20   5
ENDBRANCH  13  20
ENDBRANCH  11   9
BRANCH  14   4
ATOM      4  O   UNL     1      -3.976  -9.717  16.208  0.00  0.00    -0.388 OA
ATOM     29  H   UNL     1      -3.843  -9.704  15.245  0.00  0.00    +0.210 HD
ENDBRANCH  14   4
BRANCH  12  19
ATOM     19  C   UNL     1      -4.625 -11.572  13.629  0.00  0.00    +0.139 C 
BRANCH  19  10
ATOM     10  N   UNL     1      -3.720 -10.542  13.088  0.00  0.00    -0.187 NA
ATOM     30  H   UNL     1      -3.926  -9.576  13.366  0.00  0.00    +0.148 HD
BRANCH  10   2
ATOM      2  S   UNL     1      -2.916 -10.803  11.610  0.00  0.00    +0.058 S 
ATOM      7  O   UNL     1      -2.752 -12.229  11.397  0.00  0.00    -0.153 OA
ATOM      8  O   UNL     1      -1.768  -9.918  11.532  0.00  0.00    -0.153 OA
BRANCH   2  23
ATOM      1 CL   UNL     1      -7.138  -8.700   7.468  0.00  0.00    -0.084 Cl
ATOM     23  C   UNL     1      -4.104 -10.211  10.443  0.00  0.00    +0.105 A 
ATOM     24  C   UNL     1      -4.774  -9.010  10.679  0.00  0.00    +0.030 A 
ATOM     25  C   UNL     1      -4.372 -10.944   9.287  0.00  0.00    +0.030 A 
ATOM     26  C   UNL     1      -5.711  -8.543   9.759  0.00  0.00    +0.022 A 
ATOM     27  C   UNL     1      -5.311 -10.477   8.368  0.00  0.00    +0.022 A 
ATOM     28  C   UNL     1      -5.980  -9.276   8.603  0.00  0.00    +0.041 A 
ENDBRANCH   2  23
ENDBRANCH  10   2
ENDBRANCH  19  10
ENDBRANCH  12  19
BRANCH  16  21
ATOM     21  C   UNL     1      -1.216 -10.236  15.891  0.00  0.00    +0.190 C 
BRANCH  21   6
ATOM      6  O   UNL     1      -1.430  -9.607  14.637  0.00  0.00    -0.392 OA
ATOM     31  H   UNL     1      -1.177 -10.246  13.950  0.00  0.00    +0.210 HD
ENDBRANCH  21   6
ENDBRANCH  16  21
TORSDOF 10
ENDMDL
MODEL 9
REMARK VINA RESULT:      -4.8      2.375      2.864
REMARK  Name = 28961815
REMARK  11 active torsions:
REMARK  status: ('A' for Active; 'I' for Inactive)
REMARK    1  A    between atoms: S_2  and  N_10
REMARK    2  A    between atoms: S_2  and  C_23
REMARK    3  A    between atoms: O_4  and  C_14
REMARK    4  A    between atoms: O_5  and  C_20
REMARK    5  A    between atoms: O_5  and  C_22
REMARK    6  A    between atoms: O_6  and  C_21
REMARK    7  A    between atoms: N_9  and  C_11
REMARK    8  A    between atoms: N_10  and  C_19
REMARK    9  A    between atoms: C_12  and  C_19
REMARK   10  A    between atoms: C_13  and  C_20
REMARK   11  A    between atoms: C_16  and  C_21
REMARK                            x       y       z     vdW  Elec       q    Type
REMARK                         _______ _______ _______ _____ _____    ______ ____
ROOT
ATOM      3  O   UNL     1      -5.007 -10.175  18.293  0.00  0.00    -0.366 OA
ATOM     11  C   UNL     1      -4.450 -11.913  16.764  0.00  0.00    +0.118 C 
ATOM     12  C   UNL     1      -4.685 -10.403  16.903  0.00  0.00    +0.154 C 
ATOM     14  C   UNL     1      -5.276 -12.495  17.901  0.00  0.00    +0.165 C 
ATOM     16  C   UNL     1      -5.050 -11.441  18.980  0.00  0.00    +0.174 C 
ENDROOT
BRANCH  11   9
ATOM      9  N   UNL     1      -4.708 -12.485  15.454  0.00  0.00    -0.289 NA
ATOM     13  C   UNL     1      -3.853 -11.996  14.367  0.00  0.00    +0.083 C 
ATOM     15  C   UNL     1      -4.628 -13.944  15.441  0.00  0.00    +0.085 C 
ATOM     17  C   UNL     1      -4.207 -12.980  13.255  0.00  0.00    +0.022 C 
ATOM     18  C   UNL     1      -4.470 -14.303  13.969  0.00  0.00    +0.017 C 
BRANCH  13  20
ATOM     20  C   UNL     1      -2.347 -11.986  14.649  0.00  0.00    +0.178 C 
BRANCH  20   5
ATOM      5  O   UNL     1      -1.883 -10.649  14.583  0.00  0.00    -0.381 OA
ATOM     22  C   UNL     1      -1.090 -10.311  15.715  0.00  0.00    +0.194 C 
ENDBRANCH  20   5
ENDBRANCH  13  20
ENDBRANCH  11   9
BRANCH  14   4
ATOM      4  O   UNL     1      -6.654 -12.567  17.560  0.00  0.00    -0.388 OA
ATOM     29  H   UNL     1      -6.911 -11.706  17.191  0.00  0.00    +0.210 HD
ENDBRANCH  14   4
BRANCH  12  19
ATOM     19  C   UNL     1      -5.819  -9.809  16.073  0.00  0.00    +0.139 C 
BRANCH  19  10
ATOM     10  N   UNL     1      -6.923  -9.417  16.966  0.00  0.00    -0.187 NA
ATOM     30  H   UNL     1      -6.687  -9.344  17.963  0.00  0.00    +0.148 HD
BRANCH  10   2
ATOM      2  S   UNL     1      -8.533  -9.775  16.542  0.00  0.00    +0.058 S 
ATOM      7  O   UNL     1      -9.287  -8.541  16.434  0.00  0.00    -0.153 OA
ATOM      8  O   UNL     1      -9.016 -10.853  17.386  0.00  0.00    -0.153 OA
BRANCH   2  23
ATOM      1 CL   UNL     1      -7.843 -12.133  10.766  0.00  0.00    -0.084 Cl
ATOM     23  C   UNL     1      -8.338 -10.440  14.916  0.00  0.00    +0.105 A 
ATOM     24  C   UNL     1      -8.383  -9.593  13.808  0.00  0.00    +0.030 A 
ATOM     25  C   UNL     1      -8.140 -11.809  14.741  0.00  0.00    +0.030 A 
ATOM     26  C   UNL     1      -8.230 -10.117  12.525  0.00  0.00    +0.022 A 
ATOM     27  C   UNL     1      -7.987 -12.333  13.457  0.00  0.00    +0.022 A 
ATOM     28  C   UNL     1      -8.031 -11.487  12.349  0.00  0.00    +0.041 A 
ENDBRANCH   2  23
ENDBRANCH  10   2
ENDBRANCH  19  10
ENDBRANCH  12  19
BRANCH  16  21
ATOM     21  C   UNL     1      -6.107 -11.385  20.068  0.00  0.00    +0.190 C 
BRANCH  21   6
ATOM      6  O   UNL     1      -7.024 -10.346  19.762  0.00  0.00    -0.392 OA
ATOM     31  H   UNL     1      -6.530  -9.661  19.280  0.00  0.00    +0.210 HD
ENDBRANCH  21   6
ENDBRANCH  16  21
TORSDOF 10
ENDMDL
MODEL 10
REMARK VINA RESULT:      -4.8     29.782     32.637
REMARK  Name = 28961815
REMARK  11 active torsions:
REMARK  status: ('A' for Active; 'I' for Inactive)
REMARK    1  A    between atoms: S_2  and  N_10
REMARK    2  A    between atoms: S_2  and  C_23
REMARK    3  A    between atoms: O_4  and  C_14
REMARK    4  A    between atoms: O_5  and  C_20
REMARK    5  A    between atoms: O_5  and  C_22
REMARK    6  A    between atoms: O_6  and  C_21
REMARK    7  A    between atoms: N_9  and  C_11
REMARK    8  A    between atoms: N_10  and  C_19
REMARK    9  A    between atoms: C_12  and  C_19
REMARK   10  A    between atoms: C_13  and  C_20
REMARK   11  A    between atoms: C_16  and  C_21
REMARK                            x       y       z     vdW  Elec       q    Type
REMARK                         _______ _______ _______ _____ _____    ______ ____
ROOT
ATOM      3  O   UNL     1      23.008   6.009  19.967  0.00  0.00    -0.366 OA
ATOM     11  C   UNL     1      23.514   4.839  21.977  0.00  0.00    +0.118 C 
ATOM     12  C   UNL     1      22.693   4.793  20.682  0.00  0.00    +0.154 C 
ATOM     14  C   UNL     1      23.716   6.330  22.203  0.00  0.00    +0.165 C 
ATOM     16  C   UNL     1      23.899   6.809  20.768  0.00  0.00    +0.174 C 
ENDROOT
BRANCH  11   9
ATOM      9  N   UNL     1      22.969   4.109  23.109  0.00  0.00    -0.289 NA
ATOM     13  C   UNL     1      22.938   2.649  22.967  0.00  0.00    +0.083 C 
ATOM     15  C   UNL     1      23.656   4.405  24.365  0.00  0.00    +0.085 C 
ATOM     17  C   UNL     1      22.585   2.228  24.392  0.00  0.00    +0.022 C 
ATOM     18  C   UNL     1      23.271   3.255  25.287  0.00  0.00    +0.017 C 
BRANCH  13  20
ATOM     20  C   UNL     1      24.238   1.991  22.494  0.00  0.00    +0.178 C 
BRANCH  20   5
ATOM      5  O   UNL     1      24.313   0.688  23.045  0.00  0.00    -0.381 OA
ATOM     22  C   UNL     1      25.657   0.306  23.312  0.00  0.00    +0.194 C 
ENDBRANCH  20   5
ENDBRANCH  13  20
ENDBRANCH  11   9
BRANCH  14   4
ATOM      4  O   UNL     1      22.564   6.929  22.782  0.00  0.00    -0.388 OA
ATOM     29  H   UNL     1      21.800   6.367  22.568  0.00  0.00    +0.210 HD
ENDBRANCH  14   4
BRANCH  12  19
ATOM     19  C   UNL     1      21.177   4.738  20.835  0.00  0.00    +0.139 C 
BRANCH  19  10
ATOM     10  N   UNL     1      20.595   6.019  20.396  0.00  0.00    -0.187 NA
ATOM     30  H   UNL     1      21.070   6.479  19.610  0.00  0.00    +0.148 HD
BRANCH  10   2
ATOM      2  S   UNL     1      19.736   6.990  21.500  0.00  0.00    +0.058 S 
ATOM      7  O   UNL     1      20.277   8.336  21.477  0.00  0.00    -0.153 OA
ATOM      8  O   UNL     1      19.608   6.278  22.757  0.00  0.00    -0.153 OA
BRANCH   2  23
ATOM      1 CL   UNL     1      14.028   7.154  18.894  0.00  0.00    -0.084 Cl
ATOM     23  C   UNL     1      18.129   7.036  20.765  0.00  0.00    +0.105 A 
ATOM     24  C   UNL     1      17.191   7.973  21.200  0.00  0.00    +0.030 A 
ATOM     25  C   UNL     1      17.799   6.136  19.752  0.00  0.00    +0.030 A 
ATOM     26  C   UNL     1      15.923   8.009  20.620  0.00  0.00    +0.022 A 
ATOM     27  C   UNL     1      16.531   6.172  19.174  0.00  0.00    +0.022 A 
ATOM     28  C   UNL     1      15.592   7.109  19.607  0.00  0.00    +0.041 A 
ENDBRANCH   2  23
ENDBRANCH  10   2
ENDBRANCH  19  10
ENDBRANCH  12  19
BRANCH  16  21
ATOM     21  C   UNL     1      23.604   8.278  20.527  0.00  0.00    +0.190 C 
BRANCH  21   6
ATOM      6  O   UNL     1      22.584   8.387  19.547  0.00  0.00    -0.392 OA
ATOM     31  H   UNL     1      21.777   8.006  19.932  0.00  0.00    +0.210 HD
ENDBRANCH  21   6
ENDBRANCH  16  21
TORSDOF 10
ENDMDL
