MODEL 1
REMARK VINA RESULT:      -6.5      0.000      0.000
REMARK  Name = 44716920
REMARK  14 active torsions:
REMARK  status: ('A' for Active; 'I' for Inactive)
REMARK    1  A    between atoms: O_1  and  C_16
REMARK    2  A    between atoms: O_1  and  C_25
REMARK    3  A    between atoms: O_2  and  C_17
REMARK    4  A    between atoms: O_3  and  C_21
REMARK    5  A    between atoms: N_8  and  C_30
REMARK    6  A    between atoms: N_9  and  C_28
REMARK    7  A    between atoms: C_10  and  C_20
REMARK    8  A    between atoms: C_12  and  C_21
REMARK    9  A    between atoms: C_12  and  C_23
REMARK   10  A    between atoms: C_13  and  C_22
REMARK   11  A    between atoms: C_22  and  C_24
REMARK   12  A    between atoms: C_30  and  C_32
REMARK   13  A    between atoms: C_31  and  C_33
REMARK   14  A    between atoms: C_32  and  C_34
REMARK                            x       y       z     vdW  Elec       q    Type
REMARK                         _______ _______ _______ _____ _____    ______ ____
ROOT
ATOM     10  C   UNL     1      17.574   7.175  20.765  0.00  0.00    -0.023 C 
ATOM     11  C   UNL     1      16.846   8.574  20.720  0.00  0.00    +0.007 C 
ATOM     12  C   UNL     1      15.298   8.557  20.414  0.00  0.00    +0.031 C 
ATOM     13  C   UNL     1      19.132   7.466  20.762  0.00  0.00    +0.032 C 
ATOM     14  C   UNL     1      17.200   6.385  19.483  0.00  0.00    +0.011 C 
ATOM     15  C   UNL     1      17.253   9.448  21.926  0.00  0.00    +0.007 C 
ATOM     16  C   UNL     1      15.044   7.669  19.158  0.00  0.00    +0.186 C 
ATOM     17  C   UNL     1      19.585   8.410  21.900  0.00  0.00    +0.119 C 
ATOM     18  C   UNL     1      15.699   6.295  19.231  0.00  0.00    +0.046 C 
ATOM     19  C   UNL     1      18.763   9.695  21.946  0.00  0.00    +0.032 C 
ATOM     20  C   UNL     1      17.184   6.313  21.990  0.00  0.00    +0.012 C 
ATOM     23  C   UNL     1      14.832  10.001  20.066  0.00  0.00    +0.017 C 
ENDROOT
BRANCH  17   2
ATOM      2  O   UNL     1      19.522   7.753  23.162  0.00  0.00    -0.391 OA
ATOM     35  H   UNL     1      20.410   7.412  23.363  0.00  0.00    +0.210 HD
ENDBRANCH  17   2
BRANCH  16   1
ATOM      1  O   UNL     1      13.651   7.458  18.932  0.00  0.00    -0.446 OA
BRANCH   1  25
ATOM      5  O   UNL     1      12.087   7.439  17.250  0.00  0.00    -0.226 OA
ATOM      8  N   UNL     1      14.156   8.453  16.979  0.00  0.00    -0.281 N 
ATOM     25  C   UNL     1      13.193   7.755  17.677  0.00  0.00    +0.401 C 
ATOM     37  H   UNL     1      15.033   8.656  17.450  0.00  0.00    +0.152 HD
BRANCH   8  30
ATOM     30  C   UNL     1      13.985   8.917  15.622  0.00  0.00    +0.107 C 
BRANCH  30  32
ATOM     32  C   UNL     1      14.624  10.281  15.390  0.00  0.00    +0.015 C 
ATOM     34  C   UNL     1      14.366  11.254  16.531  0.00  0.00    +0.005 C 
ENDBRANCH  30  32
ENDBRANCH   8  30
ENDBRANCH   1  25
ENDBRANCH  16   1
BRANCH  12  21
ATOM     21  C   UNL     1      14.426   8.110  21.605  0.00  0.00    +0.166 C 
BRANCH  21   3
ATOM      3  O   UNL     1      13.175   8.752  21.490  0.00  0.00    -0.394 OA
ATOM     36  H   UNL     1      13.316   9.571  20.984  0.00  0.00    +0.209 HD
ENDBRANCH  21   3
ENDBRANCH  12  21
BRANCH  13  22
ATOM     22  C   UNL     1      20.023   6.213  20.740  0.00  0.00    +0.102 C 
BRANCH  22  24
ATOM      4  O   UNL     1      21.838   7.502  19.893  0.00  0.00    -0.276 OA
ATOM      7  N   UNL     1      22.324   5.941  21.526  0.00  0.00    -0.300 N 
ATOM     24  C   UNL     1      21.473   6.621  20.674  0.00  0.00    +0.216 C 
ATOM     26  C   UNL     1      21.955   4.891  22.474  0.00  0.00    +0.130 C 
ATOM     27  C   UNL     1      23.753   6.214  21.574  0.00  0.00    +0.109 C 
ATOM     28  C   UNL     1      23.287   4.305  22.941  0.00  0.00    +0.092 C 
ATOM     29  C   UNL     1      24.241   5.492  22.823  0.00  0.00    +0.043 C 
BRANCH  28   9
ATOM      6  O   UNL     1      23.886   1.586  23.759  0.00  0.00    -0.276 OA
ATOM      9  N   UNL     1      23.706   3.209  22.101  0.00  0.00    -0.311 N 
ATOM     31  C   UNL     1      23.970   1.939  22.585  0.00  0.00    +0.210 C 
ATOM     33  C   UNL     1      24.365   0.981  21.494  0.00  0.00    +0.109 C 
ATOM     38  H   UNL     1      23.855   3.397  21.113  0.00  0.00    +0.149 HD
ENDBRANCH  28   9
ENDBRANCH  22  24
ENDBRANCH  13  22
TORSDOF 10
ENDMDL
MODEL 2
REMARK VINA RESULT:      -6.4     29.265     31.411
REMARK  Name = 44716920
REMARK  14 active torsions:
REMARK  status: ('A' for Active; 'I' for Inactive)
REMARK    1  A    between atoms: O_1  and  C_16
REMARK    2  A    between atoms: O_1  and  C_25
REMARK    3  A    between atoms: O_2  and  C_17
REMARK    4  A    between atoms: O_3  and  C_21
REMARK    5  A    between atoms: N_8  and  C_30
REMARK    6  A    between atoms: N_9  and  C_28
REMARK    7  A    between atoms: C_10  and  C_20
REMARK    8  A    between atoms: C_12  and  C_21
REMARK    9  A    between atoms: C_12  and  C_23
REMARK   10  A    between atoms: C_13  and  C_22
REMARK   11  A    between atoms: C_22  and  C_24
REMARK   12  A    between atoms: C_30  and  C_32
REMARK   13  A    between atoms: C_31  and  C_33
REMARK   14  A    between atoms: C_32  and  C_34
REMARK                            x       y       z     vdW  Elec       q    Type
REMARK                         _______ _______ _______ _____ _____    ______ ____
ROOT
ATOM     10  C   UNL     1      -4.299 -10.852  12.094  0.00  0.00    -0.023 C 
ATOM     11  C   UNL     1      -4.811 -11.527  10.763  0.00  0.00    +0.007 C 
ATOM     12  C   UNL     1      -5.419 -10.566   9.670  0.00  0.00    +0.031 C 
ATOM     13  C   UNL     1      -4.045 -12.019  13.136  0.00  0.00    +0.032 C 
ATOM     14  C   UNL     1      -5.417  -9.921  12.633  0.00  0.00    +0.011 C 
ATOM     15  C   UNL     1      -3.778 -12.541  10.225  0.00  0.00    +0.007 C 
ATOM     16  C   UNL     1      -6.465  -9.630  10.348  0.00  0.00    +0.186 C 
ATOM     17  C   UNL     1      -3.084 -13.112  12.614  0.00  0.00    +0.119 C 
ATOM     18  C   UNL     1      -5.947  -8.932  11.601  0.00  0.00    +0.046 C 
ATOM     19  C   UNL     1      -3.502 -13.646  11.247  0.00  0.00    +0.032 C 
ATOM     20  C   UNL     1      -3.018 -10.004  11.905  0.00  0.00    +0.012 C 
ATOM     23  C   UNL     1      -6.174 -11.416   8.607  0.00  0.00    +0.017 C 
ENDROOT
BRANCH  17   2
ATOM      2  O   UNL     1      -1.747 -12.626  12.552  0.00  0.00    -0.391 OA
ATOM     35  H   UNL     1      -1.685 -12.023  11.792  0.00  0.00    +0.210 HD
ENDBRANCH  17   2
BRANCH  16   1
ATOM      1  O   UNL     1      -6.920  -8.611   9.458  0.00  0.00    -0.446 OA
BRANCH   1  25
ATOM      5  O   UNL     1      -9.103  -9.073   9.999  0.00  0.00    -0.226 OA
ATOM      8  N   UNL     1      -8.511  -7.133   8.873  0.00  0.00    -0.281 N 
ATOM     25  C   UNL     1      -8.261  -8.340   9.491  0.00  0.00    +0.401 C 
ATOM     37  H   UNL     1      -7.721  -6.619   8.494  0.00  0.00    +0.152 HD
BRANCH   8  30
ATOM     30  C   UNL     1      -9.829  -6.557   8.739  0.00  0.00    +0.107 C 
BRANCH  30  32
ATOM     32  C   UNL     1      -9.790  -5.039   8.616  0.00  0.00    +0.015 C 
ATOM     34  C   UNL     1     -10.996  -4.365   9.254  0.00  0.00    +0.005 C 
ENDBRANCH  30  32
ENDBRANCH   8  30
ENDBRANCH   1  25
ENDBRANCH  16   1
BRANCH  12  21
ATOM     21  C   UNL     1      -4.365  -9.757   8.886  0.00  0.00    +0.166 C 
BRANCH  21   3
ATOM      3  O   UNL     1      -4.974  -9.281   7.706  0.00  0.00    -0.394 OA
ATOM     36  H   UNL     1      -5.754  -8.765   7.971  0.00  0.00    +0.209 HD
ENDBRANCH  21   3
ENDBRANCH  12  21
BRANCH  13  22
ATOM     22  C   UNL     1      -3.598 -11.554  14.530  0.00  0.00    +0.102 C 
BRANCH  22  24
ATOM      4  O   UNL     1      -4.438 -13.379  15.809  0.00  0.00    -0.276 OA
ATOM      7  N   UNL     1      -5.332 -11.292  16.237  0.00  0.00    -0.300 N 
ATOM     24  C   UNL     1      -4.486 -12.169  15.582  0.00  0.00    +0.216 C 
ATOM     26  C   UNL     1      -5.436  -9.850  16.016  0.00  0.00    +0.130 C 
ATOM     27  C   UNL     1      -6.256 -11.734  17.271  0.00  0.00    +0.109 C 
ATOM     28  C   UNL     1      -6.690  -9.431  16.782  0.00  0.00    +0.092 C 
ATOM     29  C   UNL     1      -6.750 -10.448  17.920  0.00  0.00    +0.043 C 
BRANCH  28   9
ATOM      6  O   UNL     1      -9.227  -8.083  17.193  0.00  0.00    -0.276 OA
ATOM      9  N   UNL     1      -7.867  -9.505  15.950  0.00  0.00    -0.311 N 
ATOM     31  C   UNL     1      -9.038  -8.822  16.229  0.00  0.00    +0.210 C 
ATOM     33  C   UNL     1     -10.100  -9.055  15.188  0.00  0.00    +0.109 C 
ATOM     38  H   UNL     1      -7.843 -10.126  15.145  0.00  0.00    +0.149 HD
ENDBRANCH  28   9
ENDBRANCH  22  24
ENDBRANCH  13  22
TORSDOF 10
ENDMDL
MODEL 3
REMARK VINA RESULT:      -6.2     28.071     32.741
REMARK  Name = 44716920
REMARK  14 active torsions:
REMARK  status: ('A' for Active; 'I' for Inactive)
REMARK    1  A    between atoms: O_1  and  C_16
REMARK    2  A    between atoms: O_1  and  C_25
REMARK    3  A    between atoms: O_2  and  C_17
REMARK    4  A    between atoms: O_3  and  C_21
REMARK    5  A    between atoms: N_8  and  C_30
REMARK    6  A    between atoms: N_9  and  C_28
REMARK    7  A    between atoms: C_10  and  C_20
REMARK    8  A    between atoms: C_12  and  C_21
REMARK    9  A    between atoms: C_12  and  C_23
REMARK   10  A    between atoms: C_13  and  C_22
REMARK   11  A    between atoms: C_22  and  C_24
REMARK   12  A    between atoms: C_30  and  C_32
REMARK   13  A    between atoms: C_31  and  C_33
REMARK   14  A    between atoms: C_32  and  C_34
REMARK                            x       y       z     vdW  Elec       q    Type
REMARK                         _______ _______ _______ _____ _____    ______ ____
ROOT
ATOM     10  C   UNL     1      -7.320 -10.456  16.958  0.00  0.00    -0.023 C 
ATOM     11  C   UNL     1      -6.781 -11.915  17.223  0.00  0.00    +0.007 C 
ATOM     12  C   UNL     1      -5.246 -12.052  17.561  0.00  0.00    +0.031 C 
ATOM     13  C   UNL     1      -8.770 -10.605  16.336  0.00  0.00    +0.032 C 
ATOM     14  C   UNL     1      -6.389  -9.768  15.925  0.00  0.00    +0.011 C 
ATOM     15  C   UNL     1      -7.721 -12.687  18.175  0.00  0.00    +0.007 C 
ATOM     16  C   UNL     1      -4.425 -11.255  16.503  0.00  0.00    +0.186 C 
ATOM     17  C   UNL     1      -9.731 -11.447  17.207  0.00  0.00    +0.119 C 
ATOM     18  C   UNL     1      -4.911  -9.826  16.293  0.00  0.00    +0.046 C 
ATOM     19  C   UNL     1      -9.131 -12.797  17.592  0.00  0.00    +0.032 C 
ATOM     20  C   UNL     1      -7.363  -9.572  18.228  0.00  0.00    +0.012 C 
ATOM     23  C   UNL     1      -4.831 -13.547  17.445  0.00  0.00    +0.017 C 
ENDROOT
BRANCH  17   2
ATOM      2  O   UNL     1     -10.108 -10.736  18.381  0.00  0.00    -0.391 OA
ATOM     35  H   UNL     1     -10.060  -9.786  18.181  0.00  0.00    +0.210 HD
ENDBRANCH  17   2
BRANCH  16   1
ATOM      1  O   UNL     1      -3.043 -11.181  16.852  0.00  0.00    -0.446 OA
BRANCH   1  25
ATOM      5  O   UNL     1      -1.341 -10.266  15.611  0.00  0.00    -0.226 OA
ATOM      8  N   UNL     1      -2.333 -12.278  15.020  0.00  0.00    -0.281 N 
ATOM     25  C   UNL     1      -2.160 -11.158  15.806  0.00  0.00    +0.401 C 
ATOM     37  H   UNL     1      -3.047 -12.947  15.294  0.00  0.00    +0.152 HD
BRANCH   8  30
ATOM     30  C   UNL     1      -1.555 -12.555  13.835  0.00  0.00    +0.107 C 
BRANCH  30  32
ATOM     32  C   UNL     1      -2.283 -12.160  12.556  0.00  0.00    +0.015 C 
ATOM     34  C   UNL     1      -1.933 -10.754  12.090  0.00  0.00    +0.005 C 
ENDBRANCH  30  32
ENDBRANCH   8  30
ENDBRANCH   1  25
ENDBRANCH  16   1
BRANCH  12  21
ATOM     21  C   UNL     1      -4.878 -11.625  18.997  0.00  0.00    +0.166 C 
BRANCH  21   3
ATOM      3  O   UNL     1      -3.648 -12.232  19.327  0.00  0.00    -0.394 OA
ATOM     36  H   UNL     1      -3.829 -13.167  19.522  0.00  0.00    +0.209 HD
ENDBRANCH  21   3
ENDBRANCH  12  21
BRANCH  13  22
ATOM     22  C   UNL     1      -9.445  -9.281  15.945  0.00  0.00    +0.102 C 
BRANCH  22  24
ATOM      4  O   UNL     1     -10.237 -10.453  14.029  0.00  0.00    -0.276 OA
ATOM      7  N   UNL     1     -11.461  -8.621  14.725  0.00  0.00    -0.300 N 
ATOM     24  C   UNL     1     -10.411  -9.517  14.811  0.00  0.00    +0.216 C 
ATOM     26  C   UNL     1     -11.723  -7.494  15.619  0.00  0.00    +0.130 C 
ATOM     27  C   UNL     1     -12.471  -8.710  13.680  0.00  0.00    +0.109 C 
ATOM     28  C   UNL     1     -12.817  -6.690  14.918  0.00  0.00    +0.092 C 
ATOM     29  C   UNL     1     -13.572  -7.758  14.128  0.00  0.00    +0.043 C 
BRANCH  28   9
ATOM      6  O   UNL     1     -14.238  -4.587  13.509  0.00  0.00    -0.276 OA
ATOM      9  N   UNL     1     -12.257  -5.688  14.043  0.00  0.00    -0.311 N 
ATOM     31  C   UNL     1     -13.020  -4.720  13.411  0.00  0.00    +0.210 C 
ATOM     33  C   UNL     1     -12.185  -3.787  12.577  0.00  0.00    +0.109 C 
ATOM     38  H   UNL     1     -11.260  -5.728  13.849  0.00  0.00    +0.149 HD
ENDBRANCH  28   9
ENDBRANCH  22  24
ENDBRANCH  13  22
TORSDOF 10
ENDMDL
MODEL 4
REMARK VINA RESULT:      -6.2      5.156      9.368
REMARK  Name = 44716920
REMARK  14 active torsions:
REMARK  status: ('A' for Active; 'I' for Inactive)
REMARK    1  A    between atoms: O_1  and  C_16
REMARK    2  A    between atoms: O_1  and  C_25
REMARK    3  A    between atoms: O_2  and  C_17
REMARK    4  A    between atoms: O_3  and  C_21
REMARK    5  A    between atoms: N_8  and  C_30
REMARK    6  A    between atoms: N_9  and  C_28
REMARK    7  A    between atoms: C_10  and  C_20
REMARK    8  A    between atoms: C_12  and  C_21
REMARK    9  A    between atoms: C_12  and  C_23
REMARK   10  A    between atoms: C_13  and  C_22
REMARK   11  A    between atoms: C_22  and  C_24
REMARK   12  A    between atoms: C_30  and  C_32
REMARK   13  A    between atoms: C_31  and  C_33
REMARK   14  A    between atoms: C_32  and  C_34
REMARK                            x       y       z     vdW  Elec       q    Type
REMARK                         _______ _______ _______ _____ _____    ______ ____
ROOT
ATOM     10  C   UNL     1      12.768  11.028  21.072  0.00  0.00    -0.023 C 
ATOM     11  C   UNL     1      11.662   9.987  21.500  0.00  0.00    +0.007 C 
ATOM     12  C   UNL     1      11.858   8.502  21.004  0.00  0.00    +0.031 C 
ATOM     13  C   UNL     1      12.198  12.469  21.401  0.00  0.00    +0.032 C 
ATOM     14  C   UNL     1      12.993  10.906  19.542  0.00  0.00    +0.011 C 
ATOM     15  C   UNL     1      11.325  10.125  23.001  0.00  0.00    +0.007 C 
ATOM     16  C   UNL     1      12.155   8.518  19.474  0.00  0.00    +0.186 C 
ATOM     17  C   UNL     1      11.760  12.637  22.875  0.00  0.00    +0.119 C 
ATOM     18  C   UNL     1      13.267   9.481  19.071  0.00  0.00    +0.046 C 
ATOM     19  C   UNL     1      10.812  11.529  23.327  0.00  0.00    +0.032 C 
ATOM     20  C   UNL     1      14.130  10.809  21.775  0.00  0.00    +0.012 C 
ATOM     23  C   UNL     1      10.531   7.717  21.213  0.00  0.00    +0.017 C 
ENDROOT
BRANCH  17   2
ATOM      2  O   UNL     1      12.890  12.685  23.739  0.00  0.00    -0.391 OA
ATOM     35  H   UNL     1      13.685  12.754  23.184  0.00  0.00    +0.210 HD
ENDBRANCH  17   2
BRANCH  16   1
ATOM      1  O   UNL     1      12.526   7.226  18.993  0.00  0.00    -0.446 OA
BRANCH   1  25
ATOM      5  O   UNL     1      13.897   7.417  17.161  0.00  0.00    -0.226 OA
ATOM      8  N   UNL     1      14.707   6.727  19.223  0.00  0.00    -0.281 N 
ATOM     25  C   UNL     1      13.729   7.148  18.346  0.00  0.00    +0.401 C 
ATOM     37  H   UNL     1      14.437   6.541  20.184  0.00  0.00    +0.152 HD
BRANCH   8  30
ATOM     30  C   UNL     1      16.092   6.542  18.853  0.00  0.00    +0.107 C 
BRANCH  30  32
ATOM     32  C   UNL     1      17.046   6.881  19.991  0.00  0.00    +0.015 C 
ATOM     34  C   UNL     1      16.542   8.021  20.864  0.00  0.00    +0.005 C 
ENDBRANCH  30  32
ENDBRANCH   8  30
ENDBRANCH   1  25
ENDBRANCH  16   1
BRANCH  12  21
ATOM     21  C   UNL     1      12.936   7.717  21.779  0.00  0.00    +0.166 C 
BRANCH  21   3
ATOM      3  O   UNL     1      12.716   6.342  21.553  0.00  0.00    -0.394 OA
ATOM     36  H   UNL     1      11.817   6.138  21.864  0.00  0.00    +0.209 HD
ENDBRANCH  21   3
ENDBRANCH  12  21
BRANCH  13  22
ATOM     22  C   UNL     1      13.113  13.635  20.994  0.00  0.00    +0.102 C 
BRANCH  22  24
ATOM      4  O   UNL     1      11.360  15.027  20.179  0.00  0.00    -0.276 OA
ATOM      7  N   UNL     1      13.091  14.550  18.725  0.00  0.00    -0.300 N 
ATOM     24  C   UNL     1      12.434  14.471  19.939  0.00  0.00    +0.216 C 
ATOM     26  C   UNL     1      14.364  13.918  18.378  0.00  0.00    +0.130 C 
ATOM     27  C   UNL     1      12.559  15.311  17.604  0.00  0.00    +0.109 C 
ATOM     28  C   UNL     1      14.482  14.092  16.865  0.00  0.00    +0.092 C 
ATOM     29  C   UNL     1      13.709  15.385  16.608  0.00  0.00    +0.043 C 
BRANCH  28   9
ATOM      6  O   UNL     1      15.657  11.479  16.401  0.00  0.00    -0.276 OA
ATOM      9  N   UNL     1      13.894  12.980  16.157  0.00  0.00    -0.311 N 
ATOM     31  C   UNL     1      14.536  11.765  15.986  0.00  0.00    +0.210 C 
ATOM     33  C   UNL     1      13.691  10.773  15.233  0.00  0.00    +0.109 C 
ATOM     38  H   UNL     1      12.983  13.117  15.727  0.00  0.00    +0.149 HD
ENDBRANCH  28   9
ENDBRANCH  22  24
ENDBRANCH  13  22
TORSDOF 10
ENDMDL
MODEL 5
REMARK VINA RESULT:      -6.2     27.789     31.101
REMARK  Name = 44716920
REMARK  14 active torsions:
REMARK  status: ('A' for Active; 'I' for Inactive)
REMARK    1  A    between atoms: O_1  and  C_16
REMARK    2  A    between atoms: O_1  and  C_25
REMARK    3  A    between atoms: O_2  and  C_17
REMARK    4  A    between atoms: O_3  and  C_21
REMARK    5  A    between atoms: N_8  and  C_30
REMARK    6  A    between atoms: N_9  and  C_28
REMARK    7  A    between atoms: C_10  and  C_20
REMARK    8  A    between atoms: C_12  and  C_21
REMARK    9  A    between atoms: C_12  and  C_23
REMARK   10  A    between atoms: C_13  and  C_22
REMARK   11  A    between atoms: C_22  and  C_24
REMARK   12  A    between atoms: C_30  and  C_32
REMARK   13  A    between atoms: C_31  and  C_33
REMARK   14  A    between atoms: C_32  and  C_34
REMARK                            x       y       z     vdW  Elec       q    Type
REMARK                         _______ _______ _______ _____ _____    ______ ____
ROOT
ATOM     10  C   UNL     1      -4.127 -11.378  14.154  0.00  0.00    -0.023 C 
ATOM     11  C   UNL     1      -4.222 -10.702  15.577  0.00  0.00    +0.007 C 
ATOM     12  C   UNL     1      -5.586 -10.873  16.351  0.00  0.00    +0.031 C 
ATOM     13  C   UNL     1      -2.823 -10.807  13.459  0.00  0.00    +0.032 C 
ATOM     14  C   UNL     1      -5.371 -10.960  13.327  0.00  0.00    +0.011 C 
ATOM     15  C   UNL     1      -2.963 -11.005  16.418  0.00  0.00    +0.007 C 
ATOM     16  C   UNL     1      -6.758 -10.502  15.394  0.00  0.00    +0.186 C 
ATOM     17  C   UNL     1      -1.539 -11.004  14.299  0.00  0.00    +0.119 C 
ATOM     18  C   UNL     1      -6.696 -11.203  14.042  0.00  0.00    +0.046 C 
ATOM     19  C   UNL     1      -1.698 -10.489  15.727  0.00  0.00    +0.032 C 
ATOM     20  C   UNL     1      -4.083 -12.924  14.205  0.00  0.00    +0.012 C 
ATOM     23  C   UNL     1      -5.623  -9.873  17.544  0.00  0.00    +0.017 C 
ENDROOT
BRANCH  17   2
ATOM      2  O   UNL     1      -1.151 -12.373  14.322  0.00  0.00    -0.391 OA
ATOM     35  H   UNL     1      -1.499 -12.766  15.140  0.00  0.00    +0.210 HD
ENDBRANCH  17   2
BRANCH  16   1
ATOM      1  O   UNL     1      -8.029 -10.809  15.968  0.00  0.00    -0.446 OA
BRANCH   1  25
ATOM      5  O   UNL     1     -10.046 -10.378  14.959  0.00  0.00    -0.226 OA
ATOM      8  N   UNL     1      -8.845  -8.715  16.042  0.00  0.00    -0.281 N 
ATOM     25  C   UNL     1      -9.068 -10.000  15.596  0.00  0.00    +0.401 C 
ATOM     37  H   UNL     1      -7.994  -8.533  16.565  0.00  0.00    +0.152 HD
BRANCH   8  30
ATOM     30  C   UNL     1      -9.757  -7.617  15.815  0.00  0.00    +0.107 C 
BRANCH  30  32
ATOM     32  C   UNL     1     -10.781  -7.472  16.933  0.00  0.00    +0.015 C 
ATOM     34  C   UNL     1     -12.161  -7.980  16.537  0.00  0.00    +0.005 C 
ENDBRANCH  30  32
ENDBRANCH   8  30
ENDBRANCH   1  25
ENDBRANCH  16   1
BRANCH  12  21
ATOM     21  C   UNL     1      -5.787 -12.271  16.971  0.00  0.00    +0.166 C 
BRANCH  21   3
ATOM      3  O   UNL     1      -6.546 -12.116  18.150  0.00  0.00    -0.394 OA
ATOM     36  H   UNL     1      -7.146 -12.879  18.211  0.00  0.00    +0.209 HD
ENDBRANCH  21   3
ENDBRANCH  12  21
BRANCH  13  22
ATOM     22  C   UNL     1      -2.586 -11.302  12.023  0.00  0.00    +0.102 C 
BRANCH  22  24
ATOM      4  O   UNL     1      -1.861  -9.225  11.112  0.00  0.00    -0.276 OA
ATOM      7  N   UNL     1      -3.728 -10.198  10.162  0.00  0.00    -0.300 N 
ATOM     24  C   UNL     1      -2.680 -10.144  11.062  0.00  0.00    +0.216 C 
ATOM     26  C   UNL     1      -4.730 -11.259  10.050  0.00  0.00    +0.130 C 
ATOM     27  C   UNL     1      -3.958  -9.152   9.177  0.00  0.00    +0.109 C 
ATOM     28  C   UNL     1      -5.791 -10.691   9.109  0.00  0.00    +0.092 C 
ATOM     29  C   UNL     1      -4.988  -9.742   8.221  0.00  0.00    +0.043 C 
BRANCH  28   9
ATOM      6  O   UNL     1      -8.042 -11.837  10.540  0.00  0.00    -0.276 OA
ATOM      9  N   UNL     1      -6.819  -9.985   9.836  0.00  0.00    -0.311 N 
ATOM     31  C   UNL     1      -7.860 -10.622  10.490  0.00  0.00    +0.210 C 
ATOM     33  C   UNL     1      -8.776  -9.654  11.188  0.00  0.00    +0.109 C 
ATOM     38  H   UNL     1      -6.798  -8.969   9.824  0.00  0.00    +0.149 HD
ENDBRANCH  28   9
ENDBRANCH  22  24
ENDBRANCH  13  22
TORSDOF 10
ENDMDL
MODEL 6
REMARK VINA RESULT:      -6.2     27.965     31.571
REMARK  Name = 44716920
REMARK  14 active torsions:
REMARK  status: ('A' for Active; 'I' for Inactive)
REMARK    1  A    between atoms: O_1  and  C_16
REMARK    2  A    between atoms: O_1  and  C_25
REMARK    3  A    between atoms: O_2  and  C_17
REMARK    4  A    between atoms: O_3  and  C_21
REMARK    5  A    between atoms: N_8  and  C_30
REMARK    6  A    between atoms: N_9  and  C_28
REMARK    7  A    between atoms: C_10  and  C_20
REMARK    8  A    between atoms: C_12  and  C_21
REMARK    9  A    between atoms: C_12  and  C_23
REMARK   10  A    between atoms: C_13  and  C_22
REMARK   11  A    between atoms: C_22  and  C_24
REMARK   12  A    between atoms: C_30  and  C_32
REMARK   13  A    between atoms: C_31  and  C_33
REMARK   14  A    between atoms: C_32  and  C_34
REMARK                            x       y       z     vdW  Elec       q    Type
REMARK                         _______ _______ _______ _____ _____    ______ ____
ROOT
ATOM     10  C   UNL     1      -8.118 -11.195  16.630  0.00  0.00    -0.023 C 
ATOM     11  C   UNL     1      -9.199 -10.658  17.645  0.00  0.00    +0.007 C 
ATOM     12  C   UNL     1     -10.466  -9.953  17.024  0.00  0.00    +0.031 C 
ATOM     13  C   UNL     1      -6.827 -11.555  17.476  0.00  0.00    +0.032 C 
ATOM     14  C   UNL     1      -7.773 -10.058  15.632  0.00  0.00    +0.011 C 
ATOM     15  C   UNL     1      -9.516 -11.716  18.725  0.00  0.00    +0.007 C 
ATOM     16  C   UNL     1      -9.993  -8.894  15.983  0.00  0.00    +0.186 C 
ATOM     17  C   UNL     1      -7.104 -12.545  18.631  0.00  0.00    +0.119 C 
ATOM     18  C   UNL     1      -8.993  -9.432  14.966  0.00  0.00    +0.046 C 
ATOM     19  C   UNL     1      -8.262 -12.093  19.517  0.00  0.00    +0.032 C 
ATOM     20  C   UNL     1      -8.591 -12.422  15.813  0.00  0.00    +0.012 C 
ATOM     23  C   UNL     1     -11.229  -9.194  18.148  0.00  0.00    +0.017 C 
ENDROOT
BRANCH  17   2
ATOM      2  O   UNL     1      -7.365 -13.852  18.129  0.00  0.00    -0.391 OA
ATOM     35  H   UNL     1      -8.329 -13.950  18.045  0.00  0.00    +0.210 HD
ENDBRANCH  17   2
BRANCH  16   1
ATOM      1  O   UNL     1     -11.087  -8.348  15.247  0.00  0.00    -0.446 OA
BRANCH   1  25
ATOM      5  O   UNL     1     -10.294  -6.230  15.643  0.00  0.00    -0.226 OA
ATOM      8  N   UNL     1     -12.156  -6.604  14.311  0.00  0.00    -0.281 N 
ATOM     25  C   UNL     1     -11.103  -6.986  15.116  0.00  0.00    +0.401 C 
ATOM     37  H   UNL     1     -12.754  -7.332  13.931  0.00  0.00    +0.152 HD
BRANCH   8  30
ATOM     30  C   UNL     1     -12.451  -5.231  13.974  0.00  0.00    +0.107 C 
BRANCH  30  32
ATOM     32  C   UNL     1     -12.171  -4.920  12.509  0.00  0.00    +0.015 C 
ATOM     34  C   UNL     1     -12.424  -3.461  12.157  0.00  0.00    +0.005 C 
ENDBRANCH  30  32
ENDBRANCH   8  30
ENDBRANCH   1  25
ENDBRANCH  16   1
BRANCH  12  21
ATOM     21  C   UNL     1     -11.490 -10.929  16.407  0.00  0.00    +0.166 C 
BRANCH  21   3
ATOM      3  O   UNL     1     -12.742 -10.280  16.376  0.00  0.00    -0.394 OA
ATOM     36  H   UNL     1     -13.337 -10.770  16.969  0.00  0.00    +0.209 HD
ENDBRANCH  21   3
ENDBRANCH  12  21
BRANCH  13  22
ATOM     22  C   UNL     1      -5.627 -12.042  16.649  0.00  0.00    +0.102 C 
BRANCH  22  24
ATOM      4  O   UNL     1      -4.448 -10.352  17.845  0.00  0.00    -0.276 OA
ATOM      7  N   UNL     1      -3.375 -11.306  16.035  0.00  0.00    -0.300 N 
ATOM     24  C   UNL     1      -4.436 -11.153  16.908  0.00  0.00    +0.216 C 
ATOM     26  C   UNL     1      -3.298 -12.237  14.909  0.00  0.00    +0.130 C 
ATOM     27  C   UNL     1      -2.158 -10.515  16.148  0.00  0.00    +0.109 C 
ATOM     28  C   UNL     1      -2.058 -11.800  14.130  0.00  0.00    +0.092 C 
ATOM     29  C   UNL     1      -1.167 -11.200  15.215  0.00  0.00    +0.043 C 
BRANCH  28   9
ATOM      6  O   UNL     1      -2.894 -12.301  11.396  0.00  0.00    -0.276 OA
ATOM      9  N   UNL     1      -2.386 -10.822  13.120  0.00  0.00    -0.311 N 
ATOM     31  C   UNL     1      -2.777 -11.160  11.835  0.00  0.00    +0.210 C 
ATOM     33  C   UNL     1      -3.083  -9.950  10.994  0.00  0.00    +0.109 C 
ATOM     38  H   UNL     1      -2.280  -9.839  13.357  0.00  0.00    +0.149 HD
ENDBRANCH  28   9
ENDBRANCH  22  24
ENDBRANCH  13  22
TORSDOF 10
ENDMDL
MODEL 7
REMARK VINA RESULT:      -6.1     28.020     31.434
REMARK  Name = 44716920
REMARK  14 active torsions:
REMARK  status: ('A' for Active; 'I' for Inactive)
REMARK    1  A    between atoms: O_1  and  C_16
REMARK    2  A    between atoms: O_1  and  C_25
REMARK    3  A    between atoms: O_2  and  C_17
REMARK    4  A    between atoms: O_3  and  C_21
REMARK    5  A    between atoms: N_8  and  C_30
REMARK    6  A    between atoms: N_9  and  C_28
REMARK    7  A    between atoms: C_10  and  C_20
REMARK    8  A    between atoms: C_12  and  C_21
REMARK    9  A    between atoms: C_12  and  C_23
REMARK   10  A    between atoms: C_13  and  C_22
REMARK   11  A    between atoms: C_22  and  C_24
REMARK   12  A    between atoms: C_30  and  C_32
REMARK   13  A    between atoms: C_31  and  C_33
REMARK   14  A    between atoms: C_32  and  C_34
REMARK                            x       y       z     vdW  Elec       q    Type
REMARK                         _______ _______ _______ _____ _____    ______ ____
ROOT
ATOM     10  C   UNL     1      -6.775 -11.706  16.504  0.00  0.00    -0.023 C 
ATOM     11  C   UNL     1      -7.661 -10.734  17.375  0.00  0.00    +0.007 C 
ATOM     12  C   UNL     1      -9.181 -10.608  16.972  0.00  0.00    +0.031 C 
ATOM     13  C   UNL     1      -5.264 -11.421  16.885  0.00  0.00    +0.032 C 
ATOM     14  C   UNL     1      -6.997 -11.364  15.007  0.00  0.00    +0.011 C 
ATOM     15  C   UNL     1      -7.412 -10.962  18.882  0.00  0.00    +0.007 C 
ATOM     16  C   UNL     1      -9.274 -10.346  15.438  0.00  0.00    +0.186 C 
ATOM     17  C   UNL     1      -4.976 -11.548  18.399  0.00  0.00    +0.119 C 
ATOM     18  C   UNL     1      -8.465 -11.326  14.595  0.00  0.00    +0.046 C 
ATOM     19  C   UNL     1      -5.944 -10.725  19.244  0.00  0.00    +0.032 C 
ATOM     20  C   UNL     1      -7.114 -13.203  16.709  0.00  0.00    +0.012 C 
ATOM     23  C   UNL     1      -9.798  -9.375  17.693  0.00  0.00    +0.017 C 
ENDROOT
BRANCH  17   2
ATOM      2  O   UNL     1      -5.015 -12.910  18.812  0.00  0.00    -0.391 OA
ATOM     35  H   UNL     1      -5.904 -13.253  18.617  0.00  0.00    +0.210 HD
ENDBRANCH  17   2
BRANCH  16   1
ATOM      1  O   UNL     1     -10.622 -10.405  14.971  0.00  0.00    -0.446 OA
BRANCH   1  25
ATOM      5  O   UNL     1     -10.715  -9.022  13.141  0.00  0.00    -0.226 OA
ATOM      8  N   UNL     1     -11.958  -8.598  15.053  0.00  0.00    -0.281 N 
ATOM     25  C   UNL     1     -11.067  -9.312  14.280  0.00  0.00    +0.401 C 
ATOM     37  H   UNL     1     -12.169  -8.948  15.983  0.00  0.00    +0.152 HD
BRANCH   8  30
ATOM     30  C   UNL     1     -12.612  -7.387  14.613  0.00  0.00    +0.107 C 
BRANCH  30  32
ATOM     32  C   UNL     1     -11.753  -6.149  14.839  0.00  0.00    +0.015 C 
ATOM     34  C   UNL     1     -11.301  -6.002  16.285  0.00  0.00    +0.005 C 
ENDBRANCH  30  32
ENDBRANCH   8  30
ENDBRANCH   1  25
ENDBRANCH  16   1
BRANCH  12  21
ATOM     21  C   UNL     1     -10.045 -11.815  17.390  0.00  0.00    +0.166 C 
BRANCH  21   3
ATOM      3  O   UNL     1     -11.366 -11.357  17.577  0.00  0.00    -0.394 OA
ATOM     36  H   UNL     1     -11.560 -10.730  16.859  0.00  0.00    +0.209 HD
ENDBRANCH  21   3
ENDBRANCH  12  21
BRANCH  13  22
ATOM     22  C   UNL     1      -4.231 -12.234  16.088  0.00  0.00    +0.102 C 
BRANCH  22  24
ATOM      4  O   UNL     1      -2.392 -10.780  16.507  0.00  0.00    -0.276 OA
ATOM      7  N   UNL     1      -2.924 -11.197  14.298  0.00  0.00    -0.300 N 
ATOM     24  C   UNL     1      -3.096 -11.338  15.663  0.00  0.00    +0.216 C 
ATOM     26  C   UNL     1      -3.721 -11.832  13.248  0.00  0.00    +0.130 C 
ATOM     27  C   UNL     1      -1.877 -10.360  13.731  0.00  0.00    +0.109 C 
ATOM     28  C   UNL     1      -3.295 -11.127  11.961  0.00  0.00    +0.092 C 
ATOM     29  C   UNL     1      -1.850 -10.726  12.252  0.00  0.00    +0.043 C 
BRANCH  28   9
ATOM      6  O   UNL     1      -3.845  -9.910   9.383  0.00  0.00    -0.276 OA
ATOM      9  N   UNL     1      -4.116  -9.970  11.695  0.00  0.00    -0.311 N 
ATOM     31  C   UNL     1      -4.320  -9.460  10.423  0.00  0.00    +0.210 C 
ATOM     33  C   UNL     1      -5.237  -8.267  10.426  0.00  0.00    +0.109 C 
ATOM     38  H   UNL     1      -4.525  -9.484  12.488  0.00  0.00    +0.149 HD
ENDBRANCH  28   9
ENDBRANCH  22  24
ENDBRANCH  13  22
TORSDOF 10
ENDMDL
MODEL 8
REMARK VINA RESULT:      -6.1     28.250     32.226
REMARK  Name = 44716920
REMARK  14 active torsions:
REMARK  status: ('A' for Active; 'I' for Inactive)
REMARK    1  A    between atoms: O_1  and  C_16
REMARK    2  A    between atoms: O_1  and  C_25
REMARK    3  A    between atoms: O_2  and  C_17
REMARK    4  A    between atoms: O_3  and  C_21
REMARK    5  A    between atoms: N_8  and  C_30
REMARK    6  A    between atoms: N_9  and  C_28
REMARK    7  A    between atoms: C_10  and  C_20
REMARK    8  A    between atoms: C_12  and  C_21
REMARK    9  A    between atoms: C_12  and  C_23
REMARK   10  A    between atoms: C_13  and  C_22
REMARK   11  A    between atoms: C_22  and  C_24
REMARK   12  A    between atoms: C_30  and  C_32
REMARK   13  A    between atoms: C_31  and  C_33
REMARK   14  A    between atoms: C_32  and  C_34
REMARK                            x       y       z     vdW  Elec       q    Type
REMARK                         _______ _______ _______ _____ _____    ______ ____
ROOT
ATOM     10  C   UNL     1      -4.903 -11.040  11.458  0.00  0.00    -0.023 C 
ATOM     11  C   UNL     1      -3.617 -10.425  12.134  0.00  0.00    +0.007 C 
ATOM     12  C   UNL     1      -3.021 -11.209  13.365  0.00  0.00    +0.031 C 
ATOM     13  C   UNL     1      -5.488  -9.934  10.484  0.00  0.00    +0.032 C 
ATOM     14  C   UNL     1      -5.944 -11.344  12.568  0.00  0.00    +0.011 C 
ATOM     15  C   UNL     1      -2.578 -10.012  11.068  0.00  0.00    +0.007 C 
ATOM     16  C   UNL     1      -4.172 -11.525  14.367  0.00  0.00    +0.186 C 
ATOM     17  C   UNL     1      -4.460  -9.419   9.450  0.00  0.00    +0.119 C 
ATOM     18  C   UNL     1      -5.390 -12.175  13.720  0.00  0.00    +0.046 C 
ATOM     19  C   UNL     1      -3.154  -8.974  10.104  0.00  0.00    +0.032 C 
ATOM     20  C   UNL     1      -4.629 -12.353  10.686  0.00  0.00    +0.012 C 
ATOM     23  C   UNL     1      -1.998 -10.297  14.103  0.00  0.00    +0.017 C 
ENDROOT
BRANCH  17   2
ATOM      2  O   UNL     1      -4.191 -10.409   8.463  0.00  0.00    -0.391 OA
ATOM     35  H   UNL     1      -4.162  -9.966   7.599  0.00  0.00    +0.210 HD
ENDBRANCH  17   2
BRANCH  16   1
ATOM      1  O   UNL     1      -3.741 -12.393  15.414  0.00  0.00    -0.446 OA
BRANCH   1  25
ATOM      5  O   UNL     1      -5.004 -13.324  17.090  0.00  0.00    -0.226 OA
ATOM      8  N   UNL     1      -4.514 -11.057  17.050  0.00  0.00    -0.281 N 
ATOM     25  C   UNL     1      -4.471 -12.349  16.570  0.00  0.00    +0.401 C 
ATOM     37  H   UNL     1      -4.026 -10.337  16.526  0.00  0.00    +0.152 HD
BRANCH   8  30
ATOM     30  C   UNL     1      -5.207 -10.672  18.258  0.00  0.00    +0.107 C 
BRANCH  30  32
ATOM     32  C   UNL     1      -6.659 -10.289  17.997  0.00  0.00    +0.015 C 
ATOM     34  C   UNL     1      -6.844  -9.547  16.681  0.00  0.00    +0.005 C 
ENDBRANCH  30  32
ENDBRANCH   8  30
ENDBRANCH   1  25
ENDBRANCH  16   1
BRANCH  12  21
ATOM     21  C   UNL     1      -2.243 -12.485  12.982  0.00  0.00    +0.166 C 
BRANCH  21   3
ATOM      3  O   UNL     1      -1.318 -12.754  14.012  0.00  0.00    -0.394 OA
ATOM     36  H   UNL     1      -1.763 -12.567  14.857  0.00  0.00    +0.209 HD
ENDBRANCH  21   3
ENDBRANCH  12  21
BRANCH  13  22
ATOM     22  C   UNL     1      -6.792 -10.324   9.772  0.00  0.00    +0.102 C 
BRANCH  22  24
ATOM      4  O   UNL     1      -8.408  -9.090  11.013  0.00  0.00    -0.276 OA
ATOM      7  N   UNL     1      -8.021  -8.427   8.834  0.00  0.00    -0.300 N 
ATOM     24  C   UNL     1      -7.813  -9.228   9.943  0.00  0.00    +0.216 C 
ATOM     26  C   UNL     1      -7.348  -8.536   7.540  0.00  0.00    +0.130 C 
ATOM     27  C   UNL     1      -8.979  -7.332   8.839  0.00  0.00    +0.109 C 
ATOM     28  C   UNL     1      -8.139  -7.613   6.615  0.00  0.00    +0.092 C 
ATOM     29  C   UNL     1      -8.672  -6.547   7.570  0.00  0.00    +0.043 C 
BRANCH  28   9
ATOM      6  O   UNL     1      -9.333  -7.006   4.039  0.00  0.00    -0.276 OA
ATOM      9  N   UNL     1      -9.216  -8.316   5.960  0.00  0.00    -0.311 N 
ATOM     31  C   UNL     1      -9.721  -7.950   4.724  0.00  0.00    +0.210 C 
ATOM     33  C   UNL     1     -10.822  -8.865   4.261  0.00  0.00    +0.109 C 
ATOM     38  H   UNL     1      -9.650  -9.090   6.456  0.00  0.00    +0.149 HD
ENDBRANCH  28   9
ENDBRANCH  22  24
ENDBRANCH  13  22
TORSDOF 10
ENDMDL
MODEL 9
REMARK VINA RESULT:      -6.1      7.222      9.567
REMARK  Name = 44716920
REMARK  14 active torsions:
REMARK  status: ('A' for Active; 'I' for Inactive)
REMARK    1  A    between atoms: O_1  and  C_16
REMARK    2  A    between atoms: O_1  and  C_25
REMARK    3  A    between atoms: O_2  and  C_17
REMARK    4  A    between atoms: O_3  and  C_21
REMARK    5  A    between atoms: N_8  and  C_30
REMARK    6  A    between atoms: N_9  and  C_28
REMARK    7  A    between atoms: C_10  and  C_20
REMARK    8  A    between atoms: C_12  and  C_21
REMARK    9  A    between atoms: C_12  and  C_23
REMARK   10  A    between atoms: C_13  and  C_22
REMARK   11  A    between atoms: C_22  and  C_24
REMARK   12  A    between atoms: C_30  and  C_32
REMARK   13  A    between atoms: C_31  and  C_33
REMARK   14  A    between atoms: C_32  and  C_34
REMARK                            x       y       z     vdW  Elec       q    Type
REMARK                         _______ _______ _______ _____ _____    ______ ____
ROOT
ATOM     10  C   UNL     1      13.230  10.308  19.512  0.00  0.00    -0.023 C 
ATOM     11  C   UNL     1      12.394   9.577  18.392  0.00  0.00    +0.007 C 
ATOM     12  C   UNL     1      13.046   9.501  16.958  0.00  0.00    +0.031 C 
ATOM     13  C   UNL     1      12.255  10.538  20.741  0.00  0.00    +0.032 C 
ATOM     14  C   UNL     1      13.690  11.684  18.962  0.00  0.00    +0.011 C 
ATOM     15  C   UNL     1      11.827   8.237  18.913  0.00  0.00    +0.007 C 
ATOM     16  C   UNL     1      13.539  10.923  16.553  0.00  0.00    +0.186 C 
ATOM     17  C   UNL     1      11.588   9.238  21.248  0.00  0.00    +0.119 C 
ATOM     18  C   UNL     1      14.397  11.603  17.614  0.00  0.00    +0.046 C 
ATOM     19  C   UNL     1      10.917   8.455  20.124  0.00  0.00    +0.032 C 
ATOM     20  C   UNL     1      14.489   9.525  19.957  0.00  0.00    +0.012 C 
ATOM     23  C   UNL     1      11.962   9.072  15.928  0.00  0.00    +0.017 C 
ENDROOT
BRANCH  17   2
ATOM      2  O   UNL     1      12.532   8.408  21.916  0.00  0.00    -0.391 OA
ATOM     35  H   UNL     1      13.161   8.081  21.251  0.00  0.00    +0.210 HD
ENDBRANCH  17   2
BRANCH  16   1
ATOM      1  O   UNL     1      14.304  10.896  15.349  0.00  0.00    -0.446 OA
BRANCH   1  25
ATOM      5  O   UNL     1      14.935  12.776  14.191  0.00  0.00    -0.226 OA
ATOM      8  N   UNL     1      12.806  11.877  13.987  0.00  0.00    -0.281 N 
ATOM     25  C   UNL     1      14.093  11.931  14.480  0.00  0.00    +0.401 C 
ATOM     37  H   UNL     1      12.206  11.120  14.304  0.00  0.00    +0.152 HD
BRANCH   8  30
ATOM     30  C   UNL     1      12.266  12.829  13.044  0.00  0.00    +0.107 C 
BRANCH  30  32
ATOM     32  C   UNL     1      11.137  12.240  12.208  0.00  0.00    +0.015 C 
ATOM     34  C   UNL     1       9.812  12.193  12.957  0.00  0.00    +0.005 C 
ENDBRANCH  30  32
ENDBRANCH   8  30
ENDBRANCH   1  25
ENDBRANCH  16   1
BRANCH  12  21
ATOM     21  C   UNL     1      14.176   8.458  16.835  0.00  0.00    +0.166 C 
BRANCH  21   3
ATOM      3  O   UNL     1      14.284   8.095  15.476  0.00  0.00    -0.394 OA
ATOM     36  H   UNL     1      14.371   8.916  14.963  0.00  0.00    +0.209 HD
ENDBRANCH  21   3
ENDBRANCH  12  21
BRANCH  13  22
ATOM     22  C   UNL     1      12.873  11.302  21.923  0.00  0.00    +0.102 C 
BRANCH  22  24
ATOM      4  O   UNL     1      11.653  13.241  21.269  0.00  0.00    -0.276 OA
ATOM      7  N   UNL     1      11.855  12.836  23.534  0.00  0.00    -0.300 N 
ATOM     24  C   UNL     1      12.069  12.548  22.199  0.00  0.00    +0.216 C 
ATOM     26  C   UNL     1      12.318  12.056  24.682  0.00  0.00    +0.130 C 
ATOM     27  C   UNL     1      11.105  14.008  23.963  0.00  0.00    +0.109 C 
ATOM     28  C   UNL     1      12.057  12.953  25.890  0.00  0.00    +0.092 C 
ATOM     29  C   UNL     1      10.851  13.780  25.448  0.00  0.00    +0.043 C 
BRANCH  28   9
ATOM      6  O   UNL     1      14.293  12.358  27.642  0.00  0.00    -0.276 OA
ATOM      9  N   UNL     1      13.193  13.795  26.179  0.00  0.00    -0.311 N 
ATOM     31  C   UNL     1      14.216  13.423  27.034  0.00  0.00    +0.210 C 
ATOM     33  C   UNL     1      15.287  14.475  27.138  0.00  0.00    +0.109 C 
ATOM     38  H   UNL     1      13.214  14.724  25.767  0.00  0.00    +0.149 HD
ENDBRANCH  28   9
ENDBRANCH  22  24
ENDBRANCH  13  22
TORSDOF 10
ENDMDL
MODEL 10
REMARK VINA RESULT:      -6.0      3.228      9.131
REMARK  Name = 44716920
REMARK  14 active torsions:
REMARK  status: ('A' for Active; 'I' for Inactive)
REMARK    1  A    between atoms: O_1  and  C_16
REMARK    2  A    between atoms: O_1  and  C_25
REMARK    3  A    between atoms: O_2  and  C_17
REMARK    4  A    between atoms: O_3  and  C_21
REMARK    5  A    between atoms: N_8  and  C_30
REMARK    6  A    between atoms: N_9  and  C_28
REMARK    7  A    between atoms: C_10  and  C_20
REMARK    8  A    between atoms: C_12  and  C_21
REMARK    9  A    between atoms: C_12  and  C_23
REMARK   10  A    between atoms: C_13  and  C_22
REMARK   11  A    between atoms: C_22  and  C_24
REMARK   12  A    between atoms: C_30  and  C_32
REMARK   13  A    between atoms: C_31  and  C_33
REMARK   14  A    between atoms: C_32  and  C_34
REMARK                            x       y       z     vdW  Elec       q    Type
REMARK                         _______ _______ _______ _____ _____    ______ ____
ROOT
ATOM     10  C   UNL     1      14.640  10.087  18.643  0.00  0.00    -0.023 C 
ATOM     11  C   UNL     1      15.077   8.600  18.939  0.00  0.00    +0.007 C 
ATOM     12  C   UNL     1      15.717   8.319  20.353  0.00  0.00    +0.031 C 
ATOM     13  C   UNL     1      14.338  10.178  17.089  0.00  0.00    +0.032 C 
ATOM     14  C   UNL     1      15.826  11.025  18.988  0.00  0.00    +0.011 C 
ATOM     15  C   UNL     1      13.969   7.606  18.526  0.00  0.00    +0.007 C 
ATOM     16  C   UNL     1      16.836   9.372  20.617  0.00  0.00    +0.186 C 
ATOM     17  C   UNL     1      13.297   9.143  16.602  0.00  0.00    +0.119 C 
ATOM     18  C   UNL     1      16.393  10.813  20.387  0.00  0.00    +0.046 C 
ATOM     19  C   UNL     1      13.649   7.722  17.034  0.00  0.00    +0.032 C 
ATOM     20  C   UNL     1      13.411  10.547  19.463  0.00  0.00    +0.012 C 
ATOM     23  C   UNL     1      16.392   6.917  20.337  0.00  0.00    +0.017 C 
ENDROOT
BRANCH  17   2
ATOM      2  O   UNL     1      11.993   9.477  17.063  0.00  0.00    -0.391 OA
ATOM     35  H   UNL     1      11.581   8.665  17.404  0.00  0.00    +0.210 HD
ENDBRANCH  17   2
BRANCH  16   1
ATOM      1  O   UNL     1      17.333   9.294  21.952  0.00  0.00    -0.446 OA
BRANCH   1  25
ATOM      5  O   UNL     1      19.514   9.985  21.758  0.00  0.00    -0.226 OA
ATOM      8  N   UNL     1      18.968   7.903  22.624  0.00  0.00    -0.281 N 
ATOM     25  C   UNL     1      18.686   9.139  22.082  0.00  0.00    +0.401 C 
ATOM     37  H   UNL     1      18.187   7.294  22.853  0.00  0.00    +0.152 HD
BRANCH   8  30
ATOM     30  C   UNL     1      20.306   7.429  22.890  0.00  0.00    +0.107 C 
BRANCH  30  32
ATOM     32  C   UNL     1      20.579   6.072  22.252  0.00  0.00    +0.015 C 
ATOM     34  C   UNL     1      20.089   5.989  20.813  0.00  0.00    +0.005 C 
ENDBRANCH  30  32
ENDBRANCH   8  30
ENDBRANCH   1  25
ENDBRANCH  16   1
BRANCH  12  21
ATOM     21  C   UNL     1      14.697   8.280  21.510  0.00  0.00    +0.166 C 
BRANCH  21   3
ATOM      3  O   UNL     1      15.048   7.209  22.359  0.00  0.00    -0.394 OA
ATOM     36  H   UNL     1      16.011   7.093  22.297  0.00  0.00    +0.209 HD
ENDBRANCH  21   3
ENDBRANCH  12  21
BRANCH  13  22
ATOM     22  C   UNL     1      13.954  11.579  16.587  0.00  0.00    +0.102 C 
BRANCH  22  24
ATOM      4  O   UNL     1      13.279  11.186  14.337  0.00  0.00    -0.276 OA
ATOM      7  N   UNL     1      15.302  12.253  14.660  0.00  0.00    -0.300 N 
ATOM     24  C   UNL     1      14.135  11.651  15.092  0.00  0.00    +0.216 C 
ATOM     26  C   UNL     1      16.353  12.825  15.501  0.00  0.00    +0.130 C 
ATOM     27  C   UNL     1      15.625  12.392  13.247  0.00  0.00    +0.109 C 
ATOM     28  C   UNL     1      17.512  13.093  14.543  0.00  0.00    +0.092 C 
ATOM     29  C   UNL     1      16.804  13.356  13.215  0.00  0.00    +0.043 C 
BRANCH  28   9
ATOM      6  O   UNL     1      20.334  13.102  13.860  0.00  0.00    -0.276 OA
ATOM      9  N   UNL     1      18.396  11.955  14.450  0.00  0.00    -0.311 N 
ATOM     31  C   UNL     1      19.735  12.059  14.115  0.00  0.00    +0.210 C 
ATOM     33  C   UNL     1      20.431  10.725  14.114  0.00  0.00    +0.109 C 
ATOM     38  H   UNL     1      17.998  11.031  14.595  0.00  0.00    +0.149 HD
ENDBRANCH  28   9
ENDBRANCH  22  24
ENDBRANCH  13  22
TORSDOF 10
ENDMDL
