REMARK  Name = 7144094
REMARK  4 active torsions:
REMARK  status: ('A' for Active; 'I' for Inactive)
REMARK    1  A    between atoms: O_4  and  C_26
REMARK    2  A    between atoms: O_4  and  C_29
REMARK    3  A    between atoms: C_14  and  C_19
REMARK    4  A    between atoms: C_16  and  C_20
REMARK                            x       y       z     vdW  Elec       q    Type
REMARK                         _______ _______ _______ _____ _____    ______ ____
ROOT
ATOM      2  O   UNL     1      -3.000   2.611   2.153  0.00  0.00    -0.268 OA
ATOM      3  O   UNL     1      -3.925  -1.675  -0.402  0.00  0.00    -0.269 OA
ATOM      5  N   UNL     1      -1.655   1.857   0.390  0.00  0.00    -0.311 N 
ATOM      6  N   UNL     1      -2.139  -0.632  -1.492  0.00  0.00    -0.296 N 
ATOM      7  C   UNL     1      -2.533   1.761  -2.020  0.00  0.00    +0.027 C 
ATOM      8  C   UNL     1      -0.254   0.988  -1.507  0.00  0.00    +0.054 C 
ATOM      9  C   UNL     1      -1.069   1.919  -2.404  0.00  0.00    +0.018 C 
ATOM     10  C   UNL     1      -2.707   2.222  -0.572  0.00  0.00    +0.130 C 
ATOM     11  C   UNL     1      -2.991   0.306  -2.220  0.00  0.00    +0.113 C 
ATOM     12  C   UNL     1      -0.698  -0.472  -1.739  0.00  0.00    +0.117 C 
ATOM     13  C   UNL     1      -0.408   1.353  -0.028  0.00  0.00    +0.034 A 
ATOM     14  C   UNL     1       0.590   1.176   0.877  0.00  0.00    +0.002 A 
ATOM     15  C   UNL     1      -1.935   2.157   1.735  0.00  0.00    +0.252 A 
ATOM     16  C   UNL     1      -2.719  -1.543  -0.606  0.00  0.00    +0.253 C 
ATOM     17  C   UNL     1       0.337   1.471   2.275  0.00  0.00    +0.015 A 
ATOM     18  C   UNL     1      -0.843   1.917   2.706  0.00  0.00    +0.071 A 
ENDROOT
BRANCH  14  19
ATOM     19  C   UNL     1       1.923   0.673   0.480  0.00  0.00    -0.016 A 
ATOM     21  C   UNL     1       2.168  -0.696   0.465  0.00  0.00    +0.012 A 
ATOM     22  C   UNL     1       2.922   1.574   0.124  0.00  0.00    +0.012 A 
ATOM     24  C   UNL     1       3.426  -1.170   0.091  0.00  0.00    +0.046 A 
ATOM     25  C   UNL     1       4.180   1.100  -0.251  0.00  0.00    +0.046 A 
ATOM     26  C   UNL     1       4.432  -0.272  -0.267  0.00  0.00    +0.120 A 
BRANCH  26   4
ATOM      4  O   UNL     1       5.658  -0.735  -0.632  0.00  0.00    -0.495 OA
ATOM     29  C   UNL     1       6.641   0.238  -0.986  0.00  0.00    +0.277 C 
ENDBRANCH  26   4
ENDBRANCH  14  19
BRANCH  16  20
ATOM      1  S   UNL     1      -1.387  -3.933  -0.479  0.00  0.00    -0.092 S 
ATOM     20  C   UNL     1      -1.833  -2.417   0.172  0.00  0.00    +0.074 A 
ATOM     23  C   UNL     1      -1.276  -2.192   1.407  0.00  0.00    +0.021 A 
ATOM     27  C   UNL     1      -0.467  -3.286   1.830  0.00  0.00    +0.008 A 
ATOM     28  C   UNL     1      -0.439  -4.300   0.899  0.00  0.00    +0.046 A 
ENDBRANCH  16  20
TORSDOF 3
