MODEL 1
REMARK VINA RESULT:      -7.2      0.000      0.000
REMARK  Name = 75368543
REMARK  4 active torsions:
REMARK  status: ('A' for Active; 'I' for Inactive)
REMARK    1  A    between atoms: O_2  and  C_20
REMARK    2  A    between atoms: N_5  and  C_13
REMARK    3  A    between atoms: C_13  and  C_14
REMARK    4  A    between atoms: C_19  and  C_20
REMARK                            x       y       z     vdW  Elec       q    Type
REMARK                         _______ _______ _______ _____ _____    ______ ____
ROOT
ATOM      1  O   UNL     1      10.873  10.587  22.471  0.00  0.00    -0.253 OA
ATOM      4  N   UNL     1      12.336   8.843  21.871  0.00  0.00    -0.279 N 
ATOM      5  N   UNL     1      14.390   7.482  20.516  0.00  0.00    -0.295 NA
ATOM      6  N   UNL     1      10.157   8.374  22.152  0.00  0.00    -0.297 N 
ATOM      7  C   UNL     1      12.251   7.405  21.730  0.00  0.00    +0.109 C 
ATOM      8  C   UNL     1      13.013   6.946  20.488  0.00  0.00    +0.109 C 
ATOM      9  C   UNL     1      13.626   9.491  21.765  0.00  0.00    +0.125 C 
ATOM     10  C   UNL     1      10.749   7.136  21.699  0.00  0.00    +0.129 C 
ATOM     11  C   UNL     1      14.380   8.959  20.544  0.00  0.00    +0.104 C 
ATOM     12  C   UNL     1      11.103   9.415  22.201  0.00  0.00    +0.303 C 
ATOM     21  H   UNL     1       9.166   8.504  22.332  0.00  0.00    +0.150 HD
ENDROOT
BRANCH   5  13
ATOM     13  C   UNL     1      15.148   7.001  19.361  0.00  0.00    +0.119 C 
BRANCH  13  14
ATOM     14  C   UNL     1      16.546   6.590  19.740  0.00  0.00    -0.033 A 
ATOM     15  C   UNL     1      17.115   7.062  20.922  0.00  0.00    +0.006 A 
ATOM     16  C   UNL     1      17.272   5.738  18.909  0.00  0.00    +0.006 A 
ATOM     17  C   UNL     1      18.410   6.682  21.274  0.00  0.00    +0.015 A 
ATOM     18  C   UNL     1      18.568   5.358  19.260  0.00  0.00    +0.015 A 
ATOM     19  C   UNL     1      19.136   5.830  20.443  0.00  0.00    +0.059 A 
BRANCH  19  20
ATOM      3  O   UNL     1      20.982   5.535  21.936  0.00  0.00    -0.245 OA
ATOM     20  C   UNL     1      20.487   5.433  20.809  0.00  0.00    +0.337 C 
BRANCH  20   2
ATOM      2  O   UNL     1      21.182   4.919  19.758  0.00  0.00    -0.477 OA
ATOM     22  H   UNL     1      21.080   5.465  18.950  0.00  0.00    +0.295 HD
ENDBRANCH  20   2
ENDBRANCH  19  20
ENDBRANCH  13  14
ENDBRANCH   5  13
TORSDOF 4
ENDMDL
MODEL 2
REMARK VINA RESULT:      -6.6      1.715      2.545
REMARK  Name = 75368543
REMARK  4 active torsions:
REMARK  status: ('A' for Active; 'I' for Inactive)
REMARK    1  A    between atoms: O_2  and  C_20
REMARK    2  A    between atoms: N_5  and  C_13
REMARK    3  A    between atoms: C_13  and  C_14
REMARK    4  A    between atoms: C_19  and  C_20
REMARK                            x       y       z     vdW  Elec       q    Type
REMARK                         _______ _______ _______ _____ _____    ______ ____
ROOT
ATOM      1  O   UNL     1      10.529   8.155  20.484  0.00  0.00    -0.253 OA
ATOM      4  N   UNL     1      12.833   7.692  20.355  0.00  0.00    -0.279 N 
ATOM      5  N   UNL     1      15.590   7.899  20.867  0.00  0.00    -0.295 NA
ATOM      6  N   UNL     1      11.647   7.807  18.450  0.00  0.00    -0.297 N 
ATOM      7  C   UNL     1      13.769   7.311  19.319  0.00  0.00    +0.109 C 
ATOM      8  C   UNL     1      15.086   8.068  19.488  0.00  0.00    +0.109 C 
ATOM      9  C   UNL     1      13.269   7.704  21.735  0.00  0.00    +0.125 C 
ATOM     10  C   UNL     1      13.015   7.613  18.026  0.00  0.00    +0.129 C 
ATOM     11  C   UNL     1      14.618   8.418  21.851  0.00  0.00    +0.104 C 
ATOM     12  C   UNL     1      11.547   7.910  19.850  0.00  0.00    +0.303 C 
ATOM     21  H   UNL     1      10.865   7.939  17.817  0.00  0.00    +0.150 HD
ENDROOT
BRANCH   5  13
ATOM     13  C   UNL     1      16.880   8.571  21.023  0.00  0.00    +0.119 C 
BRANCH  13  14
ATOM     14  C   UNL     1      18.024   7.592  21.025  0.00  0.00    -0.033 A 
ATOM     15  C   UNL     1      18.005   6.495  20.166  0.00  0.00    +0.006 A 
ATOM     16  C   UNL     1      19.104   7.783  21.888  0.00  0.00    +0.006 A 
ATOM     17  C   UNL     1      19.065   5.588  20.168  0.00  0.00    +0.015 A 
ATOM     18  C   UNL     1      20.164   6.877  21.890  0.00  0.00    +0.015 A 
ATOM     19  C   UNL     1      20.144   5.779  21.029  0.00  0.00    +0.059 A 
BRANCH  19  20
ATOM      3  O   UNL     1      21.664   4.220  22.021  0.00  0.00    -0.245 OA
ATOM     20  C   UNL     1      21.250   4.834  21.032  0.00  0.00    +0.337 C 
BRANCH  20   2
ATOM      2  O   UNL     1      21.806   4.679  19.800  0.00  0.00    -0.477 OA
ATOM     22  H   UNL     1      22.663   5.149  19.725  0.00  0.00    +0.295 HD
ENDBRANCH  20   2
ENDBRANCH  19  20
ENDBRANCH  13  14
ENDBRANCH   5  13
TORSDOF 4
ENDMDL
MODEL 3
REMARK VINA RESULT:      -6.4     26.543     28.137
REMARK  Name = 75368543
REMARK  4 active torsions:
REMARK  status: ('A' for Active; 'I' for Inactive)
REMARK    1  A    between atoms: O_2  and  C_20
REMARK    2  A    between atoms: N_5  and  C_13
REMARK    3  A    between atoms: C_13  and  C_14
REMARK    4  A    between atoms: C_19  and  C_20
REMARK                            x       y       z     vdW  Elec       q    Type
REMARK                         _______ _______ _______ _____ _____    ______ ____
ROOT
ATOM      1  O   UNL     1     -11.930  11.609  13.950  0.00  0.00    -0.253 OA
ATOM      4  N   UNL     1     -11.214  10.833  16.053  0.00  0.00    -0.279 N 
ATOM      5  N   UNL     1     -11.350  10.002  18.736  0.00  0.00    -0.295 NA
ATOM      6  N   UNL     1     -10.034  12.457  15.044  0.00  0.00    -0.297 N 
ATOM      7  C   UNL     1     -10.065  11.036  16.910  0.00  0.00    +0.109 C 
ATOM      8  C   UNL     1     -10.504  11.156  18.369  0.00  0.00    +0.109 C 
ATOM      9  C   UNL     1     -12.189   9.823  16.402  0.00  0.00    +0.125 C 
ATOM     10  C   UNL     1      -9.403  12.285  16.333  0.00  0.00    +0.129 C 
ATOM     11  C   UNL     1     -12.556   9.940  17.884  0.00  0.00    +0.104 C 
ATOM     12  C   UNL     1     -11.158  11.622  14.900  0.00  0.00    +0.303 C 
ATOM     21  H   UNL     1      -9.756  13.153  14.359  0.00  0.00    +0.150 HD
ENDROOT
BRANCH   5  13
ATOM     13  C   UNL     1     -11.728  10.075  20.147  0.00  0.00    +0.119 C 
BRANCH  13  14
ATOM     14  C   UNL     1     -12.210   8.747  20.668  0.00  0.00    -0.033 A 
ATOM     15  C   UNL     1     -11.442   7.601  20.471  0.00  0.00    +0.006 A 
ATOM     16  C   UNL     1     -13.425   8.664  21.348  0.00  0.00    +0.006 A 
ATOM     17  C   UNL     1     -11.887   6.371  20.953  0.00  0.00    +0.015 A 
ATOM     18  C   UNL     1     -13.871   7.434  21.830  0.00  0.00    +0.015 A 
ATOM     19  C   UNL     1     -13.102   6.287  21.634  0.00  0.00    +0.059 A 
BRANCH  19  20
ATOM      3  O   UNL     1     -14.686   4.519  21.934  0.00  0.00    -0.245 OA
ATOM     20  C   UNL     1     -13.568   5.004  22.137  0.00  0.00    +0.337 C 
BRANCH  20   2
ATOM      2  O   UNL     1     -12.624   4.361  22.877  0.00  0.00    -0.477 OA
ATOM     22  H   UNL     1     -12.740   4.524  23.837  0.00  0.00    +0.295 HD
ENDBRANCH  20   2
ENDBRANCH  19  20
ENDBRANCH  13  14
ENDBRANCH   5  13
TORSDOF 4
ENDMDL
MODEL 4
REMARK VINA RESULT:      -6.0      2.168      2.876
REMARK  Name = 75368543
REMARK  4 active torsions:
REMARK  status: ('A' for Active; 'I' for Inactive)
REMARK    1  A    between atoms: O_2  and  C_20
REMARK    2  A    between atoms: N_5  and  C_13
REMARK    3  A    between atoms: C_13  and  C_14
REMARK    4  A    between atoms: C_19  and  C_20
REMARK                            x       y       z     vdW  Elec       q    Type
REMARK                         _______ _______ _______ _____ _____    ______ ____
ROOT
ATOM      1  O   UNL     1      11.096  13.786  23.477  0.00  0.00    -0.253 OA
ATOM      4  N   UNL     1      12.215  11.885  22.655  0.00  0.00    -0.279 N 
ATOM      5  N   UNL     1      13.579  10.208  20.857  0.00  0.00    -0.295 NA
ATOM      6  N   UNL     1      10.325  11.598  23.836  0.00  0.00    -0.297 N 
ATOM      7  C   UNL     1      12.090  10.450  22.801  0.00  0.00    +0.109 C 
ATOM      8  C   UNL     1      12.305   9.758  21.456  0.00  0.00    +0.109 C 
ATOM      9  C   UNL     1      13.356  12.430  21.951  0.00  0.00    +0.125 C 
ATOM     10  C   UNL     1      10.698  10.270  23.402  0.00  0.00    +0.129 C 
ATOM     11  C   UNL     1      13.572  11.670  20.640  0.00  0.00    +0.104 C 
ATOM     12  C   UNL     1      11.208  12.574  23.339  0.00  0.00    +0.303 C 
ATOM     21  H   UNL     1       9.483  11.813  24.362  0.00  0.00    +0.150 HD
ENDROOT
BRANCH   5  13
ATOM     13  C   UNL     1      13.824   9.508  19.596  0.00  0.00    +0.119 C 
BRANCH  13  14
ATOM     14  C   UNL     1      15.000   8.573  19.695  0.00  0.00    -0.033 A 
ATOM     15  C   UNL     1      16.066   8.879  20.540  0.00  0.00    +0.006 A 
ATOM     16  C   UNL     1      15.024   7.400  18.941  0.00  0.00    +0.006 A 
ATOM     17  C   UNL     1      17.155   8.014  20.631  0.00  0.00    +0.015 A 
ATOM     18  C   UNL     1      16.113   6.534  19.032  0.00  0.00    +0.015 A 
ATOM     19  C   UNL     1      17.179   6.840  19.878  0.00  0.00    +0.059 A 
BRANCH  19  20
ATOM      3  O   UNL     1      19.201   5.989  20.832  0.00  0.00    -0.245 OA
ATOM     20  C   UNL     1      18.315   5.937  19.972  0.00  0.00    +0.337 C 
BRANCH  20   2
ATOM      2  O   UNL     1      18.312   4.992  18.993  0.00  0.00    -0.477 OA
ATOM     22  H   UNL     1      17.475   4.482  18.981  0.00  0.00    +0.295 HD
ENDBRANCH  20   2
ENDBRANCH  19  20
ENDBRANCH  13  14
ENDBRANCH   5  13
TORSDOF 4
ENDMDL
MODEL 5
REMARK VINA RESULT:      -5.9     27.438     30.208
REMARK  Name = 75368543
REMARK  4 active torsions:
REMARK  status: ('A' for Active; 'I' for Inactive)
REMARK    1  A    between atoms: O_2  and  C_20
REMARK    2  A    between atoms: N_5  and  C_13
REMARK    3  A    between atoms: C_13  and  C_14
REMARK    4  A    between atoms: C_19  and  C_20
REMARK                            x       y       z     vdW  Elec       q    Type
REMARK                         _______ _______ _______ _____ _____    ______ ____
ROOT
ATOM      1  O   UNL     1      -3.402 -12.244  19.981  0.00  0.00    -0.253 OA
ATOM      4  N   UNL     1      -5.212 -11.251  18.852  0.00  0.00    -0.279 N 
ATOM      5  N   UNL     1      -7.863 -10.747  18.063  0.00  0.00    -0.295 NA
ATOM      6  N   UNL     1      -3.374 -11.794  17.678  0.00  0.00    -0.297 N 
ATOM      7  C   UNL     1      -5.463 -10.736  17.522  0.00  0.00    +0.109 C 
ATOM      8  C   UNL     1      -6.860 -11.139  17.051  0.00  0.00    +0.109 C 
ATOM      9  C   UNL     1      -6.202 -11.052  19.888  0.00  0.00    +0.125 C 
ATOM     10  C   UNL     1      -4.315 -11.309  16.694  0.00  0.00    +0.129 C 
ATOM     11  C   UNL     1      -7.593 -11.408  19.356  0.00  0.00    +0.104 C 
ATOM     12  C   UNL     1      -3.935 -11.811  18.969  0.00  0.00    +0.303 C 
ATOM     21  H   UNL     1      -2.453 -12.158  17.458  0.00  0.00    +0.150 HD
ENDROOT
BRANCH   5  13
ATOM     13  C   UNL     1      -9.211 -11.074  17.597  0.00  0.00    +0.119 C 
BRANCH  13  14
ATOM     14  C   UNL     1      -9.944  -9.855  17.105  0.00  0.00    -0.033 A 
ATOM     15  C   UNL     1      -9.564  -8.588  17.544  0.00  0.00    +0.006 A 
ATOM     16  C   UNL     1     -11.005  -9.993  16.209  0.00  0.00    +0.006 A 
ATOM     17  C   UNL     1     -10.243  -7.458  17.089  0.00  0.00    +0.015 A 
ATOM     18  C   UNL     1     -11.684  -8.863  15.754  0.00  0.00    +0.015 A 
ATOM     19  C   UNL     1     -11.303  -7.596  16.193  0.00  0.00    +0.059 A 
BRANCH  19  20
ATOM      3  O   UNL     1     -13.225  -6.217  15.835  0.00  0.00    -0.245 OA
ATOM     20  C   UNL     1     -12.012  -6.418  15.718  0.00  0.00    +0.337 C 
BRANCH  20   2
ATOM      2  O   UNL     1     -11.186  -5.522  15.111  0.00  0.00    -0.477 OA
ATOM     22  H   UNL     1     -10.380  -5.951  14.756  0.00  0.00    +0.295 HD
ENDBRANCH  20   2
ENDBRANCH  19  20
ENDBRANCH  13  14
ENDBRANCH   5  13
TORSDOF 4
ENDMDL
MODEL 6
REMARK VINA RESULT:      -5.9     27.080     28.590
REMARK  Name = 75368543
REMARK  4 active torsions:
REMARK  status: ('A' for Active; 'I' for Inactive)
REMARK    1  A    between atoms: O_2  and  C_20
REMARK    2  A    between atoms: N_5  and  C_13
REMARK    3  A    between atoms: C_13  and  C_14
REMARK    4  A    between atoms: C_19  and  C_20
REMARK                            x       y       z     vdW  Elec       q    Type
REMARK                         _______ _______ _______ _____ _____    ______ ____
ROOT
ATOM      1  O   UNL     1     -12.078  10.238  12.585  0.00  0.00    -0.253 OA
ATOM      4  N   UNL     1     -12.186   9.249  14.719  0.00  0.00    -0.279 N 
ATOM      5  N   UNL     1     -12.445   9.041  17.511  0.00  0.00    -0.295 NA
ATOM      6  N   UNL     1     -10.559   8.602  13.310  0.00  0.00    -0.297 N 
ATOM      7  C   UNL     1     -11.517   8.165  15.406  0.00  0.00    +0.109 C 
ATOM      8  C   UNL     1     -11.214   8.559  16.851  0.00  0.00    +0.109 C 
ATOM      9  C   UNL     1     -13.319   9.896  15.346  0.00  0.00    +0.125 C 
ATOM     10  C   UNL     1     -10.288   7.895  14.542  0.00  0.00    +0.129 C 
ATOM     11  C   UNL     1     -12.994  10.218  16.806  0.00  0.00    +0.104 C 
ATOM     12  C   UNL     1     -11.668   9.460  13.436  0.00  0.00    +0.303 C 
ATOM     21  H   UNL     1      -9.973   8.555  12.482  0.00  0.00    +0.150 HD
ENDROOT
BRANCH   5  13
ATOM     13  C   UNL     1     -12.179   9.365  18.912  0.00  0.00    +0.119 C 
BRANCH  13  14
ATOM     14  C   UNL     1     -12.529   8.221  19.827  0.00  0.00    -0.033 A 
ATOM     15  C   UNL     1     -13.847   8.036  20.240  0.00  0.00    +0.006 A 
ATOM     16  C   UNL     1     -11.533   7.347  20.262  0.00  0.00    +0.006 A 
ATOM     17  C   UNL     1     -14.171   6.978  21.088  0.00  0.00    +0.015 A 
ATOM     18  C   UNL     1     -11.857   6.288  21.110  0.00  0.00    +0.015 A 
ATOM     19  C   UNL     1     -13.176   6.103  21.523  0.00  0.00    +0.059 A 
BRANCH  19  20
ATOM      3  O   UNL     1     -14.658   4.632  22.690  0.00  0.00    -0.245 OA
ATOM     20  C   UNL     1     -13.513   4.998  22.407  0.00  0.00    +0.337 C 
BRANCH  20   2
ATOM      2  O   UNL     1     -12.411   4.380  22.912  0.00  0.00    -0.477 OA
ATOM     22  H   UNL     1     -12.534   3.409  22.976  0.00  0.00    +0.295 HD
ENDBRANCH  20   2
ENDBRANCH  19  20
ENDBRANCH  13  14
ENDBRANCH   5  13
TORSDOF 4
ENDMDL
MODEL 7
REMARK VINA RESULT:      -5.9     27.745     29.559
REMARK  Name = 75368543
REMARK  4 active torsions:
REMARK  status: ('A' for Active; 'I' for Inactive)
REMARK    1  A    between atoms: O_2  and  C_20
REMARK    2  A    between atoms: N_5  and  C_13
REMARK    3  A    between atoms: C_13  and  C_14
REMARK    4  A    between atoms: C_19  and  C_20
REMARK                            x       y       z     vdW  Elec       q    Type
REMARK                         _______ _______ _______ _____ _____    ______ ____
ROOT
ATOM      1  O   UNL     1     -12.581  -7.708  13.227  0.00  0.00    -0.253 OA
ATOM      4  N   UNL     1     -10.953  -8.047  14.894  0.00  0.00    -0.279 N 
ATOM      5  N   UNL     1      -9.522  -9.319  16.953  0.00  0.00    -0.295 NA
ATOM      6  N   UNL     1     -12.005  -6.064  14.801  0.00  0.00    -0.297 N 
ATOM      7  C   UNL     1     -10.292  -7.236  15.893  0.00  0.00    +0.109 C 
ATOM      8  C   UNL     1     -10.160  -8.010  17.204  0.00  0.00    +0.109 C 
ATOM      9  C   UNL     1     -10.502  -9.404  14.669  0.00  0.00    +0.125 C 
ATOM     10  C   UNL     1     -11.161  -5.983  15.971  0.00  0.00    +0.129 C 
ATOM     11  C   UNL     1     -10.325 -10.124  16.009  0.00  0.00    +0.104 C 
ATOM     12  C   UNL     1     -11.921  -7.327  14.186  0.00  0.00    +0.303 C 
ATOM     21  H   UNL     1     -12.646  -5.334  14.505  0.00  0.00    +0.150 HD
ENDROOT
BRANCH   5  13
ATOM     13  C   UNL     1      -9.337 -10.045  18.209  0.00  0.00    +0.119 C 
BRANCH  13  14
ATOM     14  C   UNL     1      -7.912 -10.499  18.389  0.00  0.00    -0.033 A 
ATOM     15  C   UNL     1      -7.591 -11.403  19.399  0.00  0.00    +0.006 A 
ATOM     16  C   UNL     1      -6.914 -10.013  17.544  0.00  0.00    +0.006 A 
ATOM     17  C   UNL     1      -6.271 -11.823  19.566  0.00  0.00    +0.015 A 
ATOM     18  C   UNL     1      -5.594 -10.433  17.711  0.00  0.00    +0.015 A 
ATOM     19  C   UNL     1      -5.273 -11.339  18.722  0.00  0.00    +0.059 A 
BRANCH  19  20
ATOM      3  O   UNL     1      -3.402 -12.180  19.953  0.00  0.00    -0.245 OA
ATOM     20  C   UNL     1      -3.897 -11.776  18.896  0.00  0.00    +0.337 C 
BRANCH  20   2
ATOM      2  O   UNL     1      -3.177 -11.700  17.743  0.00  0.00    -0.477 OA
ATOM     22  H   UNL     1      -3.052 -10.773  17.451  0.00  0.00    +0.295 HD
ENDBRANCH  20   2
ENDBRANCH  19  20
ENDBRANCH  13  14
ENDBRANCH   5  13
TORSDOF 4
ENDMDL
MODEL 8
REMARK VINA RESULT:      -5.7     31.109     32.404
REMARK  Name = 75368543
REMARK  4 active torsions:
REMARK  status: ('A' for Active; 'I' for Inactive)
REMARK    1  A    between atoms: O_2  and  C_20
REMARK    2  A    between atoms: N_5  and  C_13
REMARK    3  A    between atoms: C_13  and  C_14
REMARK    4  A    between atoms: C_19  and  C_20
REMARK                            x       y       z     vdW  Elec       q    Type
REMARK                         _______ _______ _______ _____ _____    ______ ____
ROOT
ATOM      1  O   UNL     1     -14.482  -0.866  29.465  0.00  0.00    -0.253 OA
ATOM      4  N   UNL     1     -14.711   1.333  30.272  0.00  0.00    -0.279 N 
ATOM      5  N   UNL     1     -14.877   3.458  32.106  0.00  0.00    -0.295 NA
ATOM      6  N   UNL     1     -16.119   0.618  28.673  0.00  0.00    -0.297 N 
ATOM      7  C   UNL     1     -15.493   2.501  29.924  0.00  0.00    +0.109 C 
ATOM      8  C   UNL     1     -16.003   3.195  31.186  0.00  0.00    +0.109 C 
ATOM      9  C   UNL     1     -13.675   1.446  31.276  0.00  0.00    +0.125 C 
ATOM     10  C   UNL     1     -16.582   1.945  29.010  0.00  0.00    +0.129 C 
ATOM     11  C   UNL     1     -14.209   2.199  32.496  0.00  0.00    +0.104 C 
ATOM     12  C   UNL     1     -15.028   0.230  29.473  0.00  0.00    +0.303 C 
ATOM     21  H   UNL     1     -16.574   0.006  28.004  0.00  0.00    +0.150 HD
ENDROOT
BRANCH   5  13
ATOM     13  C   UNL     1     -15.344   4.175  33.292  0.00  0.00    +0.119 C 
BRANCH  13  14
ATOM     14  C   UNL     1     -14.543   5.425  33.543  0.00  0.00    -0.033 A 
ATOM     15  C   UNL     1     -14.185   6.250  32.478  0.00  0.00    +0.006 A 
ATOM     16  C   UNL     1     -14.159   5.758  34.842  0.00  0.00    +0.006 A 
ATOM     17  C   UNL     1     -13.443   7.407  32.710  0.00  0.00    +0.015 A 
ATOM     18  C   UNL     1     -13.417   6.916  35.074  0.00  0.00    +0.015 A 
ATOM     19  C   UNL     1     -13.059   7.741  34.008  0.00  0.00    +0.059 A 
BRANCH  19  20
ATOM      3  O   UNL     1     -12.082   9.457  35.359  0.00  0.00    -0.245 OA
ATOM     20  C   UNL     1     -12.285   8.948  34.251  0.00  0.00    +0.337 C 
BRANCH  20   2
ATOM      2  O   UNL     1     -11.784   9.485  33.106  0.00  0.00    -0.477 OA
ATOM     22  H   UNL     1     -10.882   9.845  33.236  0.00  0.00    +0.295 HD
ENDBRANCH  20   2
ENDBRANCH  19  20
ENDBRANCH  13  14
ENDBRANCH   5  13
TORSDOF 4
ENDMDL
MODEL 9
REMARK VINA RESULT:      -5.7      3.757      8.305
REMARK  Name = 75368543
REMARK  4 active torsions:
REMARK  status: ('A' for Active; 'I' for Inactive)
REMARK    1  A    between atoms: O_2  and  C_20
REMARK    2  A    between atoms: N_5  and  C_13
REMARK    3  A    between atoms: C_13  and  C_14
REMARK    4  A    between atoms: C_19  and  C_20
REMARK                            x       y       z     vdW  Elec       q    Type
REMARK                         _______ _______ _______ _____ _____    ______ ____
ROOT
ATOM      1  O   UNL     1      24.335   5.414  20.479  0.00  0.00    -0.253 OA
ATOM      4  N   UNL     1      22.004   5.735  20.404  0.00  0.00    -0.279 N 
ATOM      5  N   UNL     1      19.492   6.900  20.894  0.00  0.00    -0.295 NA
ATOM      6  N   UNL     1      22.797   3.666  20.776  0.00  0.00    -0.297 N 
ATOM      7  C   UNL     1      20.829   4.890  20.415  0.00  0.00    +0.109 C 
ATOM      8  C   UNL     1      19.743   5.501  21.299  0.00  0.00    +0.109 C 
ATOM      9  C   UNL     1      21.855   7.155  20.164  0.00  0.00    +0.125 C 
ATOM     10  C   UNL     1      21.361   3.541  20.890  0.00  0.00    +0.129 C 
ATOM     11  C   UNL     1      20.719   7.714  21.024  0.00  0.00    +0.104 C 
ATOM     12  C   UNL     1      23.185   4.998  20.540  0.00  0.00    +0.303 C 
ATOM     21  H   UNL     1      23.452   2.906  20.932  0.00  0.00    +0.150 HD
ENDROOT
BRANCH   5  13
ATOM     13  C   UNL     1      18.413   7.477  21.696  0.00  0.00    +0.119 C 
BRANCH  13  14
ATOM     14  C   UNL     1      17.080   7.363  21.005  0.00  0.00    -0.033 A 
ATOM     15  C   UNL     1      16.988   6.727  19.768  0.00  0.00    +0.006 A 
ATOM     16  C   UNL     1      15.937   7.894  21.602  0.00  0.00    +0.006 A 
ATOM     17  C   UNL     1      15.754   6.621  19.127  0.00  0.00    +0.015 A 
ATOM     18  C   UNL     1      14.703   7.788  20.962  0.00  0.00    +0.015 A 
ATOM     19  C   UNL     1      14.611   7.151  19.724  0.00  0.00    +0.059 A 
BRANCH  19  20
ATOM      3  O   UNL     1      13.014   7.604  18.001  0.00  0.00    -0.245 OA
ATOM     20  C   UNL     1      13.323   7.041  19.057  0.00  0.00    +0.337 C 
BRANCH  20   2
ATOM      2  O   UNL     1      12.458   6.231  19.725  0.00  0.00    -0.477 OA
ATOM     22  H   UNL     1      11.830   5.787  19.116  0.00  0.00    +0.295 HD
ENDBRANCH  20   2
ENDBRANCH  19  20
ENDBRANCH  13  14
ENDBRANCH   5  13
TORSDOF 4
ENDMDL
MODEL 10
REMARK VINA RESULT:      -5.7     31.380     32.520
REMARK  Name = 75368543
REMARK  4 active torsions:
REMARK  status: ('A' for Active; 'I' for Inactive)
REMARK    1  A    between atoms: O_2  and  C_20
REMARK    2  A    between atoms: N_5  and  C_13
REMARK    3  A    between atoms: C_13  and  C_14
REMARK    4  A    between atoms: C_19  and  C_20
REMARK                            x       y       z     vdW  Elec       q    Type
REMARK                         _______ _______ _______ _____ _____    ______ ____
ROOT
ATOM      1  O   UNL     1     -16.496  10.179  33.362  0.00  0.00    -0.253 OA
ATOM      4  N   UNL     1     -15.208   8.212  33.252  0.00  0.00    -0.279 N 
ATOM      5  N   UNL     1     -14.559   5.481  33.410  0.00  0.00    -0.295 NA
ATOM      6  N   UNL     1     -14.329  10.023  34.251  0.00  0.00    -0.297 N 
ATOM      7  C   UNL     1     -13.847   7.831  33.568  0.00  0.00    +0.109 C 
ATOM      8  C   UNL     1     -13.821   6.458  34.237  0.00  0.00    +0.109 C 
ATOM      9  C   UNL     1     -16.069   7.269  32.571  0.00  0.00    +0.125 C 
ATOM     10  C   UNL     1     -13.345   8.981  34.438  0.00  0.00    +0.129 C 
ATOM     11  C   UNL     1     -15.967   5.894  33.235  0.00  0.00    +0.104 C 
ATOM     12  C   UNL     1     -15.474   9.544  33.586  0.00  0.00    +0.303 C 
ATOM     21  H   UNL     1     -14.246  10.963  34.626  0.00  0.00    +0.150 HD
ENDROOT
BRANCH   5  13
ATOM     13  C   UNL     1     -14.490   4.149  34.011  0.00  0.00    +0.119 C 
BRANCH  13  14
ATOM     14  C   UNL     1     -14.371   3.069  32.969  0.00  0.00    -0.033 A 
ATOM     15  C   UNL     1     -14.909   1.806  33.209  0.00  0.00    +0.006 A 
ATOM     16  C   UNL     1     -13.721   3.333  31.763  0.00  0.00    +0.006 A 
ATOM     17  C   UNL     1     -14.798   0.806  32.244  0.00  0.00    +0.015 A 
ATOM     18  C   UNL     1     -13.610   2.332  30.798  0.00  0.00    +0.015 A 
ATOM     19  C   UNL     1     -14.150   1.069  31.038  0.00  0.00    +0.059 A 
BRANCH  19  20
ATOM      3  O   UNL     1     -14.978  -0.499  29.432  0.00  0.00    -0.245 OA
ATOM     20  C   UNL     1     -14.033   0.025  30.031  0.00  0.00    +0.337 C 
BRANCH  20   2
ATOM      2  O   UNL     1     -12.741  -0.332  29.797  0.00  0.00    -0.477 OA
ATOM     22  H   UNL     1     -12.142  -0.017  30.506  0.00  0.00    +0.295 HD
ENDBRANCH  20   2
ENDBRANCH  19  20
ENDBRANCH  13  14
ENDBRANCH   5  13
TORSDOF 4
ENDMDL
