MODEL 1
REMARK VINA RESULT:      -7.2      0.000      0.000
REMARK  Name = 11887643
REMARK  4 active torsions:
REMARK  status: ('A' for Active; 'I' for Inactive)
REMARK    1  A    between atoms: O_4  and  C_23
REMARK    2  A    between atoms: O_4  and  C_27
REMARK    3  A    between atoms: N_7  and  C_15
REMARK    4  A    between atoms: C_14  and  C_16
REMARK                            x       y       z     vdW  Elec       q    Type
REMARK                         _______ _______ _______ _____ _____    ______ ____
ROOT
ATOM      1  O   UNL     1      -7.079 -10.642  16.542  0.00  0.00    -0.273 OA
ATOM      2  O   UNL     1      -3.468 -12.013  19.225  0.00  0.00    -0.252 OA
ATOM      3  O   UNL     1      -9.118  -8.607  17.774  0.00  0.00    -0.270 OA
ATOM      5  N   UNL     1      -8.686 -10.691  18.716  0.00  0.00    -0.284 N 
ATOM      6  N   UNL     1      -5.538 -11.797  20.104  0.00  0.00    -0.293 N 
ATOM      7  N   UNL     1      -5.215 -11.337  17.796  0.00  0.00    -0.193 N 
ATOM      8  C   UNL     1      -6.934 -11.482  20.031  0.00  0.00    +0.105 C 
ATOM      9  C   UNL     1      -7.252 -10.495  18.930  0.00  0.00    +0.183 C 
ATOM     10  C   UNL     1      -7.839 -12.670  19.710  0.00  0.00    +0.043 C 
ATOM     11  C   UNL     1      -9.122 -11.987  19.247  0.00  0.00    +0.111 C 
ATOM     12  C   UNL     1      -6.528 -10.830  17.629  0.00  0.00    +0.250 C 
ATOM     13  C   UNL     1      -4.660 -11.750  19.038  0.00  0.00    +0.313 C 
ATOM     14  C   UNL     1      -9.504  -9.688  18.215  0.00  0.00    +0.247 C 
ATOM     33  H   UNL     1      -5.168 -12.096  21.000  0.00  0.00    +0.151 HD
ENDROOT
BRANCH   7  15
ATOM     15  C   UNL     1      -4.383 -11.456  16.615  0.00  0.00    +0.046 A 
ATOM     17  C   UNL     1      -4.419 -12.624  15.866  0.00  0.00    +0.027 A 
ATOM     18  C   UNL     1      -3.560 -10.399  16.250  0.00  0.00    +0.027 A 
ATOM     21  C   UNL     1      -3.617 -12.736  14.730  0.00  0.00    +0.048 A 
ATOM     22  C   UNL     1      -2.758 -10.512  15.113  0.00  0.00    +0.048 A 
ATOM     23  C   UNL     1      -2.787 -11.681  14.354  0.00  0.00    +0.129 A 
BRANCH  23   4
ATOM      4  O   UNL     1      -2.005 -11.793  13.245  0.00  0.00    -0.456 OA
BRANCH   4  27
ATOM     27  C   UNL     1      -2.323 -11.003  12.152  0.00  0.00    +0.128 A 
ATOM     28  C   UNL     1      -1.493  -9.949  11.818  0.00  0.00    +0.046 A 
ATOM     29  C   UNL     1      -3.463 -11.290  11.424  0.00  0.00    +0.046 A 
ATOM     30  C   UNL     1      -1.812  -9.154  10.718  0.00  0.00    +0.004 A 
ATOM     31  C   UNL     1      -3.782 -10.496  10.322  0.00  0.00    +0.004 A 
ATOM     32  C   UNL     1      -2.957  -9.427   9.970  0.00  0.00    +0.000 A 
ENDBRANCH   4  27
ENDBRANCH  23   4
ENDBRANCH   7  15
BRANCH  14  16
ATOM     16  C   UNL     1     -10.952  -9.937  18.218  0.00  0.00    +0.037 A 
ATOM     19  C   UNL     1     -11.695  -9.686  19.367  0.00  0.00    +0.013 A 
ATOM     20  C   UNL     1     -11.571 -10.421  17.069  0.00  0.00    +0.013 A 
ATOM     24  C   UNL     1     -13.070  -9.922  19.368  0.00  0.00    +0.001 A 
ATOM     25  C   UNL     1     -12.946 -10.656  17.071  0.00  0.00    +0.001 A 
ATOM     26  C   UNL     1     -13.695 -10.406  18.220  0.00  0.00    +0.000 A 
ENDBRANCH  14  16
TORSDOF 4
ENDMDL
MODEL 2
REMARK VINA RESULT:      -7.0      2.992      4.756
REMARK  Name = 11887643
REMARK  4 active torsions:
REMARK  status: ('A' for Active; 'I' for Inactive)
REMARK    1  A    between atoms: O_4  and  C_23
REMARK    2  A    between atoms: O_4  and  C_27
REMARK    3  A    between atoms: N_7  and  C_15
REMARK    4  A    between atoms: C_14  and  C_16
REMARK                            x       y       z     vdW  Elec       q    Type
REMARK                         _______ _______ _______ _____ _____    ______ ____
ROOT
ATOM      1  O   UNL     1      -9.065  -8.992  15.903  0.00  0.00    -0.273 OA
ATOM      2  O   UNL     1      -8.979 -11.279  20.012  0.00  0.00    -0.252 OA
ATOM      3  O   UNL     1     -10.597  -6.260  15.789  0.00  0.00    -0.270 OA
ATOM      5  N   UNL     1     -11.623  -8.262  16.387  0.00  0.00    -0.284 N 
ATOM      6  N   UNL     1     -10.867 -10.264  19.298  0.00  0.00    -0.293 N 
ATOM      7  N   UNL     1      -8.926 -10.173  17.932  0.00  0.00    -0.193 N 
ATOM      8  C   UNL     1     -11.630  -9.487  18.367  0.00  0.00    +0.105 C 
ATOM      9  C   UNL     1     -10.769  -8.563  17.536  0.00  0.00    +0.183 C 
ATOM     10  C   UNL     1     -12.381 -10.306  17.319  0.00  0.00    +0.043 C 
ATOM     11  C   UNL     1     -12.685  -9.265  16.247  0.00  0.00    +0.111 C 
ATOM     12  C   UNL     1      -9.510  -9.255  17.023  0.00  0.00    +0.250 C 
ATOM     13  C   UNL     1      -9.546 -10.633  19.125  0.00  0.00    +0.313 C 
ATOM     14  C   UNL     1     -11.495  -7.089  15.657  0.00  0.00    +0.247 C 
ATOM     33  H   UNL     1     -11.335 -10.586  20.140  0.00  0.00    +0.151 HD
ENDROOT
BRANCH   7  15
ATOM     15  C   UNL     1      -7.610 -10.690  17.616  0.00  0.00    +0.046 A 
ATOM     17  C   UNL     1      -6.482 -10.005  18.048  0.00  0.00    +0.027 A 
ATOM     18  C   UNL     1      -7.494 -11.864  16.883  0.00  0.00    +0.027 A 
ATOM     21  C   UNL     1      -5.216 -10.504  17.742  0.00  0.00    +0.048 A 
ATOM     22  C   UNL     1      -6.227 -12.362  16.578  0.00  0.00    +0.048 A 
ATOM     23  C   UNL     1      -5.089 -11.682  17.006  0.00  0.00    +0.129 A 
BRANCH  23   4
ATOM      4  O   UNL     1      -3.852 -12.167  16.709  0.00  0.00    -0.456 OA
BRANCH   4  27
ATOM     27  C   UNL     1      -3.059 -11.424  15.849  0.00  0.00    +0.128 A 
ATOM     28  C   UNL     1      -1.924 -10.808  16.342  0.00  0.00    +0.046 A 
ATOM     29  C   UNL     1      -3.425 -11.319  14.520  0.00  0.00    +0.046 A 
ATOM     30  C   UNL     1      -1.126 -10.060  15.477  0.00  0.00    +0.004 A 
ATOM     31  C   UNL     1      -2.626 -10.572  13.653  0.00  0.00    +0.004 A 
ATOM     32  C   UNL     1      -1.477  -9.942  14.132  0.00  0.00    +0.000 A 
ENDBRANCH   4  27
ENDBRANCH  23   4
ENDBRANCH   7  15
BRANCH  14  16
ATOM     16  C   UNL     1     -12.524  -6.811  14.645  0.00  0.00    +0.037 A 
ATOM     19  C   UNL     1     -12.328  -7.218  13.328  0.00  0.00    +0.013 A 
ATOM     20  C   UNL     1     -13.688  -6.143  15.010  0.00  0.00    +0.013 A 
ATOM     24  C   UNL     1     -13.305  -6.955  12.369  0.00  0.00    +0.001 A 
ATOM     25  C   UNL     1     -14.666  -5.880  14.050  0.00  0.00    +0.001 A 
ATOM     26  C   UNL     1     -14.474  -6.287  12.730  0.00  0.00    +0.000 A 
ENDBRANCH  14  16
TORSDOF 4
ENDMDL
MODEL 3
REMARK VINA RESULT:      -6.9     24.265     28.129
REMARK  Name = 11887643
REMARK  4 active torsions:
REMARK  status: ('A' for Active; 'I' for Inactive)
REMARK    1  A    between atoms: O_4  and  C_23
REMARK    2  A    between atoms: O_4  and  C_27
REMARK    3  A    between atoms: N_7  and  C_15
REMARK    4  A    between atoms: C_14  and  C_16
REMARK                            x       y       z     vdW  Elec       q    Type
REMARK                         _______ _______ _______ _____ _____    ______ ____
ROOT
ATOM      1  O   UNL     1      10.892   4.881   3.133  0.00  0.00    -0.273 OA
ATOM      2  O   UNL     1      13.561   7.990   0.824  0.00  0.00    -0.252 OA
ATOM      3  O   UNL     1       8.634   6.001   4.996  0.00  0.00    -0.270 OA
ATOM      5  N   UNL     1      10.886   6.517   5.286  0.00  0.00    -0.284 N 
ATOM      6  N   UNL     1      12.970   8.352   2.974  0.00  0.00    -0.293 N 
ATOM      7  N   UNL     1      12.235   6.366   1.899  0.00  0.00    -0.193 N 
ATOM      8  C   UNL     1      12.302   8.009   4.195  0.00  0.00    +0.105 C 
ATOM      9  C   UNL     1      11.100   7.120   3.970  0.00  0.00    +0.183 C 
ATOM     10  C   UNL     1      13.150   7.210   5.182  0.00  0.00    +0.043 C 
ATOM     11  C   UNL     1      12.097   6.612   6.108  0.00  0.00    +0.111 C 
ATOM     12  C   UNL     1      11.389   5.999   2.976  0.00  0.00    +0.250 C 
ATOM     13  C   UNL     1      12.975   7.578   1.830  0.00  0.00    +0.313 C 
ATOM     14  C   UNL     1       9.639   6.072   5.702  0.00  0.00    +0.247 C 
ATOM     33  H   UNL     1      13.497   9.220   2.953  0.00  0.00    +0.151 HD
ENDROOT
BRANCH   7  15
ATOM     15  C   UNL     1      12.366   5.434   0.797  0.00  0.00    +0.046 A 
ATOM     17  C   UNL     1      13.396   4.502   0.806  0.00  0.00    +0.027 A 
ATOM     18  C   UNL     1      11.461   5.486  -0.254  0.00  0.00    +0.027 A 
ATOM     21  C   UNL     1      13.521   3.607  -0.256  0.00  0.00    +0.048 A 
ATOM     22  C   UNL     1      11.586   4.590  -1.316  0.00  0.00    +0.048 A 
ATOM     23  C   UNL     1      12.617   3.651  -1.317  0.00  0.00    +0.129 A 
BRANCH  23   4
ATOM      4  O   UNL     1      12.740   2.776  -2.352  0.00  0.00    -0.456 OA
BRANCH   4  27
ATOM     27  C   UNL     1      11.721   2.740  -3.289  0.00  0.00    +0.128 A 
ATOM     28  C   UNL     1      10.506   2.177  -2.943  0.00  0.00    +0.046 A 
ATOM     29  C   UNL     1      11.945   3.270  -4.547  0.00  0.00    +0.046 A 
ATOM     30  C   UNL     1       9.480   2.141  -3.887  0.00  0.00    +0.004 A 
ATOM     31  C   UNL     1      10.918   3.235  -5.491  0.00  0.00    +0.004 A 
ATOM     32  C   UNL     1       9.686   2.670  -5.161  0.00  0.00    +0.000 A 
ENDBRANCH   4  27
ENDBRANCH  23   4
ENDBRANCH   7  15
BRANCH  14  16
ATOM     16  C   UNL     1       9.507   5.658   7.105  0.00  0.00    +0.037 A 
ATOM     19  C   UNL     1       9.123   6.587   8.068  0.00  0.00    +0.013 A 
ATOM     20  C   UNL     1       9.766   4.338   7.463  0.00  0.00    +0.013 A 
ATOM     24  C   UNL     1       8.997   6.192   9.400  0.00  0.00    +0.001 A 
ATOM     25  C   UNL     1       9.640   3.944   8.795  0.00  0.00    +0.001 A 
ATOM     26  C   UNL     1       9.255   4.871   9.763  0.00  0.00    +0.000 A 
ENDBRANCH  14  16
TORSDOF 4
ENDMDL
MODEL 4
REMARK VINA RESULT:      -6.9     28.441     31.103
REMARK  Name = 11887643
REMARK  4 active torsions:
REMARK  status: ('A' for Active; 'I' for Inactive)
REMARK    1  A    between atoms: O_4  and  C_23
REMARK    2  A    between atoms: O_4  and  C_27
REMARK    3  A    between atoms: N_7  and  C_15
REMARK    4  A    between atoms: C_14  and  C_16
REMARK                            x       y       z     vdW  Elec       q    Type
REMARK                         _______ _______ _______ _____ _____    ______ ____
ROOT
ATOM      1  O   UNL     1      17.125   6.470  21.188  0.00  0.00    -0.273 OA
ATOM      2  O   UNL     1      20.671   9.560  21.177  0.00  0.00    -0.252 OA
ATOM      3  O   UNL     1      14.801   6.914  19.133  0.00  0.00    -0.270 OA
ATOM      5  N   UNL     1      15.388   8.493  20.739  0.00  0.00    -0.284 N 
ATOM      6  N   UNL     1      18.535  10.258  20.948  0.00  0.00    -0.293 N 
ATOM      7  N   UNL     1      18.964   7.937  21.211  0.00  0.00    -0.193 N 
ATOM      8  C   UNL     1      17.121  10.045  20.848  0.00  0.00    +0.105 C 
ATOM      9  C   UNL     1      16.775   8.675  20.310  0.00  0.00    +0.183 C 
ATOM     10  C   UNL     1      16.373  10.100  22.178  0.00  0.00    +0.043 C 
ATOM     11  C   UNL     1      15.059   9.402  21.842  0.00  0.00    +0.111 C 
ATOM     12  C   UNL     1      17.618   7.575  20.949  0.00  0.00    +0.250 C 
ATOM     13  C   UNL     1      19.473   9.261  21.136  0.00  0.00    +0.313 C 
ATOM     14  C   UNL     1      14.504   7.669  20.056  0.00  0.00    +0.247 C 
ATOM     33  H   UNL     1      18.873  11.214  20.898  0.00  0.00    +0.151 HD
ENDROOT
BRANCH   7  15
ATOM     15  C   UNL     1      19.882   6.884  21.596  0.00  0.00    +0.046 A 
ATOM     17  C   UNL     1      20.193   5.879  20.689  0.00  0.00    +0.027 A 
ATOM     18  C   UNL     1      20.437   6.892  22.869  0.00  0.00    +0.027 A 
ATOM     21  C   UNL     1      21.076   4.866  21.062  0.00  0.00    +0.048 A 
ATOM     22  C   UNL     1      21.321   5.879  23.241  0.00  0.00    +0.048 A 
ATOM     23  C   UNL     1      21.639   4.865  22.337  0.00  0.00    +0.129 A 
BRANCH  23   4
ATOM      4  O   UNL     1      22.501   3.876  22.699  0.00  0.00    -0.456 OA
BRANCH   4  27
ATOM     27  C   UNL     1      23.568   3.612  21.856  0.00  0.00    +0.128 A 
ATOM     28  C   UNL     1      24.428   4.640  21.516  0.00  0.00    +0.046 A 
ATOM     29  C   UNL     1      23.745   2.327  21.376  0.00  0.00    +0.046 A 
ATOM     30  C   UNL     1      25.502   4.375  20.667  0.00  0.00    +0.004 A 
ATOM     31  C   UNL     1      24.820   2.061  20.528  0.00  0.00    +0.004 A 
ATOM     32  C   UNL     1      25.698   3.086  20.173  0.00  0.00    +0.000 A 
ENDBRANCH   4  27
ENDBRANCH  23   4
ENDBRANCH   7  15
BRANCH  14  16
ATOM     16  C   UNL     1      13.095   7.709  20.468  0.00  0.00    +0.037 A 
ATOM     19  C   UNL     1      12.582   6.703  21.282  0.00  0.00    +0.013 A 
ATOM     20  C   UNL     1      12.280   8.754  20.041  0.00  0.00    +0.013 A 
ATOM     24  C   UNL     1      11.244   6.742  21.673  0.00  0.00    +0.001 A 
ATOM     25  C   UNL     1      10.941   8.793  20.433  0.00  0.00    +0.001 A 
ATOM     26  C   UNL     1      10.424   7.787  21.249  0.00  0.00    +0.000 A 
ENDBRANCH  14  16
TORSDOF 4
ENDMDL
MODEL 5
REMARK VINA RESULT:      -6.8     24.228     28.581
REMARK  Name = 11887643
REMARK  4 active torsions:
REMARK  status: ('A' for Active; 'I' for Inactive)
REMARK    1  A    between atoms: O_4  and  C_23
REMARK    2  A    between atoms: O_4  and  C_27
REMARK    3  A    between atoms: N_7  and  C_15
REMARK    4  A    between atoms: C_14  and  C_16
REMARK                            x       y       z     vdW  Elec       q    Type
REMARK                         _______ _______ _______ _____ _____    ______ ____
ROOT
ATOM      1  O   UNL     1      11.728   5.470   3.528  0.00  0.00    -0.273 OA
ATOM      2  O   UNL     1      14.941   8.617   2.152  0.00  0.00    -0.252 OA
ATOM      3  O   UNL     1       9.287   6.514   5.193  0.00  0.00    -0.270 OA
ATOM      5  N   UNL     1      11.494   6.771   5.887  0.00  0.00    -0.284 N 
ATOM      6  N   UNL     1      14.043   8.718   4.222  0.00  0.00    -0.293 N 
ATOM      7  N   UNL     1      13.351   6.985   2.753  0.00  0.00    -0.193 N 
ATOM      8  C   UNL     1      13.167   8.266   5.262  0.00  0.00    +0.105 C 
ATOM      9  C   UNL     1      11.956   7.534   4.727  0.00  0.00    +0.183 C 
ATOM     10  C   UNL     1      13.789   7.258   6.226  0.00  0.00    +0.043 C 
ATOM     11  C   UNL     1      12.563   6.633   6.881  0.00  0.00    +0.111 C 
ATOM     12  C   UNL     1      12.321   6.547   3.623  0.00  0.00    +0.250 C 
ATOM     13  C   UNL     1      14.176   8.120   2.984  0.00  0.00    +0.313 C 
ATOM     14  C   UNL     1      10.169   6.389   6.040  0.00  0.00    +0.247 C 
ATOM     33  H   UNL     1      14.626   9.527   4.414  0.00  0.00    +0.151 HD
ENDROOT
BRANCH   7  15
ATOM     15  C   UNL     1      13.591   6.214   1.549  0.00  0.00    +0.046 A 
ATOM     17  C   UNL     1      12.961   6.576   0.366  0.00  0.00    +0.027 A 
ATOM     18  C   UNL     1      14.446   5.121   1.596  0.00  0.00    +0.027 A 
ATOM     21  C   UNL     1      13.191   5.832  -0.791  0.00  0.00    +0.048 A 
ATOM     22  C   UNL     1      14.677   4.377   0.439  0.00  0.00    +0.048 A 
ATOM     23  C   UNL     1      14.049   4.733  -0.754  0.00  0.00    +0.129 A 
BRANCH  23   4
ATOM      4  O   UNL     1      14.273   4.008  -1.884  0.00  0.00    -0.456 OA
BRANCH   4  27
ATOM     27  C   UNL     1      13.168   3.569  -2.596  0.00  0.00    +0.128 A 
ATOM     28  C   UNL     1      12.985   4.009  -3.895  0.00  0.00    +0.046 A 
ATOM     29  C   UNL     1      12.278   2.702  -1.990  0.00  0.00    +0.046 A 
ATOM     30  C   UNL     1      11.874   3.567  -4.611  0.00  0.00    +0.004 A 
ATOM     31  C   UNL     1      11.167   2.258  -2.707  0.00  0.00    +0.004 A 
ATOM     32  C   UNL     1      10.964   2.691  -4.018  0.00  0.00    +0.000 A 
ENDBRANCH   4  27
ENDBRANCH  23   4
ENDBRANCH   7  15
BRANCH  14  16
ATOM     16  C   UNL     1       9.787   5.790   7.326  0.00  0.00    +0.037 A 
ATOM     19  C   UNL     1       9.959   4.425   7.533  0.00  0.00    +0.013 A 
ATOM     20  C   UNL     1       9.255   6.593   8.330  0.00  0.00    +0.013 A 
ATOM     24  C   UNL     1       9.598   3.858   8.755  0.00  0.00    +0.001 A 
ATOM     25  C   UNL     1       8.893   6.026   9.553  0.00  0.00    +0.001 A 
ATOM     26  C   UNL     1       9.065   4.658   9.764  0.00  0.00    +0.000 A 
ENDBRANCH  14  16
TORSDOF 4
ENDMDL
MODEL 6
REMARK VINA RESULT:      -6.8      4.122      8.478
REMARK  Name = 11887643
REMARK  4 active torsions:
REMARK  status: ('A' for Active; 'I' for Inactive)
REMARK    1  A    between atoms: O_4  and  C_23
REMARK    2  A    between atoms: O_4  and  C_27
REMARK    3  A    between atoms: N_7  and  C_15
REMARK    4  A    between atoms: C_14  and  C_16
REMARK                            x       y       z     vdW  Elec       q    Type
REMARK                         _______ _______ _______ _____ _____    ______ ____
ROOT
ATOM      1  O   UNL     1      -8.217  -9.556  14.671  0.00  0.00    -0.273 OA
ATOM      2  O   UNL     1     -10.677  -9.381  18.676  0.00  0.00    -0.252 OA
ATOM      3  O   UNL     1      -6.799 -12.257  13.950  0.00  0.00    -0.270 OA
ATOM      5  N   UNL     1      -6.353 -11.077  15.907  0.00  0.00    -0.284 N 
ATOM      6  N   UNL     1      -8.683 -10.441  18.595  0.00  0.00    -0.293 N 
ATOM      7  N   UNL     1      -9.513  -9.400  16.628  0.00  0.00    -0.193 N 
ATOM      8  C   UNL     1      -7.503 -10.901  17.924  0.00  0.00    +0.105 C 
ATOM      9  C   UNL     1      -7.716 -11.097  16.440  0.00  0.00    +0.183 C 
ATOM     10  C   UNL     1      -6.319  -9.937  17.985  0.00  0.00    +0.043 C 
ATOM     11  C   UNL     1      -5.431 -10.439  16.852  0.00  0.00    +0.111 C 
ATOM     12  C   UNL     1      -8.489  -9.942  15.810  0.00  0.00    +0.250 C 
ATOM     13  C   UNL     1      -9.688  -9.696  18.007  0.00  0.00    +0.313 C 
ATOM     14  C   UNL     1      -6.010 -11.728  14.730  0.00  0.00    +0.247 C 
ATOM     33  H   UNL     1      -8.781 -10.660  19.581  0.00  0.00    +0.151 HD
ENDROOT
BRANCH   7  15
ATOM     15  C   UNL     1     -10.438  -8.467  16.018  0.00  0.00    +0.046 A 
ATOM     17  C   UNL     1     -11.567  -8.946  15.366  0.00  0.00    +0.027 A 
ATOM     18  C   UNL     1     -10.183  -7.104  16.092  0.00  0.00    +0.027 A 
ATOM     21  C   UNL     1     -12.455  -8.046  14.779  0.00  0.00    +0.048 A 
ATOM     22  C   UNL     1     -11.073  -6.204  15.505  0.00  0.00    +0.048 A 
ATOM     23  C   UNL     1     -12.209  -6.676  14.848  0.00  0.00    +0.129 A 
BRANCH  23   4
ATOM      4  O   UNL     1     -13.078  -5.799  14.274  0.00  0.00    -0.456 OA
BRANCH   4  27
ATOM     27  C   UNL     1     -12.733  -5.263  13.045  0.00  0.00    +0.128 A 
ATOM     28  C   UNL     1     -12.496  -3.904  12.944  0.00  0.00    +0.046 A 
ATOM     29  C   UNL     1     -12.633  -6.101  11.949  0.00  0.00    +0.046 A 
ATOM     30  C   UNL     1     -12.149  -3.363  11.707  0.00  0.00    +0.004 A 
ATOM     31  C   UNL     1     -12.284  -5.561  10.711  0.00  0.00    +0.004 A 
ATOM     32  C   UNL     1     -12.043  -4.192  10.589  0.00  0.00    +0.000 A 
ENDBRANCH   4  27
ENDBRANCH  23   4
ENDBRANCH   7  15
BRANCH  14  16
ATOM     16  C   UNL     1      -4.582 -11.795  14.391  0.00  0.00    +0.037 A 
ATOM     19  C   UNL     1      -3.842 -12.924  14.730  0.00  0.00    +0.013 A 
ATOM     20  C   UNL     1      -3.978 -10.728  13.733  0.00  0.00    +0.013 A 
ATOM     24  C   UNL     1      -2.487 -12.987  14.407  0.00  0.00    +0.001 A 
ATOM     25  C   UNL     1      -2.622 -10.791  13.410  0.00  0.00    +0.001 A 
ATOM     26  C   UNL     1      -1.877 -11.921  13.747  0.00  0.00    +0.000 A 
ENDBRANCH  14  16
TORSDOF 4
ENDMDL
MODEL 7
REMARK VINA RESULT:      -6.7     26.822     29.841
REMARK  Name = 11887643
REMARK  4 active torsions:
REMARK  status: ('A' for Active; 'I' for Inactive)
REMARK    1  A    between atoms: O_4  and  C_23
REMARK    2  A    between atoms: O_4  and  C_27
REMARK    3  A    between atoms: N_7  and  C_15
REMARK    4  A    between atoms: C_14  and  C_16
REMARK                            x       y       z     vdW  Elec       q    Type
REMARK                         _______ _______ _______ _____ _____    ______ ____
ROOT
ATOM      1  O   UNL     1      11.856   9.483   4.531  0.00  0.00    -0.273 OA
ATOM      2  O   UNL     1      13.620   6.253   7.460  0.00  0.00    -0.252 OA
ATOM      3  O   UNL     1       9.140  10.835   5.319  0.00  0.00    -0.270 OA
ATOM      5  N   UNL     1       9.370   8.538   5.019  0.00  0.00    -0.284 N 
ATOM      6  N   UNL     1      11.406   6.317   7.014  0.00  0.00    -0.293 N 
ATOM      7  N   UNL     1      12.835   7.898   5.966  0.00  0.00    -0.193 N 
ATOM      8  C   UNL     1      10.242   6.861   6.380  0.00  0.00    +0.105 C 
ATOM      9  C   UNL     1      10.394   8.327   6.042  0.00  0.00    +0.183 C 
ATOM     10  C   UNL     1       9.892   6.225   5.036  0.00  0.00    +0.043 C 
ATOM     11  C   UNL     1       8.964   7.265   4.415  0.00  0.00    +0.111 C 
ATOM     12  C   UNL     1      11.754   8.637   5.423  0.00  0.00    +0.250 C 
ATOM     13  C   UNL     1      12.695   6.782   6.835  0.00  0.00    +0.313 C 
ATOM     14  C   UNL     1       8.785   9.778   4.802  0.00  0.00    +0.247 C 
ATOM     33  H   UNL     1      11.280   5.516   7.624  0.00  0.00    +0.151 HD
ENDROOT
BRANCH   7  15
ATOM     15  C   UNL     1      14.178   8.300   5.600  0.00  0.00    +0.046 A 
ATOM     17  C   UNL     1      14.853   7.609   4.603  0.00  0.00    +0.027 A 
ATOM     18  C   UNL     1      14.773   9.372   6.252  0.00  0.00    +0.027 A 
ATOM     21  C   UNL     1      16.146   7.997   4.252  0.00  0.00    +0.048 A 
ATOM     22  C   UNL     1      16.066   9.760   5.900  0.00  0.00    +0.048 A 
ATOM     23  C   UNL     1      16.753   9.071   4.901  0.00  0.00    +0.129 A 
BRANCH  23   4
ATOM      4  O   UNL     1      18.014   9.449   4.557  0.00  0.00    -0.456 OA
BRANCH   4  27
ATOM     27  C   UNL     1      19.069   8.718   5.079  0.00  0.00    +0.128 A 
ATOM     28  C   UNL     1      19.439   8.917   6.397  0.00  0.00    +0.046 A 
ATOM     29  C   UNL     1      19.724   7.809   4.269  0.00  0.00    +0.046 A 
ATOM     30  C   UNL     1      20.501   8.182   6.923  0.00  0.00    +0.004 A 
ATOM     31  C   UNL     1      20.786   7.072   4.796  0.00  0.00    +0.004 A 
ATOM     32  C   UNL     1      21.175   7.259   6.123  0.00  0.00    +0.000 A 
ENDBRANCH   4  27
ENDBRANCH  23   4
ENDBRANCH   7  15
BRANCH  14  16
ATOM     16  C   UNL     1       7.642   9.829   3.881  0.00  0.00    +0.037 A 
ATOM     19  C   UNL     1       6.392  10.222   4.350  0.00  0.00    +0.013 A 
ATOM     20  C   UNL     1       7.816   9.485   2.544  0.00  0.00    +0.013 A 
ATOM     24  C   UNL     1       5.307  10.272   3.475  0.00  0.00    +0.001 A 
ATOM     25  C   UNL     1       6.730   9.535   1.669  0.00  0.00    +0.001 A 
ATOM     26  C   UNL     1       5.476   9.929   2.135  0.00  0.00    +0.000 A 
ENDBRANCH  14  16
TORSDOF 4
ENDMDL
MODEL 8
REMARK VINA RESULT:      -6.7      3.694      6.303
REMARK  Name = 11887643
REMARK  4 active torsions:
REMARK  status: ('A' for Active; 'I' for Inactive)
REMARK    1  A    between atoms: O_4  and  C_23
REMARK    2  A    between atoms: O_4  and  C_27
REMARK    3  A    between atoms: N_7  and  C_15
REMARK    4  A    between atoms: C_14  and  C_16
REMARK                            x       y       z     vdW  Elec       q    Type
REMARK                         _______ _______ _______ _____ _____    ______ ____
ROOT
ATOM      1  O   UNL     1      -6.033 -10.254  13.532  0.00  0.00    -0.273 OA
ATOM      2  O   UNL     1      -1.819 -10.374  11.446  0.00  0.00    -0.252 OA
ATOM      3  O   UNL     1      -6.172  -9.183  16.473  0.00  0.00    -0.270 OA
ATOM      5  N   UNL     1      -4.881 -11.019  15.856  0.00  0.00    -0.284 N 
ATOM      6  N   UNL     1      -2.050 -10.981  13.610  0.00  0.00    -0.293 N 
ATOM      7  N   UNL     1      -3.974 -10.295  12.396  0.00  0.00    -0.193 N 
ATOM      8  C   UNL     1      -2.809 -11.194  14.807  0.00  0.00    +0.105 C 
ATOM      9  C   UNL     1      -4.046 -10.326  14.874  0.00  0.00    +0.183 C 
ATOM     10  C   UNL     1      -3.363 -12.608  14.967  0.00  0.00    +0.043 C 
ATOM     11  C   UNL     1      -4.457 -12.414  16.011  0.00  0.00    +0.111 C 
ATOM     12  C   UNL     1      -4.800 -10.293  13.548  0.00  0.00    +0.250 C 
ATOM     13  C   UNL     1      -2.576 -10.553  12.406  0.00  0.00    +0.313 C 
ATOM     14  C   UNL     1      -5.830 -10.354  16.620  0.00  0.00    +0.247 C 
ATOM     33  H   UNL     1      -1.055 -11.179  13.641  0.00  0.00    +0.151 HD
ENDROOT
BRANCH   7  15
ATOM     15  C   UNL     1      -4.600 -10.030  11.117  0.00  0.00    +0.046 A 
ATOM     17  C   UNL     1      -4.963 -11.091  10.298  0.00  0.00    +0.027 A 
ATOM     18  C   UNL     1      -4.827  -8.717  10.726  0.00  0.00    +0.027 A 
ATOM     21  C   UNL     1      -5.565 -10.834   9.066  0.00  0.00    +0.048 A 
ATOM     22  C   UNL     1      -5.430  -8.461   9.494  0.00  0.00    +0.048 A 
ATOM     23  C   UNL     1      -5.798  -9.519   8.664  0.00  0.00    +0.129 A 
BRANCH  23   4
ATOM      4  O   UNL     1      -6.386  -9.270   7.462  0.00  0.00    -0.456 OA
BRANCH   4  27
ATOM     27  C   UNL     1      -7.631  -8.663   7.469  0.00  0.00    +0.128 A 
ATOM     28  C   UNL     1      -8.639  -9.200   8.248  0.00  0.00    +0.046 A 
ATOM     29  C   UNL     1      -7.833  -7.534   6.695  0.00  0.00    +0.046 A 
ATOM     30  C   UNL     1      -9.892  -8.589   8.255  0.00  0.00    +0.004 A 
ATOM     31  C   UNL     1      -9.087  -6.922   6.702  0.00  0.00    +0.004 A 
ATOM     32  C   UNL     1     -10.117  -7.450   7.482  0.00  0.00    +0.000 A 
ENDBRANCH   4  27
ENDBRANCH  23   4
ENDBRANCH   7  15
BRANCH  14  16
ATOM     16  C   UNL     1      -6.476 -11.114  17.699  0.00  0.00    +0.037 A 
ATOM     19  C   UNL     1      -5.955 -11.064  18.989  0.00  0.00    +0.013 A 
ATOM     20  C   UNL     1      -7.605 -11.880  17.424  0.00  0.00    +0.013 A 
ATOM     24  C   UNL     1      -6.570 -11.784  20.012  0.00  0.00    +0.001 A 
ATOM     25  C   UNL     1      -8.220 -12.600  18.449  0.00  0.00    +0.001 A 
ATOM     26  C   UNL     1      -7.702 -12.552  19.742  0.00  0.00    +0.000 A 
ENDBRANCH  14  16
TORSDOF 4
ENDMDL
MODEL 9
REMARK VINA RESULT:      -6.7     26.767     29.702
REMARK  Name = 11887643
REMARK  4 active torsions:
REMARK  status: ('A' for Active; 'I' for Inactive)
REMARK    1  A    between atoms: O_4  and  C_23
REMARK    2  A    between atoms: O_4  and  C_27
REMARK    3  A    between atoms: N_7  and  C_15
REMARK    4  A    between atoms: C_14  and  C_16
REMARK                            x       y       z     vdW  Elec       q    Type
REMARK                         _______ _______ _______ _____ _____    ______ ____
ROOT
ATOM      1  O   UNL     1      10.392   4.186  -0.611  0.00  0.00    -0.273 OA
ATOM      2  O   UNL     1      14.729   4.115   1.209  0.00  0.00    -0.252 OA
ATOM      3  O   UNL     1       9.713   2.088  -2.837  0.00  0.00    -0.270 OA
ATOM      5  N   UNL     1      11.429   3.646  -3.049  0.00  0.00    -0.284 N 
ATOM      6  N   UNL     1      14.406   3.835  -1.010  0.00  0.00    -0.293 N 
ATOM      7  N   UNL     1      12.520   4.183   0.391  0.00  0.00    -0.193 N 
ATOM      8  C   UNL     1      13.589   3.723  -2.182  0.00  0.00    +0.105 C 
ATOM      9  C   UNL     1      12.193   3.229  -1.873  0.00  0.00    +0.183 C 
ATOM     10  C   UNL     1      13.341   5.041  -2.913  0.00  0.00    +0.043 C 
ATOM     11  C   UNL     1      12.126   4.712  -3.775  0.00  0.00    +0.111 C 
ATOM     12  C   UNL     1      11.595   3.916  -0.650  0.00  0.00    +0.250 C 
ATOM     13  C   UNL     1      13.931   4.069   0.267  0.00  0.00    +0.313 C 
ATOM     14  C   UNL     1      10.283   2.980  -3.461  0.00  0.00    +0.247 C 
ATOM     33  H   UNL     1      15.412   3.756  -1.127  0.00  0.00    +0.151 HD
ENDROOT
BRANCH   7  15
ATOM     15  C   UNL     1      11.991   4.616   1.669  0.00  0.00    +0.046 A 
ATOM     17  C   UNL     1      12.171   5.931   2.076  0.00  0.00    +0.027 A 
ATOM     18  C   UNL     1      11.311   3.708   2.470  0.00  0.00    +0.027 A 
ATOM     21  C   UNL     1      11.662   6.345   3.306  0.00  0.00    +0.048 A 
ATOM     22  C   UNL     1      10.801   4.124   3.700  0.00  0.00    +0.048 A 
ATOM     23  C   UNL     1      10.977   5.442   4.118  0.00  0.00    +0.129 A 
BRANCH  23   4
ATOM      4  O   UNL     1      10.480   5.849   5.319  0.00  0.00    -0.456 OA
BRANCH   4  27
ATOM     27  C   UNL     1       9.699   6.993   5.337  0.00  0.00    +0.128 A 
ATOM     28  C   UNL     1       8.618   7.084   4.480  0.00  0.00    +0.046 A 
ATOM     29  C   UNL     1      10.022   8.013   6.213  0.00  0.00    +0.046 A 
ATOM     30  C   UNL     1       7.832   8.236   4.498  0.00  0.00    +0.004 A 
ATOM     31  C   UNL     1       9.234   9.165   6.232  0.00  0.00    +0.004 A 
ATOM     32  C   UNL     1       8.140   9.277   5.374  0.00  0.00    +0.000 A 
ENDBRANCH   4  27
ENDBRANCH  23   4
ENDBRANCH   7  15
BRANCH  14  16
ATOM     16  C   UNL     1       9.706   3.372  -4.754  0.00  0.00    +0.037 A 
ATOM     19  C   UNL     1       8.882   4.491  -4.835  0.00  0.00    +0.013 A 
ATOM     20  C   UNL     1       9.988   2.621  -5.891  0.00  0.00    +0.013 A 
ATOM     24  C   UNL     1       8.337   4.862  -6.063  0.00  0.00    +0.001 A 
ATOM     25  C   UNL     1       9.442   2.993  -7.120  0.00  0.00    +0.001 A 
ATOM     26  C   UNL     1       8.617   4.114  -7.205  0.00  0.00    +0.000 A 
ENDBRANCH  14  16
TORSDOF 4
ENDMDL
MODEL 10
REMARK VINA RESULT:      -6.6     25.677     29.665
REMARK  Name = 11887643
REMARK  4 active torsions:
REMARK  status: ('A' for Active; 'I' for Inactive)
REMARK    1  A    between atoms: O_4  and  C_23
REMARK    2  A    between atoms: O_4  and  C_27
REMARK    3  A    between atoms: N_7  and  C_15
REMARK    4  A    between atoms: C_14  and  C_16
REMARK                            x       y       z     vdW  Elec       q    Type
REMARK                         _______ _______ _______ _____ _____    ______ ____
ROOT
ATOM      1  O   UNL     1       9.942   4.418  -1.143  0.00  0.00    -0.273 OA
ATOM      2  O   UNL     1      14.040   4.392   1.167  0.00  0.00    -0.252 OA
ATOM      3  O   UNL     1       9.417   2.114  -3.202  0.00  0.00    -0.270 OA
ATOM      5  N   UNL     1      11.219   3.579  -3.374  0.00  0.00    -0.284 N 
ATOM      6  N   UNL     1      13.955   3.884  -1.033  0.00  0.00    -0.293 N 
ATOM      7  N   UNL     1      11.942   4.449   0.095  0.00  0.00    -0.193 N 
ATOM      8  C   UNL     1      13.269   3.674  -2.274  0.00  0.00    +0.105 C 
ATOM      9  C   UNL     1      11.826   3.265  -2.081  0.00  0.00    +0.183 C 
ATOM     10  C   UNL     1      13.167   4.912  -3.163  0.00  0.00    +0.043 C 
ATOM     11  C   UNL     1      12.043   4.535  -4.121  0.00  0.00    +0.111 C 
ATOM     12  C   UNL     1      11.128   4.103  -1.013  0.00  0.00    +0.250 C 
ATOM     13  C   UNL     1      13.351   4.272   0.148  0.00  0.00    +0.313 C 
ATOM     14  C   UNL     1      10.095   2.913  -3.845  0.00  0.00    +0.247 C 
ATOM     33  H   UNL     1      14.962   3.757  -1.023  0.00  0.00    +0.151 HD
ENDROOT
BRANCH   7  15
ATOM     15  C   UNL     1      11.294   5.036   1.250  0.00  0.00    +0.046 A 
ATOM     17  C   UNL     1      10.884   4.220   2.296  0.00  0.00    +0.027 A 
ATOM     18  C   UNL     1      11.090   6.409   1.295  0.00  0.00    +0.027 A 
ATOM     21  C   UNL     1      10.260   4.788   3.406  0.00  0.00    +0.048 A 
ATOM     22  C   UNL     1      10.466   6.976   2.406  0.00  0.00    +0.048 A 
ATOM     23  C   UNL     1      10.050   6.165   3.461  0.00  0.00    +0.129 A 
BRANCH  23   4
ATOM      4  O   UNL     1       9.441   6.717   4.546  0.00  0.00    -0.456 OA
BRANCH   4  27
ATOM     27  C   UNL     1       9.958   6.418   5.796  0.00  0.00    +0.128 A 
ATOM     28  C   UNL     1       9.141   5.823   6.739  0.00  0.00    +0.046 A 
ATOM     29  C   UNL     1      11.280   6.723   6.067  0.00  0.00    +0.046 A 
ATOM     30  C   UNL     1       9.662   5.522   7.997  0.00  0.00    +0.004 A 
ATOM     31  C   UNL     1      11.802   6.421   7.325  0.00  0.00    +0.004 A 
ATOM     32  C   UNL     1      10.993   5.821   8.291  0.00  0.00    +0.000 A 
ENDBRANCH   4  27
ENDBRANCH  23   4
ENDBRANCH   7  15
BRANCH  14  16
ATOM     16  C   UNL     1       9.687   3.182  -5.230  0.00  0.00    +0.037 A 
ATOM     19  C   UNL     1      10.100   2.331  -6.251  0.00  0.00    +0.013 A 
ATOM     20  C   UNL     1       8.888   4.286  -5.513  0.00  0.00    +0.013 A 
ATOM     24  C   UNL     1       9.711   2.586  -7.566  0.00  0.00    +0.001 A 
ATOM     25  C   UNL     1       8.498   4.540  -6.828  0.00  0.00    +0.001 A 
ATOM     26  C   UNL     1       8.910   3.690  -7.854  0.00  0.00    +0.000 A 
ENDBRANCH  14  16
TORSDOF 4
ENDMDL
