REMARK  Name = 7144252
REMARK  7 active torsions:
REMARK  status: ('A' for Active; 'I' for Inactive)
REMARK    1  A    between atoms: O_2  and  C_28
REMARK    2  A    between atoms: O_2  and  C_30
REMARK    3  A    between atoms: O_3  and  C_29
REMARK    4  A    between atoms: O_3  and  C_31
REMARK    5  A    between atoms: N_4  and  C_13
REMARK    6  A    between atoms: C_13  and  C_18
REMARK    7  A    between atoms: C_14  and  C_19
REMARK                            x       y       z     vdW  Elec       q    Type
REMARK                         _______ _______ _______ _____ _____    ______ ____
ROOT
ATOM      1  O   UNL     1       4.387  -0.928  -2.370  0.00  0.00    -0.268 OA
ATOM      4  N   UNL     1       1.110  -2.072   1.209  0.00  0.00    -0.297 NA
ATOM      5  N   UNL     1       3.077  -0.284  -0.538  0.00  0.00    -0.311 N 
ATOM      6  C   UNL     1       3.419  -1.306   1.790  0.00  0.00    +0.024 C 
ATOM      7  C   UNL     1       1.660   0.358   1.435  0.00  0.00    +0.051 C 
ATOM      8  C   UNL     1       2.883   0.026   2.287  0.00  0.00    +0.017 C 
ATOM      9  C   UNL     1       2.344  -2.403   1.931  0.00  0.00    +0.090 C 
ATOM     10  C   UNL     1       0.598  -0.753   1.607  0.00  0.00    +0.094 C 
ATOM     11  C   UNL     1       3.891  -1.132   0.345  0.00  0.00    +0.130 C 
ATOM     12  C   UNL     1       2.038   0.526  -0.040  0.00  0.00    +0.034 A 
ATOM     14  C   UNL     1       1.405   1.399  -0.866  0.00  0.00    +0.002 A 
ATOM     15  C   UNL     1       3.478  -0.253  -1.886  0.00  0.00    +0.252 A 
ATOM     16  C   UNL     1       1.788   1.456  -2.264  0.00  0.00    +0.015 A 
ATOM     17  C   UNL     1       2.748   0.682  -2.771  0.00  0.00    +0.071 A 
ENDROOT
BRANCH  14  19
ATOM     19  C   UNL     1       0.323   2.284  -0.382  0.00  0.00    -0.016 A 
ATOM     22  C   UNL     1      -0.997   1.843  -0.413  0.00  0.00    +0.012 A 
ATOM     23  C   UNL     1       0.632   3.552   0.101  0.00  0.00    +0.012 A 
ATOM     26  C   UNL     1      -2.017   2.678   0.042  0.00  0.00    +0.046 A 
ATOM     27  C   UNL     1      -0.388   4.387   0.556  0.00  0.00    +0.046 A 
ATOM     29  C   UNL     1      -1.713   3.950   0.527  0.00  0.00    +0.120 A 
BRANCH  29   3
ATOM      3  O   UNL     1      -2.708   4.764   0.972  0.00  0.00    -0.495 OA
ATOM     31  C   UNL     1      -4.040   4.254   0.913  0.00  0.00    +0.277 C 
ENDBRANCH  29   3
ENDBRANCH  14  19
BRANCH   4  13
ATOM     13  C   UNL     1       0.097  -3.107   1.403  0.00  0.00    +0.119 C 
BRANCH  13  18
ATOM     18  C   UNL     1      -1.141  -2.839   0.589  0.00  0.00    -0.033 A 
ATOM     20  C   UNL     1      -1.016  -2.449  -0.737  0.00  0.00    +0.008 A 
ATOM     21  C   UNL     1      -2.390  -2.984   1.177  0.00  0.00    +0.008 A 
ATOM     24  C   UNL     1      -2.163  -2.200  -1.491  0.00  0.00    +0.046 A 
ATOM     25  C   UNL     1      -3.537  -2.735   0.423  0.00  0.00    +0.046 A 
ATOM     28  C   UNL     1      -3.424  -2.343  -0.910  0.00  0.00    +0.120 A 
BRANCH  28   2
ATOM      2  O   UNL     1      -4.543  -2.101  -1.647  0.00  0.00    -0.495 OA
ATOM     30  C   UNL     1      -5.799  -2.266  -0.992  0.00  0.00    +0.277 C 
ENDBRANCH  28   2
ENDBRANCH  13  18
ENDBRANCH   4  13
TORSDOF 5
