MODEL 1
REMARK VINA RESULT:      -5.6      0.000      0.000
REMARK  Name = 75536923
REMARK  7 active torsions:
REMARK  status: ('A' for Active; 'I' for Inactive)
REMARK    1  A    between atoms: S_1  and  C_22
REMARK    2  A    between atoms: S_1  and  C_25
REMARK    3  A    between atoms: O_3  and  C_10
REMARK    4  A    between atoms: O_3  and  C_16
REMARK    5  A    between atoms: N_6  and  C_13
REMARK    6  A    between atoms: N_7  and  C_20
REMARK    7  A    between atoms: C_13  and  C_15
REMARK                            x       y       z     vdW  Elec       q    Type
REMARK                         _______ _______ _______ _____ _____    ______ ____
ROOT
ATOM      2  O   UNL     1      -1.889 -10.118  13.115  0.00  0.00    -0.375 OA
ATOM      6  N   UNL     1      -2.814 -13.034  13.724  0.00  0.00    -0.289 NA
ATOM      9  C   UNL     1      -3.373 -12.366  14.904  0.00  0.00    +0.131 C 
ATOM     10  C   UNL     1      -3.206 -10.842  15.012  0.00  0.00    +0.213 C 
ATOM     11  C   UNL     1      -2.935 -12.266  12.483  0.00  0.00    +0.113 C 
ATOM     12  C   UNL     1      -1.861 -10.320  14.525  0.00  0.00    +0.205 C 
ATOM     14  C   UNL     1      -1.752 -11.306  12.347  0.00  0.00    +0.175 C 
ENDROOT
BRANCH  10   3
ATOM      3  O   UNL     1      -3.349 -10.476  16.386  0.00  0.00    -0.485 OA
BRANCH   3  16
ATOM     16  C   UNL     1      -4.615 -10.521  16.902  0.00  0.00    +0.121 A 
ATOM     18  C   UNL     1      -4.867 -11.245  18.067  0.00  0.00    +0.047 A 
ATOM     19  C   UNL     1      -5.654  -9.844  16.264  0.00  0.00    +0.047 A 
ATOM     22  C   UNL     1      -7.196 -10.614  17.955  0.00  0.00    +0.088 A 
ATOM     23  C   UNL     1      -6.158 -11.292  18.594  0.00  0.00    +0.030 A 
ATOM     24  C   UNL     1      -6.944  -9.890  16.790  0.00  0.00    +0.030 A 
BRANCH  22   1
ATOM      1  S   UNL     1      -8.811 -10.670  18.618  0.00  0.00    -0.006 S 
ATOM      4  O   UNL     1      -8.725 -10.892  20.054  0.00  0.00    -0.170 OA
ATOM      5  O   UNL     1      -9.544  -9.520  18.107  0.00  0.00    -0.170 OA
ATOM     25  C   UNL     1      -9.530 -12.134  17.909  0.00  0.00    +0.200 C 
ENDBRANCH  22   1
ENDBRANCH   3  16
ENDBRANCH  10   3
BRANCH   6  13
ATOM     13  C   UNL     1      -3.389 -14.372  13.583  0.00  0.00    +0.159 C 
BRANCH  13  15
ATOM      7  N   UNL     1      -2.940 -16.100  15.355  0.00  0.00    -0.336 N 
ATOM      8  N   UNL     1      -1.338 -15.803  13.847  0.00  0.00    -0.239 NA
ATOM     15  C   UNL     1      -2.533 -15.422  14.241  0.00  0.00    +0.124 A 
ATOM     17  C   UNL     1      -1.942 -16.970  15.693  0.00  0.00    +0.106 A 
ATOM     20  C   UNL     1      -4.190 -15.942  16.059  0.00  0.00    +0.150 C 
ATOM     21  C   UNL     1      -0.964 -16.768  14.748  0.00  0.00    +0.130 A 
ENDBRANCH  13  15
ENDBRANCH   6  13
TORSDOF 5
ENDMDL
MODEL 2
REMARK VINA RESULT:      -5.5      7.521     11.169
REMARK  Name = 75536923
REMARK  7 active torsions:
REMARK  status: ('A' for Active; 'I' for Inactive)
REMARK    1  A    between atoms: S_1  and  C_22
REMARK    2  A    between atoms: S_1  and  C_25
REMARK    3  A    between atoms: O_3  and  C_10
REMARK    4  A    between atoms: O_3  and  C_16
REMARK    5  A    between atoms: N_6  and  C_13
REMARK    6  A    between atoms: N_7  and  C_20
REMARK    7  A    between atoms: C_13  and  C_15
REMARK                            x       y       z     vdW  Elec       q    Type
REMARK                         _______ _______ _______ _____ _____    ______ ____
ROOT
ATOM      2  O   UNL     1     -13.264  -8.802  14.334  0.00  0.00    -0.375 OA
ATOM      6  N   UNL     1     -12.506  -5.806  13.912  0.00  0.00    -0.289 NA
ATOM      9  C   UNL     1     -11.674  -6.088  15.087  0.00  0.00    +0.131 C 
ATOM     10  C   UNL     1     -11.679  -7.522  15.642  0.00  0.00    +0.213 C 
ATOM     11  C   UNL     1     -12.556  -6.893  12.933  0.00  0.00    +0.113 C 
ATOM     12  C   UNL     1     -13.040  -8.205  15.608  0.00  0.00    +0.205 C 
ATOM     14  C   UNL     1     -13.652  -7.890  13.316  0.00  0.00    +0.175 C 
ENDROOT
BRANCH  10   3
ATOM      3  O   UNL     1     -11.244  -7.473  17.001  0.00  0.00    -0.485 OA
BRANCH   3  16
ATOM     16  C   UNL     1     -10.318  -8.405  17.380  0.00  0.00    +0.121 A 
ATOM     18  C   UNL     1     -10.665  -9.402  18.294  0.00  0.00    +0.047 A 
ATOM     19  C   UNL     1      -9.027  -8.361  16.855  0.00  0.00    +0.047 A 
ATOM     22  C   UNL     1      -8.430 -10.307  18.155  0.00  0.00    +0.088 A 
ATOM     23  C   UNL     1      -9.721 -10.353  18.681  0.00  0.00    +0.030 A 
ATOM     24  C   UNL     1      -8.082  -9.311  17.242  0.00  0.00    +0.030 A 
BRANCH  22   1
ATOM      1  S   UNL     1      -7.250 -11.501  18.637  0.00  0.00    -0.006 S 
ATOM      4  O   UNL     1      -7.276 -11.632  20.087  0.00  0.00    -0.170 OA
ATOM      5  O   UNL     1      -7.437 -12.678  17.801  0.00  0.00    -0.170 OA
ATOM     25  C   UNL     1      -5.684 -10.772  18.211  0.00  0.00    +0.200 C 
ENDBRANCH  22   1
ENDBRANCH   3  16
ENDBRANCH  10   3
BRANCH   6  13
ATOM     13  C   UNL     1     -12.092  -4.547  13.293  0.00  0.00    +0.159 C 
BRANCH  13  15
ATOM      7  N   UNL     1     -13.180  -3.667  11.202  0.00  0.00    -0.336 N 
ATOM      8  N   UNL     1     -14.350  -3.462  13.077  0.00  0.00    -0.239 NA
ATOM     15  C   UNL     1     -13.224  -3.889  12.550  0.00  0.00    +0.124 A 
ATOM     17  C   UNL     1     -14.351  -3.060  10.847  0.00  0.00    +0.106 A 
ATOM     20  C   UNL     1     -12.102  -4.004  10.302  0.00  0.00    +0.150 C 
ATOM     21  C   UNL     1     -15.057  -2.945  12.021  0.00  0.00    +0.130 A 
ENDBRANCH  13  15
ENDBRANCH   6  13
TORSDOF 5
ENDMDL
MODEL 3
REMARK VINA RESULT:      -5.4      4.510      6.984
REMARK  Name = 75536923
REMARK  7 active torsions:
REMARK  status: ('A' for Active; 'I' for Inactive)
REMARK    1  A    between atoms: S_1  and  C_22
REMARK    2  A    between atoms: S_1  and  C_25
REMARK    3  A    between atoms: O_3  and  C_10
REMARK    4  A    between atoms: O_3  and  C_16
REMARK    5  A    between atoms: N_6  and  C_13
REMARK    6  A    between atoms: N_7  and  C_20
REMARK    7  A    between atoms: C_13  and  C_15
REMARK                            x       y       z     vdW  Elec       q    Type
REMARK                         _______ _______ _______ _____ _____    ______ ____
ROOT
ATOM      2  O   UNL     1      -3.278 -13.566  12.901  0.00  0.00    -0.375 OA
ATOM      6  N   UNL     1      -2.803 -11.490  15.180  0.00  0.00    -0.289 NA
ATOM      9  C   UNL     1      -3.013 -10.561  14.064  0.00  0.00    +0.131 C 
ATOM     10  C   UNL     1      -3.350 -11.156  12.688  0.00  0.00    +0.213 C 
ATOM     11  C   UNL     1      -3.684 -12.659  15.164  0.00  0.00    +0.113 C 
ATOM     12  C   UNL     1      -2.600 -12.439  12.356  0.00  0.00    +0.205 C 
ATOM     14  C   UNL     1      -3.074 -13.760  14.293  0.00  0.00    +0.175 C 
ENDROOT
BRANCH  10   3
ATOM      3  O   UNL     1      -3.026 -10.185  11.692  0.00  0.00    -0.485 OA
BRANCH   3  16
ATOM     16  C   UNL     1      -4.065  -9.703  10.946  0.00  0.00    +0.121 A 
ATOM     18  C   UNL     1      -3.866  -9.366   9.607  0.00  0.00    +0.047 A 
ATOM     19  C   UNL     1      -5.325  -9.547  11.523  0.00  0.00    +0.047 A 
ATOM     22  C   UNL     1      -6.186  -8.719   9.424  0.00  0.00    +0.088 A 
ATOM     23  C   UNL     1      -4.926  -8.875   8.846  0.00  0.00    +0.030 A 
ATOM     24  C   UNL     1      -6.386  -9.056  10.763  0.00  0.00    +0.030 A 
BRANCH  22   1
ATOM      1  S   UNL     1      -7.514  -8.108   8.468  0.00  0.00    -0.006 S 
ATOM      4  O   UNL     1      -7.388  -6.662   8.356  0.00  0.00    -0.170 OA
ATOM      5  O   UNL     1      -7.611  -8.921   7.264  0.00  0.00    -0.170 OA
ATOM     25  C   UNL     1      -8.956  -8.427   9.460  0.00  0.00    +0.200 C 
ENDBRANCH  22   1
ENDBRANCH   3  16
ENDBRANCH  10   3
BRANCH   6  13
ATOM     13  C   UNL     1      -2.886 -10.775  16.453  0.00  0.00    +0.159 C 
BRANCH  13  15
ATOM      7  N   UNL     1      -4.804 -11.138  18.041  0.00  0.00    -0.336 N 
ATOM      8  N   UNL     1      -5.227  -9.879  16.262  0.00  0.00    -0.239 NA
ATOM     15  C   UNL     1      -4.312 -10.580  16.894  0.00  0.00    +0.124 A 
ATOM     17  C   UNL     1      -6.115 -10.770  18.147  0.00  0.00    +0.106 A 
ATOM     20  C   UNL     1      -4.085 -11.967  18.979  0.00  0.00    +0.150 C 
ATOM     21  C   UNL     1      -6.354  -9.993  17.038  0.00  0.00    +0.130 A 
ENDBRANCH  13  15
ENDBRANCH   6  13
TORSDOF 5
ENDMDL
MODEL 4
REMARK VINA RESULT:      -5.3      5.783      9.685
REMARK  Name = 75536923
REMARK  7 active torsions:
REMARK  status: ('A' for Active; 'I' for Inactive)
REMARK    1  A    between atoms: S_1  and  C_22
REMARK    2  A    between atoms: S_1  and  C_25
REMARK    3  A    between atoms: O_3  and  C_10
REMARK    4  A    between atoms: O_3  and  C_16
REMARK    5  A    between atoms: N_6  and  C_13
REMARK    6  A    between atoms: N_7  and  C_20
REMARK    7  A    between atoms: C_13  and  C_15
REMARK                            x       y       z     vdW  Elec       q    Type
REMARK                         _______ _______ _______ _____ _____    ______ ____
ROOT
ATOM      2  O   UNL     1      -9.863 -10.834  14.599  0.00  0.00    -0.375 OA
ATOM      6  N   UNL     1     -10.701  -8.090  15.823  0.00  0.00    -0.289 NA
ATOM      9  C   UNL     1      -9.334  -8.167  16.350  0.00  0.00    +0.131 C 
ATOM     10  C   UNL     1      -8.476  -9.376  15.945  0.00  0.00    +0.213 C 
ATOM     11  C   UNL     1     -10.845  -8.571  14.448  0.00  0.00    +0.113 C 
ATOM     12  C   UNL     1      -9.238 -10.693  15.871  0.00  0.00    +0.205 C 
ATOM     14  C   UNL     1     -11.060 -10.085  14.445  0.00  0.00    +0.175 C 
ENDROOT
BRANCH  10   3
ATOM      3  O   UNL     1      -7.433  -9.524  16.910  0.00  0.00    -0.485 OA
BRANCH   3  16
ATOM     16  C   UNL     1      -6.220  -9.946  16.440  0.00  0.00    +0.121 A 
ATOM     18  C   UNL     1      -5.976  -9.974  15.066  0.00  0.00    +0.047 A 
ATOM     19  C   UNL     1      -5.227 -10.350  17.332  0.00  0.00    +0.047 A 
ATOM     22  C   UNL     1      -3.747 -10.808  15.479  0.00  0.00    +0.088 A 
ATOM     23  C   UNL     1      -4.740 -10.405  14.586  0.00  0.00    +0.030 A 
ATOM     24  C   UNL     1      -3.991 -10.780  16.852  0.00  0.00    +0.030 A 
BRANCH  22   1
ATOM      1  S   UNL     1      -2.197 -11.343  14.877  0.00  0.00    -0.006 S 
ATOM      4  O   UNL     1      -1.153 -10.873  15.776  0.00  0.00    -0.170 OA
ATOM      5  O   UNL     1      -2.303 -12.762  14.570  0.00  0.00    -0.170 OA
ATOM     25  C   UNL     1      -1.993 -10.466  13.342  0.00  0.00    +0.200 C 
ENDBRANCH  22   1
ENDBRANCH   3  16
ENDBRANCH  10   3
BRANCH   6  13
ATOM     13  C   UNL     1     -11.222  -6.731  15.973  0.00  0.00    +0.159 C 
BRANCH  13  15
ATOM      7  N   UNL     1     -13.087  -5.884  14.512  0.00  0.00    -0.336 N 
ATOM      8  N   UNL     1     -13.676  -7.247  16.163  0.00  0.00    -0.239 NA
ATOM     15  C   UNL     1     -12.671  -6.640  15.572  0.00  0.00    +0.124 A 
ATOM     17  C   UNL     1     -14.444  -6.018  14.421  0.00  0.00    +0.106 A 
ATOM     20  C   UNL     1     -12.261  -5.086  13.638  0.00  0.00    +0.150 C 
ATOM     21  C   UNL     1     -14.784  -6.863  15.450  0.00  0.00    +0.130 A 
ENDBRANCH  13  15
ENDBRANCH   6  13
TORSDOF 5
ENDMDL
MODEL 5
REMARK VINA RESULT:      -5.3      6.976      9.601
REMARK  Name = 75536923
REMARK  7 active torsions:
REMARK  status: ('A' for Active; 'I' for Inactive)
REMARK    1  A    between atoms: S_1  and  C_22
REMARK    2  A    between atoms: S_1  and  C_25
REMARK    3  A    between atoms: O_3  and  C_10
REMARK    4  A    between atoms: O_3  and  C_16
REMARK    5  A    between atoms: N_6  and  C_13
REMARK    6  A    between atoms: N_7  and  C_20
REMARK    7  A    between atoms: C_13  and  C_15
REMARK                            x       y       z     vdW  Elec       q    Type
REMARK                         _______ _______ _______ _____ _____    ______ ____
ROOT
ATOM      2  O   UNL     1      -7.169  -8.453   9.795  0.00  0.00    -0.375 OA
ATOM      6  N   UNL     1      -6.551  -9.631   6.974  0.00  0.00    -0.289 NA
ATOM      9  C   UNL     1      -5.248  -9.862   7.608  0.00  0.00    +0.131 C 
ATOM     10  C   UNL     1      -5.092  -9.475   9.088  0.00  0.00    +0.213 C 
ATOM     11  C   UNL     1      -7.699  -9.879   7.847  0.00  0.00    +0.113 C 
ATOM     12  C   UNL     1      -5.806  -8.188   9.479  0.00  0.00    +0.205 C 
ATOM     14  C   UNL     1      -8.013  -8.625   8.665  0.00  0.00    +0.175 C 
ENDROOT
BRANCH  10   3
ATOM      3  O   UNL     1      -3.699  -9.306   9.358  0.00  0.00    -0.485 OA
BRANCH   3  16
ATOM     16  C   UNL     1      -3.271  -9.663  10.606  0.00  0.00    +0.121 A 
ATOM     18  C   UNL     1      -1.933  -9.488  10.961  0.00  0.00    +0.047 A 
ATOM     19  C   UNL     1      -4.170 -10.203  11.525  0.00  0.00    +0.047 A 
ATOM     22  C   UNL     1      -2.396 -10.392  13.152  0.00  0.00    +0.088 A 
ATOM     23  C   UNL     1      -1.495  -9.853  12.233  0.00  0.00    +0.030 A 
ATOM     24  C   UNL     1      -3.733 -10.568  12.798  0.00  0.00    +0.030 A 
BRANCH  22   1
ATOM      1  S   UNL     1      -1.847 -10.844  14.748  0.00  0.00    -0.006 S 
ATOM      4  O   UNL     1      -1.366 -12.218  14.710  0.00  0.00    -0.170 OA
ATOM      5  O   UNL     1      -0.976  -9.786  15.238  0.00  0.00    -0.170 OA
ATOM     25  C   UNL     1      -3.324 -10.839  15.740  0.00  0.00    +0.200 C 
ENDBRANCH  22   1
ENDBRANCH   3  16
ENDBRANCH  10   3
BRANCH   6  13
ATOM     13  C   UNL     1      -6.648 -10.397   5.731  0.00  0.00    +0.159 C 
BRANCH  13  15
ATOM      7  N   UNL     1      -7.600 -10.133   3.417  0.00  0.00    -0.336 N 
ATOM      8  N   UNL     1      -7.483  -8.287   4.646  0.00  0.00    -0.239 NA
ATOM     15  C   UNL     1      -7.242  -9.579   4.615  0.00  0.00    +0.124 A 
ATOM     17  C   UNL     1      -8.101  -9.130   2.636  0.00  0.00    +0.106 A 
ATOM     20  C   UNL     1      -7.479 -11.519   3.031  0.00  0.00    +0.150 C 
ATOM     21  C   UNL     1      -8.018  -8.001   3.415  0.00  0.00    +0.130 A 
ENDBRANCH  13  15
ENDBRANCH   6  13
TORSDOF 5
ENDMDL
MODEL 6
REMARK VINA RESULT:      -5.2     27.479     30.146
REMARK  Name = 75536923
REMARK  7 active torsions:
REMARK  status: ('A' for Active; 'I' for Inactive)
REMARK    1  A    between atoms: S_1  and  C_22
REMARK    2  A    between atoms: S_1  and  C_25
REMARK    3  A    between atoms: O_3  and  C_10
REMARK    4  A    between atoms: O_3  and  C_16
REMARK    5  A    between atoms: N_6  and  C_13
REMARK    6  A    between atoms: N_7  and  C_20
REMARK    7  A    between atoms: C_13  and  C_15
REMARK                            x       y       z     vdW  Elec       q    Type
REMARK                         _______ _______ _______ _____ _____    ______ ____
ROOT
ATOM      2  O   UNL     1      10.290  12.425  25.222  0.00  0.00    -0.375 OA
ATOM      6  N   UNL     1      12.268  13.321  22.983  0.00  0.00    -0.289 NA
ATOM      9  C   UNL     1      12.115  11.913  22.602  0.00  0.00    +0.131 C 
ATOM     10  C   UNL     1      11.146  11.048  23.425  0.00  0.00    +0.213 C 
ATOM     11  C   UNL     1      11.032  13.962  23.434  0.00  0.00    +0.113 C 
ATOM     12  C   UNL     1      11.159  11.338  24.920  0.00  0.00    +0.205 C 
ATOM     14  C   UNL     1      10.828  13.707  24.928  0.00  0.00    +0.175 C 
ENDROOT
BRANCH  10   3
ATOM      3  O   UNL     1      11.505   9.678  23.238  0.00  0.00    -0.485 OA
BRANCH   3  16
ATOM     16  C   UNL     1      11.812   9.295  21.962  0.00  0.00    +0.121 A 
ATOM     18  C   UNL     1      10.795   8.935  21.078  0.00  0.00    +0.047 A 
ATOM     19  C   UNL     1      13.142   9.264  21.544  0.00  0.00    +0.047 A 
ATOM     22  C   UNL     1      12.439   8.514  19.359  0.00  0.00    +0.088 A 
ATOM     23  C   UNL     1      11.108   8.544  19.776  0.00  0.00    +0.030 A 
ATOM     24  C   UNL     1      13.456   8.874  20.242  0.00  0.00    +0.030 A 
BRANCH  22   1
ATOM      1  S   UNL     1      12.829   8.028  17.727  0.00  0.00    -0.006 S 
ATOM      4  O   UNL     1      14.188   7.505  17.702  0.00  0.00    -0.170 OA
ATOM      5  O   UNL     1      11.731   7.213  17.228  0.00  0.00    -0.170 OA
ATOM     25  C   UNL     1      12.843   9.550  16.804  0.00  0.00    +0.200 C 
ENDBRANCH  22   1
ENDBRANCH   3  16
ENDBRANCH  10   3
BRANCH   6  13
ATOM     13  C   UNL     1      12.894  14.072  21.894  0.00  0.00    +0.159 C 
BRANCH  13  15
ATOM      7  N   UNL     1      14.284  12.837  20.199  0.00  0.00    -0.336 N 
ATOM      8  N   UNL     1      15.290  13.343  22.112  0.00  0.00    -0.239 NA
ATOM     15  C   UNL     1      14.171  13.424  21.428  0.00  0.00    +0.124 A 
ATOM     17  C   UNL     1      15.556  12.351  20.093  0.00  0.00    +0.106 A 
ATOM     20  C   UNL     1      13.259  12.739  19.187  0.00  0.00    +0.150 C 
ATOM     21  C   UNL     1      16.158  12.676  21.285  0.00  0.00    +0.130 A 
ENDBRANCH  13  15
ENDBRANCH   6  13
TORSDOF 5
ENDMDL
MODEL 7
REMARK VINA RESULT:      -5.1      4.851      7.405
REMARK  Name = 75536923
REMARK  7 active torsions:
REMARK  status: ('A' for Active; 'I' for Inactive)
REMARK    1  A    between atoms: S_1  and  C_22
REMARK    2  A    between atoms: S_1  and  C_25
REMARK    3  A    between atoms: O_3  and  C_10
REMARK    4  A    between atoms: O_3  and  C_16
REMARK    5  A    between atoms: N_6  and  C_13
REMARK    6  A    between atoms: N_7  and  C_20
REMARK    7  A    between atoms: C_13  and  C_15
REMARK                            x       y       z     vdW  Elec       q    Type
REMARK                         _______ _______ _______ _____ _____    ______ ____
ROOT
ATOM      2  O   UNL     1      -1.857 -12.686  12.831  0.00  0.00    -0.375 OA
ATOM      6  N   UNL     1      -4.332 -11.584  14.378  0.00  0.00    -0.289 NA
ATOM      9  C   UNL     1      -4.397 -10.718  13.196  0.00  0.00    +0.131 C 
ATOM     10  C   UNL     1      -3.362 -10.944  12.083  0.00  0.00    +0.213 C 
ATOM     11  C   UNL     1      -3.966 -12.972  14.088  0.00  0.00    +0.113 C 
ATOM     12  C   UNL     1      -1.965 -11.288  12.582  0.00  0.00    +0.205 C 
ATOM     14  C   UNL     1      -2.443 -13.113  14.053  0.00  0.00    +0.175 C 
ENDROOT
BRANCH  10   3
ATOM      3  O   UNL     1      -3.271  -9.746  11.310  0.00  0.00    -0.485 OA
BRANCH   3  16
ATOM     16  C   UNL     1      -4.231  -9.561  10.354  0.00  0.00    +0.121 A 
ATOM     18  C   UNL     1      -4.360 -10.477   9.310  0.00  0.00    +0.047 A 
ATOM     19  C   UNL     1      -5.080  -8.457  10.421  0.00  0.00    +0.047 A 
ATOM     22  C   UNL     1      -6.188  -9.185   8.402  0.00  0.00    +0.088 A 
ATOM     23  C   UNL     1      -5.339 -10.290   8.334  0.00  0.00    +0.030 A 
ATOM     24  C   UNL     1      -6.058  -8.268   9.445  0.00  0.00    +0.030 A 
BRANCH  22   1
ATOM      1  S   UNL     1      -7.416  -8.953   7.182  0.00  0.00    -0.006 S 
ATOM      4  O   UNL     1      -8.466  -9.943   7.374  0.00  0.00    -0.170 OA
ATOM      5  O   UNL     1      -7.753  -7.536   7.151  0.00  0.00    -0.170 OA
ATOM     25  C   UNL     1      -6.600  -9.353   5.652  0.00  0.00    +0.200 C 
ENDBRANCH  22   1
ENDBRANCH   3  16
ENDBRANCH  10   3
BRANCH   6  13
ATOM     13  C   UNL     1      -5.585 -11.507  15.129  0.00  0.00    +0.159 C 
BRANCH  13  15
ATOM      7  N   UNL     1      -6.008 -10.447  17.370  0.00  0.00    -0.336 N 
ATOM      8  N   UNL     1      -4.504 -12.080  17.325  0.00  0.00    -0.239 NA
ATOM     15  C   UNL     1      -5.345 -11.367  16.608  0.00  0.00    +0.124 A 
ATOM     17  C   UNL     1      -5.562 -10.580  18.655  0.00  0.00    +0.106 A 
ATOM     20  C   UNL     1      -6.999  -9.499  16.919  0.00  0.00    +0.150 C 
ATOM     21  C   UNL     1      -4.635 -11.594  18.602  0.00  0.00    +0.130 A 
ENDBRANCH  13  15
ENDBRANCH   6  13
TORSDOF 5
ENDMDL
MODEL 8
REMARK VINA RESULT:      -5.1      2.249      4.331
REMARK  Name = 75536923
REMARK  7 active torsions:
REMARK  status: ('A' for Active; 'I' for Inactive)
REMARK    1  A    between atoms: S_1  and  C_22
REMARK    2  A    between atoms: S_1  and  C_25
REMARK    3  A    between atoms: O_3  and  C_10
REMARK    4  A    between atoms: O_3  and  C_16
REMARK    5  A    between atoms: N_6  and  C_13
REMARK    6  A    between atoms: N_7  and  C_20
REMARK    7  A    between atoms: C_13  and  C_15
REMARK                            x       y       z     vdW  Elec       q    Type
REMARK                         _______ _______ _______ _____ _____    ______ ____
ROOT
ATOM      2  O   UNL     1      -3.704 -13.593  15.195  0.00  0.00    -0.375 OA
ATOM      6  N   UNL     1      -2.751 -11.553  13.037  0.00  0.00    -0.289 NA
ATOM      9  C   UNL     1      -2.810 -10.652  14.193  0.00  0.00    +0.131 C 
ATOM     10  C   UNL     1      -3.195 -11.254  15.554  0.00  0.00    +0.213 C 
ATOM     11  C   UNL     1      -2.232 -12.888  13.339  0.00  0.00    +0.113 C 
ATOM     12  C   UNL     1      -4.278 -12.322  15.485  0.00  0.00    +0.205 C 
ATOM     14  C   UNL     1      -3.367 -13.790  13.829  0.00  0.00    +0.175 C 
ENDROOT
BRANCH  10   3
ATOM      3  O   UNL     1      -3.670 -10.197  16.389  0.00  0.00    -0.485 OA
BRANCH   3  16
ATOM     16  C   UNL     1      -4.930 -10.342  16.900  0.00  0.00    +0.121 A 
ATOM     18  C   UNL     1      -5.118 -11.004  18.114  0.00  0.00    +0.047 A 
ATOM     19  C   UNL     1      -6.027  -9.828  16.210  0.00  0.00    +0.047 A 
ATOM     22  C   UNL     1      -7.500 -10.638  17.944  0.00  0.00    +0.088 A 
ATOM     23  C   UNL     1      -6.403 -11.152  18.636  0.00  0.00    +0.030 A 
ATOM     24  C   UNL     1      -7.312  -9.976  16.731  0.00  0.00    +0.030 A 
BRANCH  22   1
ATOM      1  S   UNL     1      -9.108 -10.820  18.601  0.00  0.00    -0.006 S 
ATOM      4  O   UNL     1      -9.751 -11.962  17.967  0.00  0.00    -0.170 OA
ATOM      5  O   UNL     1      -9.007 -10.761  20.053  0.00  0.00    -0.170 OA
ATOM     25  C   UNL     1      -9.976  -9.366  18.055  0.00  0.00    +0.200 C 
ENDBRANCH  22   1
ENDBRANCH   3  16
ENDBRANCH  10   3
BRANCH   6  13
ATOM     13  C   UNL     1      -2.007 -10.924  11.945  0.00  0.00    +0.159 C 
BRANCH  13  15
ATOM      7  N   UNL     1      -3.705 -11.151  10.103  0.00  0.00    -0.336 N 
ATOM      8  N   UNL     1      -3.088  -9.082  10.619  0.00  0.00    -0.239 NA
ATOM     15  C   UNL     1      -2.925 -10.356  10.896  0.00  0.00    +0.124 A 
ATOM     17  C   UNL     1      -4.410 -10.331   9.268  0.00  0.00    +0.106 A 
ATOM     20  C   UNL     1      -3.783 -12.592  10.129  0.00  0.00    +0.150 C 
ATOM     21  C   UNL     1      -4.013  -9.060   9.605  0.00  0.00    +0.130 A 
ENDBRANCH  13  15
ENDBRANCH   6  13
TORSDOF 5
ENDMDL
MODEL 9
REMARK VINA RESULT:      -5.1     28.021     31.045
REMARK  Name = 75536923
REMARK  7 active torsions:
REMARK  status: ('A' for Active; 'I' for Inactive)
REMARK    1  A    between atoms: S_1  and  C_22
REMARK    2  A    between atoms: S_1  and  C_25
REMARK    3  A    between atoms: O_3  and  C_10
REMARK    4  A    between atoms: O_3  and  C_16
REMARK    5  A    between atoms: N_6  and  C_13
REMARK    6  A    between atoms: N_7  and  C_20
REMARK    7  A    between atoms: C_13  and  C_15
REMARK                            x       y       z     vdW  Elec       q    Type
REMARK                         _______ _______ _______ _____ _____    ______ ____
ROOT
ATOM      2  O   UNL     1      14.556  12.171  17.800  0.00  0.00    -0.375 OA
ATOM      6  N   UNL     1      13.669   9.184  17.643  0.00  0.00    -0.289 NA
ATOM      9  C   UNL     1      14.143   9.355  16.265  0.00  0.00    +0.131 C 
ATOM     10  C   UNL     1      14.750  10.713  15.878  0.00  0.00    +0.213 C 
ATOM     11  C   UNL     1      14.495   9.851  18.651  0.00  0.00    +0.113 C 
ATOM     12  C   UNL     1      14.047  11.914  16.495  0.00  0.00    +0.205 C 
ATOM     14  C   UNL     1      14.052  11.307  18.809  0.00  0.00    +0.175 C 
ENDROOT
BRANCH  10   3
ATOM      3  O   UNL     1      14.678  10.842  14.457  0.00  0.00    -0.485 OA
BRANCH   3  16
ATOM     16  C   UNL     1      15.758  11.408  13.839  0.00  0.00    +0.121 A 
ATOM     18  C   UNL     1      16.943  11.607  14.549  0.00  0.00    +0.047 A 
ATOM     19  C   UNL     1      15.677  11.787  12.499  0.00  0.00    +0.047 A 
ATOM     22  C   UNL     1      17.963  12.562  12.579  0.00  0.00    +0.088 A 
ATOM     23  C   UNL     1      18.045  12.184  13.920  0.00  0.00    +0.030 A 
ATOM     24  C   UNL     1      16.779  12.364  11.869  0.00  0.00    +0.030 A 
BRANCH  22   1
ATOM      1  S   UNL     1      19.346  13.281  11.791  0.00  0.00    -0.006 S 
ATOM      4  O   UNL     1      19.001  13.572  10.406  0.00  0.00    -0.170 OA
ATOM      5  O   UNL     1      19.848  14.344  12.650  0.00  0.00    -0.170 OA
ATOM     25  C   UNL     1      20.562  11.983  11.761  0.00  0.00    +0.200 C 
ENDBRANCH  22   1
ENDBRANCH   3  16
ENDBRANCH  10   3
BRANCH   6  13
ATOM     13  C   UNL     1      13.499   7.763  17.945  0.00  0.00    +0.159 C 
BRANCH  13  15
ATOM      7  N   UNL     1      13.385   7.009  20.343  0.00  0.00    -0.336 N 
ATOM      8  N   UNL     1      11.514   7.842  19.485  0.00  0.00    -0.239 NA
ATOM     15  C   UNL     1      12.773   7.550  19.246  0.00  0.00    +0.124 A 
ATOM     17  C   UNL     1      12.457   6.954  21.344  0.00  0.00    +0.106 A 
ATOM     20  C   UNL     1      14.757   6.572  20.443  0.00  0.00    +0.150 C 
ATOM     21  C   UNL     1      11.311   7.473  20.792  0.00  0.00    +0.130 A 
ENDBRANCH  13  15
ENDBRANCH   6  13
TORSDOF 5
ENDMDL
MODEL 10
REMARK VINA RESULT:      -5.1     23.630     27.116
REMARK  Name = 75536923
REMARK  7 active torsions:
REMARK  status: ('A' for Active; 'I' for Inactive)
REMARK    1  A    between atoms: S_1  and  C_22
REMARK    2  A    between atoms: S_1  and  C_25
REMARK    3  A    between atoms: O_3  and  C_10
REMARK    4  A    between atoms: O_3  and  C_16
REMARK    5  A    between atoms: N_6  and  C_13
REMARK    6  A    between atoms: N_7  and  C_20
REMARK    7  A    between atoms: C_13  and  C_15
REMARK                            x       y       z     vdW  Elec       q    Type
REMARK                         _______ _______ _______ _____ _____    ______ ____
ROOT
ATOM      2  O   UNL     1     -16.914   7.311  33.194  0.00  0.00    -0.375 OA
ATOM      6  N   UNL     1     -14.277   8.702  32.275  0.00  0.00    -0.289 NA
ATOM      9  C   UNL     1     -13.824   7.307  32.240  0.00  0.00    +0.131 C 
ATOM     10  C   UNL     1     -14.848   6.211  32.578  0.00  0.00    +0.213 C 
ATOM     11  C   UNL     1     -15.644   8.904  31.793  0.00  0.00    +0.113 C 
ATOM     12  C   UNL     1     -15.808   6.573  33.703  0.00  0.00    +0.205 C 
ATOM     14  C   UNL     1     -16.638   8.681  32.935  0.00  0.00    +0.175 C 
ENDROOT
BRANCH  10   3
ATOM      3  O   UNL     1     -14.131   5.039  32.970  0.00  0.00    -0.485 OA
BRANCH   3  16
ATOM     16  C   UNL     1     -14.377   3.903  32.250  0.00  0.00    +0.121 A 
ATOM     18  C   UNL     1     -15.538   3.800  31.484  0.00  0.00    +0.047 A 
ATOM     19  C   UNL     1     -13.467   2.846  32.281  0.00  0.00    +0.047 A 
ATOM     22  C   UNL     1     -14.879   1.585  30.781  0.00  0.00    +0.088 A 
ATOM     23  C   UNL     1     -15.789   2.642  30.749  0.00  0.00    +0.030 A 
ATOM     24  C   UNL     1     -13.717   1.688  31.546  0.00  0.00    +0.030 A 
BRANCH  22   1
ATOM      1  S   UNL     1     -15.192   0.137  29.857  0.00  0.00    -0.006 S 
ATOM      4  O   UNL     1     -15.935  -0.801  30.687  0.00  0.00    -0.170 OA
ATOM      5  O   UNL     1     -15.727   0.538  28.563  0.00  0.00    -0.170 OA
ATOM     25  C   UNL     1     -13.583  -0.572  29.587  0.00  0.00    +0.200 C 
ENDBRANCH  22   1
ENDBRANCH   3  16
ENDBRANCH  10   3
BRANCH   6  13
ATOM     13  C   UNL     1     -13.327   9.558  31.564  0.00  0.00    +0.159 C 
BRANCH  13  15
ATOM      7  N   UNL     1     -12.002  10.492  33.488  0.00  0.00    -0.336 N 
ATOM      8  N   UNL     1     -10.877   9.243  32.037  0.00  0.00    -0.239 NA
ATOM     15  C   UNL     1     -12.052   9.747  32.343  0.00  0.00    +0.124 A 
ATOM     17  C   UNL     1     -10.713  10.462  33.940  0.00  0.00    +0.106 A 
ATOM     20  C   UNL     1     -13.097  11.191  34.117  0.00  0.00    +0.150 C 
ATOM     21  C   UNL     1     -10.038   9.685  33.030  0.00  0.00    +0.130 A 
ENDBRANCH  13  15
ENDBRANCH   6  13
TORSDOF 5
ENDMDL
