REMARK  Name = 11885159
REMARK  2 active torsions:
REMARK  status: ('A' for Active; 'I' for Inactive)
REMARK    1  A    between atoms: C_13  and  C_14
REMARK    2  A    between atoms: C_22  and  C_24
REMARK                            x       y       z     vdW  Elec       q    Type
REMARK                         _______ _______ _______ _____ _____    ______ ____
ROOT
ATOM      2  O   UNL     1       3.151   0.689   2.174  0.00  0.00    -0.275 OA
ATOM      3  O   UNL     1      -1.617  -1.668   1.617  0.00  0.00    -0.267 OA
ATOM      4  N   UNL     1       3.154  -0.750   0.350  0.00  0.00    -0.300 N 
ATOM      5  N   UNL     1       0.177  -1.885   0.143  0.00  0.00    -0.311 N 
ATOM      6  C   UNL     1       2.351  -3.075   0.785  0.00  0.00    +0.027 C 
ATOM      7  C   UNL     1       2.109  -2.100  -1.460  0.00  0.00    +0.054 C 
ATOM      8  C   UNL     1       2.461  -3.379  -0.704  0.00  0.00    +0.018 C 
ATOM      9  C   UNL     1       3.321  -1.946   1.177  0.00  0.00    +0.113 C 
ATOM     10  C   UNL     1       3.119  -0.993  -1.100  0.00  0.00    +0.117 C 
ATOM     11  C   UNL     1       0.895  -2.723   1.112  0.00  0.00    +0.130 C 
ATOM     12  C   UNL     1       0.702  -1.639  -1.128  0.00  0.00    +0.027 A 
ATOM     14  C   UNL     1       3.121   0.507   0.954  0.00  0.00    +0.219 C 
ATOM     17  C   UNL     1      -0.025  -0.972  -2.039  0.00  0.00    +0.022 A 
ATOM     20  C   UNL     1      -1.106  -1.441   0.519  0.00  0.00    +0.259 A 
ATOM     22  C   UNL     1      -1.881  -0.664  -0.511  0.00  0.00    +0.047 A 
ATOM     23  C   UNL     1      -1.333  -0.475  -1.720  0.00  0.00    +0.015 A 
ENDROOT
BRANCH  22  24
ATOM      1 CL   UNL     1      -7.291   1.580   0.719  0.00  0.00    -0.084 Cl
ATOM     24  C   UNL     1      -3.213  -0.112  -0.208  0.00  0.00    -0.013 A 
ATOM     25  C   UNL     1      -4.357  -0.871  -0.457  0.00  0.00    +0.010 A 
ATOM     26  C   UNL     1      -3.332   1.171   0.328  0.00  0.00    +0.010 A 
ATOM     27  C   UNL     1      -5.618  -0.348  -0.170  0.00  0.00    +0.020 A 
ATOM     28  C   UNL     1      -4.593   1.694   0.614  0.00  0.00    +0.020 A 
ATOM     29  C   UNL     1      -5.736   0.935   0.365  0.00  0.00    +0.041 A 
ENDBRANCH  22  24
BRANCH  14  13
ATOM     13  C   UNL     1       3.035   1.691   0.038  0.00  0.00    +0.075 C 
ATOM     15  C   UNL     1       3.751   2.889   0.665  0.00  0.00    +0.013 C 
ATOM     16  C   UNL     1       1.569   2.011  -0.265  0.00  0.00    +0.013 C 
ATOM     18  C   UNL     1       3.608   4.144  -0.192  0.00  0.00    +0.001 C 
ATOM     19  C   UNL     1       1.432   3.268  -1.120  0.00  0.00    +0.001 C 
ATOM     21  C   UNL     1       2.146   4.460  -0.488  0.00  0.00    +0.000 C 
ENDBRANCH  14  13
TORSDOF 2
