REMARK  Name = 44716236
REMARK  8 active torsions:
REMARK  status: ('A' for Active; 'I' for Inactive)
REMARK    1  A    between atoms: S_1  and  C_22
REMARK    2  A    between atoms: S_1  and  C_26
REMARK    3  A    between atoms: N_5  and  C_16
REMARK    4  A    between atoms: N_6  and  C_19
REMARK    5  A    between atoms: C_10  and  C_16
REMARK    6  A    between atoms: C_11  and  C_17
REMARK    7  A    between atoms: C_19  and  C_21
REMARK    8  A    between atoms: C_20  and  C_22
REMARK                            x       y       z     vdW  Elec       q    Type
REMARK                         _______ _______ _______ _____ _____    ______ ____
ROOT
ATOM      4  N   UNL     1      -0.755  -3.937   0.007  0.00  0.00    -0.297 NA
ATOM      9  C   UNL     1       0.812  -2.234  -1.183  0.00  0.00    +0.005 C 
ATOM     10  C   UNL     1      -1.482  -2.663  -0.236  0.00  0.00    +0.078 C 
ATOM     11  C   UNL     1       1.472  -2.805   0.087  0.00  0.00    +0.092 C 
ATOM     12  C   UNL     1      -0.533  -1.584  -0.801  0.00  0.00    +0.025 C 
ATOM     13  C   UNL     1       0.499  -3.432  -2.098  0.00  0.00    +0.020 C 
ATOM     14  C   UNL     1       0.455  -3.691   0.830  0.00  0.00    +0.097 C 
ATOM     15  C   UNL     1      -0.319  -4.471  -1.308  0.00  0.00    +0.085 C 
ENDROOT
BRANCH  11  17
ATOM      2  O   UNL     1       1.323  -1.221   1.867  0.00  0.00    -0.275 OA
ATOM      6  N   UNL     1       3.297  -1.357   0.642  0.00  0.00    -0.308 N 
ATOM     17  C   UNL     1       2.002  -1.718   0.974  0.00  0.00    +0.218 C 
ATOM     32  H   UNL     1       3.772  -1.844  -0.113  0.00  0.00    +0.149 HD
BRANCH   6  19
ATOM     19  C   UNL     1       4.029  -0.318   1.329  0.00  0.00    +0.178 C 
BRANCH  19  21
ATOM      3  O   UNL     1       4.478   2.046   0.981  0.00  0.00    -0.466 OA
ATOM     21  C   UNL     1       4.392   0.815   0.412  0.00  0.00    +0.122 A 
ATOM     23  C   UNL     1       4.669   0.883  -0.933  0.00  0.00    +0.046 A 
ATOM     24  C   UNL     1       4.942   2.244  -1.209  0.00  0.00    +0.041 A 
ATOM     25  C   UNL     1       4.813   2.910  -0.013  0.00  0.00    +0.195 A 
ENDBRANCH  19  21
ENDBRANCH   6  19
ENDBRANCH  11  17
BRANCH  10  16
ATOM     16  C   UNL     1      -2.227  -2.170   1.007  0.00  0.00    +0.164 C 
BRANCH  16   5
ATOM      5  N   UNL     1      -3.099  -0.987   0.694  0.00  0.00    -0.250 N 
ATOM      7  N   UNL     1      -4.064  -1.072  -0.236  0.00  0.00    -0.065 NA
ATOM      8  N   UNL     1      -4.659   0.114  -0.298  0.00  0.00    -0.134 NA
ATOM     18  C   UNL     1      -3.050   0.253   1.253  0.00  0.00    +0.134 A 
ATOM     20  C   UNL     1      -4.049   0.937   0.608  0.00  0.00    +0.093 A 
BRANCH  20  22
ATOM     22  C   UNL     1      -4.480   2.330   0.782  0.00  0.00    +0.133 C 
BRANCH  22   1
ATOM      1  S   UNL     1      -3.903   3.435  -0.555  0.00  0.00    -0.119 S 
BRANCH   1  26
ATOM     26  C   UNL     1      -2.138   3.162  -0.487  0.00  0.00    +0.008 A 
ATOM     27  C   UNL     1      -1.432   3.448   0.682  0.00  0.00    +0.015 A 
ATOM     28  C   UNL     1      -1.467   2.662  -1.603  0.00  0.00    +0.015 A 
ATOM     29  C   UNL     1      -0.055   3.235   0.734  0.00  0.00    +0.001 A 
ATOM     30  C   UNL     1      -0.089   2.449  -1.550  0.00  0.00    +0.001 A 
ATOM     31  C   UNL     1       0.617   2.736  -0.382  0.00  0.00    +0.000 A 
ENDBRANCH   1  26
ENDBRANCH  22   1
ENDBRANCH  20  22
ENDBRANCH  16   5
ENDBRANCH  10  16
TORSDOF 8
