MODEL 1
REMARK VINA RESULT:      -7.1      0.000      0.000
REMARK  Name = 25389742
REMARK  9 active torsions:
REMARK  status: ('A' for Active; 'I' for Inactive)
REMARK    1  A    between atoms: O_2  and  C_21
REMARK    2  A    between atoms: O_2  and  C_33
REMARK    3  A    between atoms: N_6  and  C_12
REMARK    4  A    between atoms: N_6  and  C_22
REMARK    5  A    between atoms: N_8  and  C_27
REMARK    6  A    between atoms: C_10  and  C_18
REMARK    7  A    between atoms: C_14  and  C_21
REMARK    8  A    between atoms: C_22  and  C_27
REMARK    9  A    between atoms: C_34  and  C_35
REMARK                            x       y       z     vdW  Elec       q    Type
REMARK                         _______ _______ _______ _____ _____    ______ ____
ROOT
ATOM      5  N   UNL     1     -10.669 -10.437  16.634  0.00  0.00    -0.274 NA
ATOM      7  N   UNL     1      -7.065  -9.848  15.634  0.00  0.00    -0.356 N 
ATOM      9  C   UNL     1      -9.630 -10.073  15.603  0.00  0.00    +0.106 C 
ATOM     10  C   UNL     1     -10.795  -9.391  17.697  0.00  0.00    +0.090 C 
ATOM     11  C   UNL     1      -9.813  -8.659  15.037  0.00  0.00    +0.044 C 
ATOM     12  C   UNL     1      -9.850  -7.607  16.141  0.00  0.00    +0.057 C 
ATOM     13  C   UNL     1     -10.969  -7.966  17.113  0.00  0.00    +0.042 C 
ATOM     14  C   UNL     1     -10.341 -11.817  17.126  0.00  0.00    +0.172 C 
ATOM     15  C   UNL     1      -8.240 -10.344  16.127  0.00  0.00    +0.038 A 
ATOM     16  C   UNL     1      -9.011 -11.926  17.907  0.00  0.00    +0.068 C 
ATOM     17  C   UNL     1      -7.938 -11.200  17.169  0.00  0.00    -0.016 A 
ATOM     19  C   UNL     1      -6.528 -11.197  17.340  0.00  0.00    +0.003 A 
ATOM     20  C   UNL     1      -6.005 -10.340  16.365  0.00  0.00    +0.047 A 
ATOM     25  C   UNL     1      -5.640 -11.839  18.225  0.00  0.00    +0.010 A 
ATOM     26  C   UNL     1      -4.633 -10.097  16.235  0.00  0.00    +0.026 A 
ATOM     28  C   UNL     1      -4.265 -11.602  18.106  0.00  0.00    +0.001 A 
ATOM     31  C   UNL     1      -3.773 -10.745  17.125  0.00  0.00    +0.002 A 
ATOM     37  H   UNL     1      -6.978  -9.210  14.855  0.00  0.00    +0.166 HD
ENDROOT
BRANCH  10  18
ATOM      1 CL   UNL     1     -15.956  -9.669  18.495  0.00  0.00    -0.084 Cl
ATOM     18  C   UNL     1     -11.960  -9.605  18.661  0.00  0.00    -0.029 A 
ATOM     23  C   UNL     1     -13.273  -9.547  18.193  0.00  0.00    +0.025 A 
ATOM     24  C   UNL     1     -11.711  -9.858  20.009  0.00  0.00    +0.005 A 
ATOM     29  C   UNL     1     -14.336  -9.742  19.073  0.00  0.00    +0.041 A 
ATOM     30  C   UNL     1     -12.775 -10.053  20.890  0.00  0.00    +0.002 A 
ATOM     32  C   UNL     1     -14.088  -9.996  20.422  0.00  0.00    +0.020 A 
ENDBRANCH  10  18
BRANCH  14  21
ATOM      3  O   UNL     1     -12.618 -12.519  17.440  0.00  0.00    -0.249 OA
ATOM     21  C   UNL     1     -11.482 -12.412  17.883  0.00  0.00    +0.325 C 
BRANCH  21   2
ATOM      2  O   UNL     1     -11.054 -12.807  19.116  0.00  0.00    -0.467 OA
ATOM     33  C   UNL     1     -11.985 -13.591  19.868  0.00  0.00    +0.280 C 
ENDBRANCH  21   2
ENDBRANCH  14  21
BRANCH  12   6
ATOM      6  N   UNL     1     -10.079  -6.275  15.582  0.00  0.00    -0.312 NA
ATOM     36  H   UNL     1     -10.004  -6.313  14.565  0.00  0.00    +0.122 HD
BRANCH   6  22
ATOM     22  C   UNL     1     -11.402  -5.787  15.936  0.00  0.00    +0.100 C 
BRANCH  22  27
ATOM     27  C   UNL     1     -12.342  -5.895  14.746  0.00  0.00    +0.119 C 
BRANCH  27   8
ATOM      4  O   UNL     1     -13.873  -3.816  13.419  0.00  0.00    -0.276 OA
ATOM      8  N   UNL     1     -11.914  -5.050  13.665  0.00  0.00    -0.314 N 
ATOM     34  C   UNL     1     -12.720  -4.076  13.089  0.00  0.00    +0.210 C 
ATOM     35  C   UNL     1     -12.016  -3.320  11.995  0.00  0.00    +0.109 C 
ATOM     38  H   UNL     1     -10.971  -5.181  13.309  0.00  0.00    +0.149 HD
ENDBRANCH  27   8
ENDBRANCH  22  27
ENDBRANCH   6  22
ENDBRANCH  12   6
TORSDOF 7
ENDMDL
MODEL 2
REMARK VINA RESULT:      -7.1     28.216     29.756
REMARK  Name = 25389742
REMARK  9 active torsions:
REMARK  status: ('A' for Active; 'I' for Inactive)
REMARK    1  A    between atoms: O_2  and  C_21
REMARK    2  A    between atoms: O_2  and  C_33
REMARK    3  A    between atoms: N_6  and  C_12
REMARK    4  A    between atoms: N_6  and  C_22
REMARK    5  A    between atoms: N_8  and  C_27
REMARK    6  A    between atoms: C_10  and  C_18
REMARK    7  A    between atoms: C_14  and  C_21
REMARK    8  A    between atoms: C_22  and  C_27
REMARK    9  A    between atoms: C_34  and  C_35
REMARK                            x       y       z     vdW  Elec       q    Type
REMARK                         _______ _______ _______ _____ _____    ______ ____
ROOT
ATOM      5  N   UNL     1      -2.427   9.526  39.303  0.00  0.00    -0.274 NA
ATOM      7  N   UNL     1      -4.800  11.004  36.750  0.00  0.00    -0.356 N 
ATOM      9  C   UNL     1      -2.910  10.687  38.469  0.00  0.00    +0.106 C 
ATOM     10  C   UNL     1      -1.816   8.449  38.463  0.00  0.00    +0.090 C 
ATOM     11  C   UNL     1      -1.848  11.212  37.496  0.00  0.00    +0.044 C 
ATOM     12  C   UNL     1      -1.307  10.106  36.595  0.00  0.00    +0.057 C 
ATOM     13  C   UNL     1      -0.751   8.993  37.477  0.00  0.00    +0.042 C 
ATOM     14  C   UNL     1      -3.576   9.093  40.167  0.00  0.00    +0.172 C 
ATOM     15  C   UNL     1      -4.230  10.359  37.812  0.00  0.00    +0.038 A 
ATOM     16  C   UNL     1      -4.778   8.501  39.397  0.00  0.00    +0.068 C 
ATOM     17  C   UNL     1      -5.102   9.374  38.232  0.00  0.00    -0.016 A 
ATOM     19  C   UNL     1      -6.232   9.397  37.371  0.00  0.00    +0.003 A 
ATOM     20  C   UNL     1      -6.017  10.428  36.450  0.00  0.00    +0.047 A 
ATOM     25  C   UNL     1      -7.421   8.645  37.282  0.00  0.00    +0.010 A 
ATOM     26  C   UNL     1      -6.937  10.743  35.444  0.00  0.00    +0.026 A 
ATOM     28  C   UNL     1      -8.348   8.949  36.279  0.00  0.00    +0.001 A 
ATOM     31  C   UNL     1      -8.108   9.982  35.375  0.00  0.00    +0.002 A 
ATOM     37  H   UNL     1      -4.396  11.783  36.249  0.00  0.00    +0.166 HD
ENDROOT
BRANCH  10  18
ATOM      1 CL   UNL     1       2.071   6.928  41.615  0.00  0.00    -0.084 Cl
ATOM     18  C   UNL     1      -1.135   7.336  39.258  0.00  0.00    -0.029 A 
ATOM     23  C   UNL     1       0.021   7.608  39.989  0.00  0.00    +0.025 A 
ATOM     24  C   UNL     1      -1.670   6.048  39.252  0.00  0.00    +0.005 A 
ATOM     29  C   UNL     1       0.643   6.592  40.714  0.00  0.00    +0.041 A 
ATOM     30  C   UNL     1      -1.048   5.032  39.978  0.00  0.00    +0.002 A 
ATOM     32  C   UNL     1       0.108   5.304  40.710  0.00  0.00    +0.020 A 
ENDBRANCH  10  18
BRANCH  14  21
ATOM      3  O   UNL     1      -2.237   8.475  42.065  0.00  0.00    -0.249 OA
ATOM     21  C   UNL     1      -3.121   8.191  41.268  0.00  0.00    +0.325 C 
BRANCH  21   2
ATOM      2  O   UNL     1      -3.841   7.033  41.234  0.00  0.00    -0.467 OA
ATOM     33  C   UNL     1      -4.351   6.591  42.495  0.00  0.00    +0.280 C 
ENDBRANCH  21   2
ENDBRANCH  14  21
BRANCH  12   6
ATOM      6  N   UNL     1      -0.258  10.620  35.714  0.00  0.00    -0.312 NA
ATOM     36  H   UNL     1      -0.007   9.907  35.030  0.00  0.00    +0.122 HD
BRANCH   6  22
ATOM     22  C   UNL     1      -0.714  11.807  35.008  0.00  0.00    +0.100 C 
BRANCH  22  27
ATOM     27  C   UNL     1       0.474  12.653  34.576  0.00  0.00    +0.119 C 
BRANCH  27   8
ATOM      4  O   UNL     1       1.350  14.571  32.580  0.00  0.00    -0.276 OA
ATOM      8  N   UNL     1       0.830  12.389  33.208  0.00  0.00    -0.314 N 
ATOM     34  C   UNL     1       1.241  13.376  32.320  0.00  0.00    +0.210 C 
ATOM     35  C   UNL     1       1.577  12.824  30.961  0.00  0.00    +0.109 C 
ATOM     38  H   UNL     1       0.775  11.428  32.884  0.00  0.00    +0.149 HD
ENDBRANCH  27   8
ENDBRANCH  22  27
ENDBRANCH   6  22
ENDBRANCH  12   6
TORSDOF 7
ENDMDL
MODEL 3
REMARK VINA RESULT:      -6.6     27.804     30.414
REMARK  Name = 25389742
REMARK  9 active torsions:
REMARK  status: ('A' for Active; 'I' for Inactive)
REMARK    1  A    between atoms: O_2  and  C_21
REMARK    2  A    between atoms: O_2  and  C_33
REMARK    3  A    between atoms: N_6  and  C_12
REMARK    4  A    between atoms: N_6  and  C_22
REMARK    5  A    between atoms: N_8  and  C_27
REMARK    6  A    between atoms: C_10  and  C_18
REMARK    7  A    between atoms: C_14  and  C_21
REMARK    8  A    between atoms: C_22  and  C_27
REMARK    9  A    between atoms: C_34  and  C_35
REMARK                            x       y       z     vdW  Elec       q    Type
REMARK                         _______ _______ _______ _____ _____    ______ ____
ROOT
ATOM      5  N   UNL     1      10.127   8.554   3.631  0.00  0.00    -0.274 NA
ATOM      7  N   UNL     1       7.657   9.180   0.831  0.00  0.00    -0.356 N 
ATOM      9  C   UNL     1       9.822   8.853   2.184  0.00  0.00    +0.106 C 
ATOM     10  C   UNL     1       9.700   7.175   4.020  0.00  0.00    +0.090 C 
ATOM     11  C   UNL     1      10.336   7.772   1.226  0.00  0.00    +0.044 C 
ATOM     12  C   UNL     1       9.813   6.388   1.599  0.00  0.00    +0.057 C 
ATOM     13  C   UNL     1      10.216   6.091   3.038  0.00  0.00    +0.042 C 
ATOM     14  C   UNL     1       9.531   9.665   4.447  0.00  0.00    +0.172 C 
ATOM     15  C   UNL     1       8.360   9.183   2.003  0.00  0.00    +0.038 A 
ATOM     16  C   UNL     1       7.987   9.735   4.416  0.00  0.00    +0.068 C 
ATOM     17  C   UNL     1       7.511   9.602   3.009  0.00  0.00    -0.016 A 
ATOM     19  C   UNL     1       6.233   9.830   2.434  0.00  0.00    +0.003 A 
ATOM     20  C   UNL     1       6.351   9.557   1.067  0.00  0.00    +0.047 A 
ATOM     25  C   UNL     1       4.983  10.244   2.936  0.00  0.00    +0.010 A 
ATOM     26  C   UNL     1       5.277   9.680   0.178  0.00  0.00    +0.026 A 
ATOM     28  C   UNL     1       3.900  10.368   2.058  0.00  0.00    +0.001 A 
ATOM     31  C   UNL     1       4.047  10.090   0.701  0.00  0.00    +0.002 A 
ATOM     37  H   UNL     1       8.028   8.934  -0.076  0.00  0.00    +0.166 HD
ENDROOT
BRANCH  10  18
ATOM      1 CL   UNL     1      13.587   6.435   7.441  0.00  0.00    -0.084 Cl
ATOM     18  C   UNL     1      10.152   6.741   5.413  0.00  0.00    -0.029 A 
ATOM     23  C   UNL     1      11.504   6.782   5.752  0.00  0.00    +0.025 A 
ATOM     24  C   UNL     1       9.212   6.303   6.346  0.00  0.00    +0.005 A 
ATOM     29  C   UNL     1      11.917   6.386   7.024  0.00  0.00    +0.041 A 
ATOM     30  C   UNL     1       9.625   5.907   7.618  0.00  0.00    +0.002 A 
ATOM     32  C   UNL     1      10.977   5.949   7.958  0.00  0.00    +0.020 A 
ENDBRANCH  10  18
BRANCH  14  21
ATOM      3  O   UNL     1      11.244   9.781   6.130  0.00  0.00    -0.249 OA
ATOM     21  C   UNL     1      10.060   9.660   5.844  0.00  0.00    +0.325 C 
BRANCH  21   2
ATOM      2  O   UNL     1       9.027   9.503   6.721  0.00  0.00    -0.467 OA
ATOM     33  C   UNL     1       9.383   9.564   8.106  0.00  0.00    +0.280 C 
ENDBRANCH  21   2
ENDBRANCH  14  21
BRANCH  12   6
ATOM      6  N   UNL     1      10.359   5.368   0.703  0.00  0.00    -0.312 NA
ATOM     36  H   UNL     1       9.657   5.111   0.009  0.00  0.00    +0.122 HD
BRANCH   6  22
ATOM     22  C   UNL     1      11.540   5.865   0.015  0.00  0.00    +0.100 C 
BRANCH  22  27
ATOM     27  C   UNL     1      12.285   4.718  -0.651  0.00  0.00    +0.119 C 
BRANCH  27   8
ATOM      4  O   UNL     1      12.553   3.213   1.817  0.00  0.00    -0.276 OA
ATOM      8  N   UNL     1      13.498   4.406   0.055  0.00  0.00    -0.314 N 
ATOM     34  C   UNL     1      13.530   3.676   1.236  0.00  0.00    +0.210 C 
ATOM     35  C   UNL     1      14.930   3.473   1.750  0.00  0.00    +0.109 C 
ATOM     38  H   UNL     1      14.372   4.743  -0.338  0.00  0.00    +0.149 HD
ENDBRANCH  27   8
ENDBRANCH  22  27
ENDBRANCH   6  22
ENDBRANCH  12   6
TORSDOF 7
ENDMDL
MODEL 4
REMARK VINA RESULT:      -6.6      3.465      6.453
REMARK  Name = 25389742
REMARK  9 active torsions:
REMARK  status: ('A' for Active; 'I' for Inactive)
REMARK    1  A    between atoms: O_2  and  C_21
REMARK    2  A    between atoms: O_2  and  C_33
REMARK    3  A    between atoms: N_6  and  C_12
REMARK    4  A    between atoms: N_6  and  C_22
REMARK    5  A    between atoms: N_8  and  C_27
REMARK    6  A    between atoms: C_10  and  C_18
REMARK    7  A    between atoms: C_14  and  C_21
REMARK    8  A    between atoms: C_22  and  C_27
REMARK    9  A    between atoms: C_34  and  C_35
REMARK                            x       y       z     vdW  Elec       q    Type
REMARK                         _______ _______ _______ _____ _____    ______ ____
ROOT
ATOM      5  N   UNL     1      -6.703 -10.109  16.778  0.00  0.00    -0.274 NA
ATOM      7  N   UNL     1      -9.594 -10.460  19.198  0.00  0.00    -0.356 N 
ATOM      9  C   UNL     1      -7.716  -9.504  17.718  0.00  0.00    +0.106 C 
ATOM     10  C   UNL     1      -7.347 -10.682  15.555  0.00  0.00    +0.090 C 
ATOM     11  C   UNL     1      -8.671  -8.525  17.025  0.00  0.00    +0.044 C 
ATOM     12  C   UNL     1      -9.376  -9.166  15.834  0.00  0.00    +0.057 C 
ATOM     13  C   UNL     1      -8.317  -9.686  14.869  0.00  0.00    +0.042 C 
ATOM     14  C   UNL     1      -5.875 -11.071  17.578  0.00  0.00    +0.172 C 
ATOM     15  C   UNL     1      -8.418 -10.581  18.511  0.00  0.00    +0.038 A 
ATOM     16  C   UNL     1      -6.645 -12.302  18.110  0.00  0.00    +0.068 C 
ATOM     17  C   UNL     1      -7.935 -11.860  18.713  0.00  0.00    -0.016 A 
ATOM     19  C   UNL     1      -8.871 -12.555  19.524  0.00  0.00    +0.003 A 
ATOM     20  C   UNL     1      -9.902 -11.655  19.813  0.00  0.00    +0.047 A 
ATOM     25  C   UNL     1      -8.945 -13.862  20.047  0.00  0.00    +0.010 A 
ATOM     26  C   UNL     1     -11.005 -12.002  20.603  0.00  0.00    +0.026 A 
ATOM     28  C   UNL     1     -10.044 -14.221  20.836  0.00  0.00    +0.001 A 
ATOM     31  C   UNL     1     -11.056 -13.304  21.107  0.00  0.00    +0.002 A 
ATOM     37  H   UNL     1     -10.163  -9.626  19.246  0.00  0.00    +0.166 HD
ENDROOT
BRANCH  10  18
ATOM      1 CL   UNL     1      -5.347 -14.548  12.654  0.00  0.00    -0.084 Cl
ATOM     18  C   UNL     1      -6.365 -11.135  14.476  0.00  0.00    -0.029 A 
ATOM     23  C   UNL     1      -6.311 -12.477  14.100  0.00  0.00    +0.025 A 
ATOM     24  C   UNL     1      -5.522 -10.206  13.867  0.00  0.00    +0.005 A 
ATOM     29  C   UNL     1      -5.414 -12.890  13.116  0.00  0.00    +0.041 A 
ATOM     30  C   UNL     1      -4.625 -10.619  12.882  0.00  0.00    +0.002 A 
ATOM     32  C   UNL     1      -4.571 -11.962  12.505  0.00  0.00    +0.020 A 
ENDBRANCH  10  18
BRANCH  14  21
ATOM      3  O   UNL     1      -4.376 -12.612  16.503  0.00  0.00    -0.249 OA
ATOM     21  C   UNL     1      -4.635 -11.466  16.844  0.00  0.00    +0.325 C 
BRANCH  21   2
ATOM      2  O   UNL     1      -3.864 -10.362  16.626  0.00  0.00    -0.467 OA
ATOM     33  C   UNL     1      -2.555 -10.620  16.111  0.00  0.00    +0.280 C 
ENDBRANCH  21   2
ENDBRANCH  14  21
BRANCH  12   6
ATOM      6  N   UNL     1     -10.239  -8.197  15.159  0.00  0.00    -0.312 NA
ATOM     36  H   UNL     1     -11.197  -8.548  15.139  0.00  0.00    +0.122 HD
BRANCH   6  22
ATOM     22  C   UNL     1     -10.222  -6.919  15.853  0.00  0.00    +0.100 C 
BRANCH  22  27
ATOM     27  C   UNL     1     -11.537  -6.185  15.641  0.00  0.00    +0.119 C 
BRANCH  27   8
ATOM      4  O   UNL     1     -13.763  -5.307  13.996  0.00  0.00    -0.276 OA
ATOM      8  N   UNL     1     -11.484  -5.347  14.474  0.00  0.00    -0.314 N 
ATOM     34  C   UNL     1     -12.608  -4.977  13.745  0.00  0.00    +0.210 C 
ATOM     35  C   UNL     1     -12.272  -4.078  12.587  0.00  0.00    +0.109 C 
ATOM     38  H   UNL     1     -10.572  -5.016  14.173  0.00  0.00    +0.149 HD
ENDBRANCH  27   8
ENDBRANCH  22  27
ENDBRANCH   6  22
ENDBRANCH  12   6
TORSDOF 7
ENDMDL
MODEL 5
REMARK VINA RESULT:      -6.6      3.704      5.412
REMARK  Name = 25389742
REMARK  9 active torsions:
REMARK  status: ('A' for Active; 'I' for Inactive)
REMARK    1  A    between atoms: O_2  and  C_21
REMARK    2  A    between atoms: O_2  and  C_33
REMARK    3  A    between atoms: N_6  and  C_12
REMARK    4  A    between atoms: N_6  and  C_22
REMARK    5  A    between atoms: N_8  and  C_27
REMARK    6  A    between atoms: C_10  and  C_18
REMARK    7  A    between atoms: C_14  and  C_21
REMARK    8  A    between atoms: C_22  and  C_27
REMARK    9  A    between atoms: C_34  and  C_35
REMARK                            x       y       z     vdW  Elec       q    Type
REMARK                         _______ _______ _______ _____ _____    ______ ____
ROOT
ATOM      5  N   UNL     1      -7.642 -11.621  14.825  0.00  0.00    -0.274 NA
ATOM      7  N   UNL     1      -7.447  -9.732  11.549  0.00  0.00    -0.356 N 
ATOM      9  C   UNL     1      -8.271 -11.141  13.540  0.00  0.00    +0.106 C 
ATOM     10  C   UNL     1      -7.361 -10.493  15.767  0.00  0.00    +0.090 C 
ATOM     11  C   UNL     1      -9.484 -10.231  13.768  0.00  0.00    +0.044 C 
ATOM     12  C   UNL     1      -9.142  -9.043  14.662  0.00  0.00    +0.057 C 
ATOM     13  C   UNL     1      -8.591  -9.574  15.980  0.00  0.00    +0.042 C 
ATOM     14  C   UNL     1      -6.452 -12.456  14.451  0.00  0.00    +0.172 C 
ATOM     15  C   UNL     1      -7.227 -10.549  12.624  0.00  0.00    +0.038 A 
ATOM     16  C   UNL     1      -5.306 -11.679  13.762  0.00  0.00    +0.068 C 
ATOM     17  C   UNL     1      -5.870 -10.796  12.702  0.00  0.00    -0.016 A 
ATOM     19  C   UNL     1      -5.236 -10.074  11.656  0.00  0.00    +0.003 A 
ATOM     20  C   UNL     1      -6.247  -9.415  10.949  0.00  0.00    +0.047 A 
ATOM     25  C   UNL     1      -3.900  -9.916  11.235  0.00  0.00    +0.010 A 
ATOM     26  C   UNL     1      -5.984  -8.604   9.839  0.00  0.00    +0.026 A 
ATOM     28  C   UNL     1      -3.624  -9.105  10.127  0.00  0.00    +0.001 A 
ATOM     31  C   UNL     1      -4.652  -8.461   9.442  0.00  0.00    +0.002 A 
ATOM     37  H   UNL     1      -8.350  -9.400  11.239  0.00  0.00    +0.166 HD
ENDROOT
BRANCH  10  18
ATOM      1 CL   UNL     1      -8.313 -13.155  20.167  0.00  0.00    -0.084 Cl
ATOM     18  C   UNL     1      -6.904 -10.928  17.158  0.00  0.00    -0.029 A 
ATOM     23  C   UNL     1      -7.721 -11.748  17.936  0.00  0.00    +0.025 A 
ATOM     24  C   UNL     1      -5.669 -10.504  17.650  0.00  0.00    +0.005 A 
ATOM     29  C   UNL     1      -7.304 -12.145  19.206  0.00  0.00    +0.041 A 
ATOM     30  C   UNL     1      -5.252 -10.901  18.920  0.00  0.00    +0.002 A 
ATOM     32  C   UNL     1      -6.069 -11.722  19.699  0.00  0.00    +0.020 A 
ENDBRANCH  10  18
BRANCH  14  21
ATOM      3  O   UNL     1      -4.848 -13.139  16.105  0.00  0.00    -0.249 OA
ATOM     21  C   UNL     1      -5.961 -13.259  15.611  0.00  0.00    +0.325 C 
BRANCH  21   2
ATOM      2  O   UNL     1      -6.938 -14.121  16.015  0.00  0.00    -0.467 OA
ATOM     33  C   UNL     1      -6.478 -15.295  16.690  0.00  0.00    +0.280 C 
ENDBRANCH  21   2
ENDBRANCH  14  21
BRANCH  12   6
ATOM      6  N   UNL     1     -10.327  -8.220  14.907  0.00  0.00    -0.312 NA
ATOM     36  H   UNL     1     -11.114  -8.819  15.154  0.00  0.00    +0.122 HD
BRANCH   6  22
ATOM     22  C   UNL     1     -10.089  -7.286  15.995  0.00  0.00    +0.100 C 
BRANCH  22  27
ATOM     27  C   UNL     1     -11.207  -6.256  16.063  0.00  0.00    +0.119 C 
BRANCH  27   8
ATOM      4  O   UNL     1     -13.551  -5.810  14.409  0.00  0.00    -0.276 OA
ATOM      8  N   UNL     1     -11.285  -5.493  14.847  0.00  0.00    -0.314 N 
ATOM     34  C   UNL     1     -12.458  -5.333  14.118  0.00  0.00    +0.210 C 
ATOM     35  C   UNL     1     -12.266  -4.467  12.902  0.00  0.00    +0.109 C 
ATOM     38  H   UNL     1     -10.434  -5.053  14.511  0.00  0.00    +0.149 HD
ENDBRANCH  27   8
ENDBRANCH  22  27
ENDBRANCH   6  22
ENDBRANCH  12   6
TORSDOF 7
ENDMDL
MODEL 6
REMARK VINA RESULT:      -6.5     32.403     36.544
REMARK  Name = 25389742
REMARK  9 active torsions:
REMARK  status: ('A' for Active; 'I' for Inactive)
REMARK    1  A    between atoms: O_2  and  C_21
REMARK    2  A    between atoms: O_2  and  C_33
REMARK    3  A    between atoms: N_6  and  C_12
REMARK    4  A    between atoms: N_6  and  C_22
REMARK    5  A    between atoms: N_8  and  C_27
REMARK    6  A    between atoms: C_10  and  C_18
REMARK    7  A    between atoms: C_14  and  C_21
REMARK    8  A    between atoms: C_22  and  C_27
REMARK    9  A    between atoms: C_34  and  C_35
REMARK                            x       y       z     vdW  Elec       q    Type
REMARK                         _______ _______ _______ _____ _____    ______ ____
ROOT
ATOM      5  N   UNL     1      21.777   7.097  22.089  0.00  0.00    -0.274 NA
ATOM      7  N   UNL     1      19.007   6.130  19.696  0.00  0.00    -0.356 N 
ATOM      9  C   UNL     1      21.307   6.661  20.723  0.00  0.00    +0.106 C 
ATOM     10  C   UNL     1      21.589   6.024  23.115  0.00  0.00    +0.090 C 
ATOM     11  C   UNL     1      21.885   5.308  20.292  0.00  0.00    +0.044 C 
ATOM     12  C   UNL     1      21.602   4.216  21.319  0.00  0.00    +0.057 C 
ATOM     13  C   UNL     1      22.168   4.659  22.664  0.00  0.00    +0.042 C 
ATOM     14  C   UNL     1      21.101   8.403  22.394  0.00  0.00    +0.172 C 
ATOM     15  C   UNL     1      19.802   6.739  20.627  0.00  0.00    +0.038 A 
ATOM     16  C   UNL     1      19.566   8.315  22.557  0.00  0.00    +0.068 C 
ATOM     17  C   UNL     1      18.992   7.502  21.446  0.00  0.00    -0.016 A 
ATOM     19  C   UNL     1      17.650   7.323  21.021  0.00  0.00    +0.003 A 
ATOM     20  C   UNL     1      17.686   6.457  19.923  0.00  0.00    +0.047 A 
ATOM     25  C   UNL     1      16.402   7.811  21.458  0.00  0.00    +0.010 A 
ATOM     26  C   UNL     1      16.531   6.059  19.239  0.00  0.00    +0.026 A 
ATOM     28  C   UNL     1      15.240   7.418  20.784  0.00  0.00    +0.001 A 
ATOM     31  C   UNL     1      15.306   6.555  19.692  0.00  0.00    +0.002 A 
ATOM     37  H   UNL     1      19.328   5.524  18.955  0.00  0.00    +0.166 HD
ENDROOT
BRANCH  10  18
ATOM      1 CL   UNL     1      25.891   6.840  25.976  0.00  0.00    -0.084 Cl
ATOM     18  C   UNL     1      22.219   6.330  24.473  0.00  0.00    -0.029 A 
ATOM     23  C   UNL     1      23.605   6.434  24.591  0.00  0.00    +0.025 A 
ATOM     24  C   UNL     1      21.408   6.503  25.594  0.00  0.00    +0.005 A 
ATOM     29  C   UNL     1      24.180   6.713  25.830  0.00  0.00    +0.041 A 
ATOM     30  C   UNL     1      21.984   6.781  26.834  0.00  0.00    +0.002 A 
ATOM     32  C   UNL     1      23.370   6.887  26.953  0.00  0.00    +0.020 A 
ENDBRANCH  10  18
BRANCH  14  21
ATOM      3  O   UNL     1      22.942   9.340  23.623  0.00  0.00    -0.249 OA
ATOM     21  C   UNL     1      21.745   9.094  23.551  0.00  0.00    +0.325 C 
BRANCH  21   2
ATOM      2  O   UNL     1      20.799   9.395  24.485  0.00  0.00    -0.467 OA
ATOM     33  C   UNL     1      21.233  10.255  25.543  0.00  0.00    +0.280 C 
ENDBRANCH  21   2
ENDBRANCH  14  21
BRANCH  12   6
ATOM      6  N   UNL     1      22.208   2.949  20.912  0.00  0.00    -0.312 NA
ATOM     36  H   UNL     1      22.638   3.055  19.993  0.00  0.00    +0.122 HD
BRANCH   6  22
ATOM     22  C   UNL     1      23.229   2.537  21.862  0.00  0.00    +0.100 C 
BRANCH  22  27
ATOM     27  C   UNL     1      24.163   1.518  21.226  0.00  0.00    +0.119 C 
BRANCH  27   8
ATOM      4  O   UNL     1      24.894   3.504  19.239  0.00  0.00    -0.276 OA
ATOM      8  N   UNL     1      25.465   2.080  20.991  0.00  0.00    -0.314 N 
ATOM     34  C   UNL     1      25.722   3.031  20.012  0.00  0.00    +0.210 C 
ATOM     35  C   UNL     1      27.162   3.467  19.997  0.00  0.00    +0.109 C 
ATOM     38  H   UNL     1      26.230   1.758  21.576  0.00  0.00    +0.149 HD
ENDBRANCH  27   8
ENDBRANCH  22  27
ENDBRANCH   6  22
ENDBRANCH  12   6
TORSDOF 7
ENDMDL
MODEL 7
REMARK VINA RESULT:      -6.5     28.061     30.212
REMARK  Name = 25389742
REMARK  9 active torsions:
REMARK  status: ('A' for Active; 'I' for Inactive)
REMARK    1  A    between atoms: O_2  and  C_21
REMARK    2  A    between atoms: O_2  and  C_33
REMARK    3  A    between atoms: N_6  and  C_12
REMARK    4  A    between atoms: N_6  and  C_22
REMARK    5  A    between atoms: N_8  and  C_27
REMARK    6  A    between atoms: C_10  and  C_18
REMARK    7  A    between atoms: C_14  and  C_21
REMARK    8  A    between atoms: C_22  and  C_27
REMARK    9  A    between atoms: C_34  and  C_35
REMARK                            x       y       z     vdW  Elec       q    Type
REMARK                         _______ _______ _______ _____ _____    ______ ____
ROOT
ATOM      5  N   UNL     1      18.716  -4.839  25.941  0.00  0.00    -0.274 NA
ATOM      7  N   UNL     1      17.884  -7.209  28.774  0.00  0.00    -0.356 N 
ATOM      9  C   UNL     1      19.061  -5.495  27.255  0.00  0.00    +0.106 C 
ATOM     10  C   UNL     1      17.559  -3.900  26.070  0.00  0.00    +0.090 C 
ATOM     11  C   UNL     1      19.225  -4.492  28.403  0.00  0.00    +0.044 C 
ATOM     12  C   UNL     1      17.994  -3.606  28.564  0.00  0.00    +0.057 C 
ATOM     13  C   UNL     1      17.733  -2.897  27.240  0.00  0.00    +0.042 C 
ATOM     14  C   UNL     1      18.544  -5.936  24.930  0.00  0.00    +0.172 C 
ATOM     15  C   UNL     1      18.098  -6.618  27.560  0.00  0.00    +0.038 A 
ATOM     16  C   UNL     1      17.339  -6.870  25.188  0.00  0.00    +0.068 C 
ATOM     17  C   UNL     1      17.315  -7.267  26.625  0.00  0.00    -0.016 A 
ATOM     19  C   UNL     1      16.570  -8.269  27.302  0.00  0.00    +0.003 A 
ATOM     20  C   UNL     1      16.945  -8.210  28.649  0.00  0.00    +0.047 A 
ATOM     25  C   UNL     1      15.613  -9.224  26.906  0.00  0.00    +0.010 A 
ATOM     26  C   UNL     1      16.408  -9.066  29.618  0.00  0.00    +0.026 A 
ATOM     28  C   UNL     1      15.066 -10.084  27.867  0.00  0.00    +0.001 A 
ATOM     31  C   UNL     1      15.460 -10.003  29.200  0.00  0.00    +0.002 A 
ATOM     37  H   UNL     1      18.337  -6.952  29.640  0.00  0.00    +0.166 HD
ENDROOT
BRANCH  10  18
ATOM      1 CL   UNL     1      14.364  -2.661  22.118  0.00  0.00    -0.084 Cl
ATOM     18  C   UNL     1      17.284  -3.060  24.824  0.00  0.00    -0.029 A 
ATOM     23  C   UNL     1      16.089  -3.224  24.122  0.00  0.00    +0.025 A 
ATOM     24  C   UNL     1      18.227  -2.130  24.387  0.00  0.00    +0.005 A 
ATOM     29  C   UNL     1      15.838  -2.458  22.985  0.00  0.00    +0.041 A 
ATOM     30  C   UNL     1      17.976  -1.364  23.249  0.00  0.00    +0.002 A 
ATOM     32  C   UNL     1      16.781  -1.527  22.547  0.00  0.00    +0.020 A 
ENDBRANCH  10  18
BRANCH  14  21
ATOM      3  O   UNL     1      17.602  -5.505  22.762  0.00  0.00    -0.249 OA
ATOM     21  C   UNL     1      18.543  -5.399  23.536  0.00  0.00    +0.325 C 
BRANCH  21   2
ATOM      2  O   UNL     1      19.736  -4.788  23.283  0.00  0.00    -0.467 OA
ATOM     33  C   UNL     1      20.845  -5.668  23.079  0.00  0.00    +0.280 C 
ENDBRANCH  21   2
ENDBRANCH  14  21
BRANCH  12   6
ATOM      6  N   UNL     1      18.196  -2.624  29.628  0.00  0.00    -0.312 NA
ATOM     36  H   UNL     1      18.778  -1.861  29.284  0.00  0.00    +0.122 HD
BRANCH   6  22
ATOM     22  C   UNL     1      16.924  -2.078  30.075  0.00  0.00    +0.100 C 
BRANCH  22  27
ATOM     27  C   UNL     1      16.384  -2.885  31.246  0.00  0.00    +0.119 C 
BRANCH  27   8
ATOM      4  O   UNL     1      16.634  -5.771  31.063  0.00  0.00    -0.276 OA
ATOM      8  N   UNL     1      15.383  -3.823  30.814  0.00  0.00    -0.314 N 
ATOM     34  C   UNL     1      15.594  -5.195  30.759  0.00  0.00    +0.210 C 
ATOM     35  C   UNL     1      14.375  -5.946  30.297  0.00  0.00    +0.109 C 
ATOM     38  H   UNL     1      14.479  -3.453  30.536  0.00  0.00    +0.149 HD
ENDBRANCH  27   8
ENDBRANCH  22  27
ENDBRANCH   6  22
ENDBRANCH  12   6
TORSDOF 7
ENDMDL
MODEL 8
REMARK VINA RESULT:      -6.4      7.872     10.076
REMARK  Name = 25389742
REMARK  9 active torsions:
REMARK  status: ('A' for Active; 'I' for Inactive)
REMARK    1  A    between atoms: O_2  and  C_21
REMARK    2  A    between atoms: O_2  and  C_33
REMARK    3  A    between atoms: N_6  and  C_12
REMARK    4  A    between atoms: N_6  and  C_22
REMARK    5  A    between atoms: N_8  and  C_27
REMARK    6  A    between atoms: C_10  and  C_18
REMARK    7  A    between atoms: C_14  and  C_21
REMARK    8  A    between atoms: C_22  and  C_27
REMARK    9  A    between atoms: C_34  and  C_35
REMARK                            x       y       z     vdW  Elec       q    Type
REMARK                         _______ _______ _______ _____ _____    ______ ____
ROOT
ATOM      5  N   UNL     1      -5.563 -11.580  10.175  0.00  0.00    -0.274 NA
ATOM      7  N   UNL     1      -5.772 -11.430   6.398  0.00  0.00    -0.356 N 
ATOM      9  C   UNL     1      -6.351 -11.373   8.905  0.00  0.00    +0.106 C 
ATOM     10  C   UNL     1      -4.567 -10.487  10.401  0.00  0.00    +0.090 C 
ATOM     11  C   UNL     1      -6.963  -9.971   8.800  0.00  0.00    +0.044 C 
ATOM     12  C   UNL     1      -5.909  -8.879   8.949  0.00  0.00    +0.057 C 
ATOM     13  C   UNL     1      -5.196  -9.074  10.282  0.00  0.00    +0.042 C 
ATOM     14  C   UNL     1      -4.991 -12.967  10.120  0.00  0.00    +0.172 C 
ATOM     15  C   UNL     1      -5.536 -11.775   7.699  0.00  0.00    +0.038 A 
ATOM     16  C   UNL     1      -3.940 -13.191   9.008  0.00  0.00    +0.068 C 
ATOM     17  C   UNL     1      -4.441 -12.617   7.726  0.00  0.00    -0.016 A 
ATOM     19  C   UNL     1      -3.971 -12.762   6.394  0.00  0.00    +0.003 A 
ATOM     20  C   UNL     1      -4.822 -12.007   5.581  0.00  0.00    +0.047 A 
ATOM     25  C   UNL     1      -2.905 -13.462   5.794  0.00  0.00    +0.010 A 
ATOM     26  C   UNL     1      -4.658 -11.921   4.193  0.00  0.00    +0.026 A 
ATOM     28  C   UNL     1      -2.729 -13.383   4.408  0.00  0.00    +0.001 A 
ATOM     31  C   UNL     1      -3.594 -12.624   3.623  0.00  0.00    +0.002 A 
ATOM     37  H   UNL     1      -6.523 -10.837   6.074  0.00  0.00    +0.166 HD
ENDROOT
BRANCH  10  18
ATOM      1 CL   UNL     1      -4.928 -10.439  15.619  0.00  0.00    -0.084 Cl
ATOM     18  C   UNL     1      -3.874 -10.533  11.761  0.00  0.00    -0.029 A 
ATOM     23  C   UNL     1      -4.629 -10.473  12.933  0.00  0.00    +0.025 A 
ATOM     24  C   UNL     1      -2.484 -10.635  11.831  0.00  0.00    +0.005 A 
ATOM     29  C   UNL     1      -3.995 -10.515  14.174  0.00  0.00    +0.041 A 
ATOM     30  C   UNL     1      -1.851 -10.677  13.073  0.00  0.00    +0.002 A 
ATOM     32  C   UNL     1      -2.605 -10.618  14.245  0.00  0.00    +0.020 A 
ENDBRANCH  10  18
BRANCH  14  21
ATOM      3  O   UNL     1      -5.185 -13.479  12.460  0.00  0.00    -0.249 OA
ATOM     21  C   UNL     1      -4.488 -13.404  11.457  0.00  0.00    +0.325 C 
BRANCH  21   2
ATOM      2  O   UNL     1      -3.159 -13.698  11.370  0.00  0.00    -0.467 OA
ATOM     33  C   UNL     1      -2.590 -14.315  12.528  0.00  0.00    +0.280 C 
ENDBRANCH  21   2
ENDBRANCH  14  21
BRANCH  12   6
ATOM      6  N   UNL     1      -6.525  -7.553   8.898  0.00  0.00    -0.312 NA
ATOM     36  H   UNL     1      -6.060  -6.987   8.188  0.00  0.00    +0.122 HD
BRANCH   6  22
ATOM     22  C   UNL     1      -7.938  -7.653   8.567  0.00  0.00    +0.100 C 
BRANCH  22  27
ATOM     27  C   UNL     1      -8.337  -6.539   7.611  0.00  0.00    +0.119 C 
BRANCH  27   8
ATOM      4  O   UNL     1     -11.175  -6.053   7.984  0.00  0.00    -0.276 OA
ATOM      8  N   UNL     1      -8.951  -5.445   8.312  0.00  0.00    -0.314 N 
ATOM     34  C   UNL     1     -10.326  -5.293   8.440  0.00  0.00    +0.210 C 
ATOM     35  C   UNL     1     -10.699  -4.076   9.243  0.00  0.00    +0.109 C 
ATOM     38  H   UNL     1      -8.339  -4.751   8.732  0.00  0.00    +0.149 HD
ENDBRANCH  27   8
ENDBRANCH  22  27
ENDBRANCH   6  22
ENDBRANCH  12   6
TORSDOF 7
ENDMDL
MODEL 9
REMARK VINA RESULT:      -6.4     27.483     30.734
REMARK  Name = 25389742
REMARK  9 active torsions:
REMARK  status: ('A' for Active; 'I' for Inactive)
REMARK    1  A    between atoms: O_2  and  C_21
REMARK    2  A    between atoms: O_2  and  C_33
REMARK    3  A    between atoms: N_6  and  C_12
REMARK    4  A    between atoms: N_6  and  C_22
REMARK    5  A    between atoms: N_8  and  C_27
REMARK    6  A    between atoms: C_10  and  C_18
REMARK    7  A    between atoms: C_14  and  C_21
REMARK    8  A    between atoms: C_22  and  C_27
REMARK    9  A    between atoms: C_34  and  C_35
REMARK                            x       y       z     vdW  Elec       q    Type
REMARK                         _______ _______ _______ _____ _____    ______ ____
ROOT
ATOM      5  N   UNL     1      11.343   7.951   4.650  0.00  0.00    -0.274 NA
ATOM      7  N   UNL     1      14.105   7.051   2.221  0.00  0.00    -0.356 N 
ATOM      9  C   UNL     1      12.462   8.349   3.719  0.00  0.00    +0.106 C 
ATOM     10  C   UNL     1      11.851   7.235   5.861  0.00  0.00    +0.090 C 
ATOM     11  C   UNL     1      13.597   9.097   4.429  0.00  0.00    +0.044 C 
ATOM     12  C   UNL     1      14.151   8.302   5.607  0.00  0.00    +0.057 C 
ATOM     13  C   UNL     1      13.005   7.995   6.564  0.00  0.00    +0.042 C 
ATOM     14  C   UNL     1      10.335   7.196   3.833  0.00  0.00    +0.172 C 
ATOM     15  C   UNL     1      12.927   7.164   2.906  0.00  0.00    +0.038 A 
ATOM     16  C   UNL     1      10.835   5.842   3.278  0.00  0.00    +0.068 C 
ATOM     17  C   UNL     1      12.191   6.017   2.682  0.00  0.00    -0.016 A 
ATOM     19  C   UNL     1      12.963   5.158   1.857  0.00  0.00    +0.003 A 
ATOM     20  C   UNL     1      14.160   5.830   1.583  0.00  0.00    +0.047 A 
ATOM     25  C   UNL     1      12.767   3.874   1.311  0.00  0.00    +0.010 A 
ATOM     26  C   UNL     1      15.169   5.276   0.786  0.00  0.00    +0.026 A 
ATOM     28  C   UNL     1      13.770   3.308   0.514  0.00  0.00    +0.001 A 
ATOM     31  C   UNL     1      14.951   4.001   0.258  0.00  0.00    +0.002 A 
ATOM     37  H   UNL     1      14.834   7.749   2.187  0.00  0.00    +0.166 HD
ENDROOT
BRANCH  10  18
ATOM      1 CL   UNL     1       9.415   3.861   9.031  0.00  0.00    -0.084 Cl
ATOM     18  C   UNL     1      10.793   6.976   6.933  0.00  0.00    -0.029 A 
ATOM     23  C   UNL     1      10.608   5.688   7.435  0.00  0.00    +0.025 A 
ATOM     24  C   UNL     1      10.011   8.029   7.409  0.00  0.00    +0.005 A 
ATOM     29  C   UNL     1       9.643   5.452   8.413  0.00  0.00    +0.041 A 
ATOM     30  C   UNL     1       9.045   7.792   8.387  0.00  0.00    +0.002 A 
ATOM     32  C   UNL     1       8.861   6.504   8.890  0.00  0.00    +0.020 A 
ENDBRANCH  10  18
BRANCH  14  21
ATOM      3  O   UNL     1       8.580   5.986   4.942  0.00  0.00    -0.249 OA
ATOM     21  C   UNL     1       9.038   7.054   4.560  0.00  0.00    +0.325 C 
BRANCH  21   2
ATOM      2  O   UNL     1       8.470   8.283   4.723  0.00  0.00    -0.467 OA
ATOM     33  C   UNL     1       7.738   8.774   3.596  0.00  0.00    +0.280 C 
ENDBRANCH  21   2
ENDBRANCH  14  21
BRANCH  12   6
ATOM      6  N   UNL     1      15.194   9.058   6.299  0.00  0.00    -0.312 NA
ATOM     36  H   UNL     1      16.098   8.609   6.151  0.00  0.00    +0.122 HD
BRANCH   6  22
ATOM     22  C   UNL     1      15.261  10.422   5.798  0.00  0.00    +0.100 C 
BRANCH  22  27
ATOM     27  C   UNL     1      15.222  11.412   6.953  0.00  0.00    +0.119 C 
BRANCH  27   8
ATOM      4  O   UNL     1      12.458  12.128   6.430  0.00  0.00    -0.276 OA
ATOM      8  N   UNL     1      14.084  11.179   7.800  0.00  0.00    -0.314 N 
ATOM     34  C   UNL     1      12.790  11.559   7.466  0.00  0.00    +0.210 C 
ATOM     35  C   UNL     1      11.786  11.174   8.518  0.00  0.00    +0.109 C 
ATOM     38  H   UNL     1      14.245  10.713   8.688  0.00  0.00    +0.149 HD
ENDBRANCH  27   8
ENDBRANCH  22  27
ENDBRANCH   6  22
ENDBRANCH  12   6
TORSDOF 7
ENDMDL
MODEL 10
REMARK VINA RESULT:      -6.4      3.926      7.688
REMARK  Name = 25389742
REMARK  9 active torsions:
REMARK  status: ('A' for Active; 'I' for Inactive)
REMARK    1  A    between atoms: O_2  and  C_21
REMARK    2  A    between atoms: O_2  and  C_33
REMARK    3  A    between atoms: N_6  and  C_12
REMARK    4  A    between atoms: N_6  and  C_22
REMARK    5  A    between atoms: N_8  and  C_27
REMARK    6  A    between atoms: C_10  and  C_18
REMARK    7  A    between atoms: C_14  and  C_21
REMARK    8  A    between atoms: C_22  and  C_27
REMARK    9  A    between atoms: C_34  and  C_35
REMARK                            x       y       z     vdW  Elec       q    Type
REMARK                         _______ _______ _______ _____ _____    ______ ____
ROOT
ATOM      5  N   UNL     1      -6.340 -10.842  17.035  0.00  0.00    -0.274 NA
ATOM      7  N   UNL     1      -3.314 -11.186  14.785  0.00  0.00    -0.356 N 
ATOM      9  C   UNL     1      -4.848 -10.959  16.840  0.00  0.00    +0.106 C 
ATOM     10  C   UNL     1      -7.053 -12.105  16.668  0.00  0.00    +0.090 C 
ATOM     11  C   UNL     1      -4.250 -12.204  17.506  0.00  0.00    +0.044 C 
ATOM     12  C   UNL     1      -4.943 -13.482  17.045  0.00  0.00    +0.057 C 
ATOM     13  C   UNL     1      -6.434 -13.357  17.339  0.00  0.00    +0.042 C 
ATOM     14  C   UNL     1      -6.788  -9.613  16.299  0.00  0.00    +0.172 C 
ATOM     15  C   UNL     1      -4.488 -10.816  15.381  0.00  0.00    +0.038 A 
ATOM     16  C   UNL     1      -6.635  -9.688  14.762  0.00  0.00    +0.068 C 
ATOM     17  C   UNL     1      -5.286 -10.224  14.421  0.00  0.00    -0.016 A 
ATOM     19  C   UNL     1      -4.586 -10.267  13.186  0.00  0.00    +0.003 A 
ATOM     20  C   UNL     1      -3.353 -10.876  13.442  0.00  0.00    +0.047 A 
ATOM     25  C   UNL     1      -4.875  -9.846  11.872  0.00  0.00    +0.010 A 
ATOM     26  C   UNL     1      -2.393 -11.082  12.444  0.00  0.00    +0.026 A 
ATOM     28  C   UNL     1      -3.924 -10.050  10.865  0.00  0.00    +0.001 A 
ATOM     31  C   UNL     1      -2.704 -10.658  11.149  0.00  0.00    +0.002 A 
ATOM     37  H   UNL     1      -2.533 -11.627  15.250  0.00  0.00    +0.166 HD
ENDROOT
BRANCH  10  18
ATOM      1 CL   UNL     1     -10.784 -12.037  20.333  0.00  0.00    -0.084 Cl
ATOM     18  C   UNL     1      -8.539 -12.119  17.023  0.00  0.00    -0.029 A 
ATOM     23  C   UNL     1      -8.937 -12.076  18.359  0.00  0.00    +0.025 A 
ATOM     24  C   UNL     1      -9.497 -12.175  16.011  0.00  0.00    +0.005 A 
ATOM     29  C   UNL     1     -10.293 -12.089  18.684  0.00  0.00    +0.041 A 
ATOM     30  C   UNL     1     -10.854 -12.189  16.336  0.00  0.00    +0.002 A 
ATOM     32  C   UNL     1     -11.253 -12.145  17.672  0.00  0.00    +0.020 A 
ENDBRANCH  10  18
BRANCH  14  21
ATOM      3  O   UNL     1      -8.511  -9.000  17.857  0.00  0.00    -0.249 OA
ATOM     21  C   UNL     1      -8.168  -9.208  16.701  0.00  0.00    +0.325 C 
BRANCH  21   2
ATOM      2  O   UNL     1      -8.956  -9.111  15.593  0.00  0.00    -0.467 OA
ATOM     33  C   UNL     1     -10.109  -8.276  15.731  0.00  0.00    +0.280 C 
ENDBRANCH  21   2
ENDBRANCH  14  21
BRANCH  12   6
ATOM      6  N   UNL     1      -4.391 -14.649  17.733  0.00  0.00    -0.312 NA
ATOM     36  H   UNL     1      -4.806 -14.726  18.662  0.00  0.00    +0.122 HD
BRANCH   6  22
ATOM     22  C   UNL     1      -4.675 -15.868  16.991  0.00  0.00    +0.100 C 
BRANCH  22  27
ATOM     27  C   UNL     1      -3.566 -16.145  15.987  0.00  0.00    +0.119 C 
BRANCH  27   8
ATOM      4  O   UNL     1      -2.331 -14.088  14.351  0.00  0.00    -0.276 OA
ATOM      8  N   UNL     1      -3.949 -15.735  14.663  0.00  0.00    -0.314 N 
ATOM     34  C   UNL     1      -3.296 -14.735  13.953  0.00  0.00    +0.210 C 
ATOM     35  C   UNL     1      -3.884 -14.523  12.584  0.00  0.00    +0.109 C 
ATOM     38  H   UNL     1      -4.740 -16.205  14.234  0.00  0.00    +0.149 HD
ENDBRANCH  27   8
ENDBRANCH  22  27
ENDBRANCH   6  22
ENDBRANCH  12   6
TORSDOF 7
ENDMDL
