REMARK  Name = 7134448
REMARK  14 active torsions:
REMARK  status: ('A' for Active; 'I' for Inactive)
REMARK    1  A    between atoms: O_2  and  C_20
REMARK    2  A    between atoms: O_4  and  C_22
REMARK    3  A    between atoms: O_5  and  C_23
REMARK    4  A    between atoms: O_8  and  C_36
REMARK    5  A    between atoms: N_9  and  C_21
REMARK    6  A    between atoms: N_10  and  C_28
REMARK    7  A    between atoms: C_12  and  C_17
REMARK    8  A    between atoms: C_12  and  C_18
REMARK    9  A    between atoms: C_17  and  C_19
REMARK   10  A    between atoms: C_18  and  C_20
REMARK   11  A    between atoms: C_26  and  C_27
REMARK   12  A    between atoms: C_28  and  C_29
REMARK   13  A    between atoms: C_28  and  C_30
REMARK   14  A    between atoms: C_29  and  C_31
REMARK                            x       y       z     vdW  Elec       q    Type
REMARK                         _______ _______ _______ _____ _____    ______ ____
ROOT
ATOM     21  C   UNL     1       0.814  -2.339  -0.001  0.00  0.00    +0.127 C 
ATOM     22  C   UNL     1       0.832  -3.791   0.514  0.00  0.00    +0.167 C 
ATOM     23  C   UNL     1      -0.469  -4.526   0.170  0.00  0.00    +0.149 C 
ATOM     24  C   UNL     1      -0.488  -1.631   0.261  0.00  0.00    +0.006 C 
ATOM     25  C   UNL     1      -1.709  -3.787   0.703  0.00  0.00    +0.074 C 
ATOM     26  C   UNL     1      -1.610  -2.293   0.584  0.00  0.00    +0.015 C 
ENDROOT
BRANCH  21   9
ATOM      1  O   UNL     1       3.493  -2.030  -1.051  0.00  0.00    -0.276 OA
ATOM      9  N   UNL     1       1.889  -1.560   0.565  0.00  0.00    -0.306 N 
ATOM     19  C   UNL     1       3.149  -1.471  -0.013  0.00  0.00    +0.214 C 
ATOM     37  H   UNL     1       1.722  -1.104   1.457  0.00  0.00    +0.149 HD
BRANCH  19  17
ATOM     17  C   UNL     1       4.074  -0.582   0.797  0.00  0.00    +0.103 C 
BRANCH  17  12
ATOM     12  C   UNL     1       4.036   0.878   0.341  0.00  0.00    -0.011 C 
ATOM     13  C   UNL     1       2.627   1.474   0.469  0.00  0.00    +0.008 C 
ATOM     14  C   UNL     1       4.843   1.785   1.280  0.00  0.00    +0.008 C 
ATOM     15  C   UNL     1       2.841   2.983   0.556  0.00  0.00    +0.001 C 
ATOM     16  C   UNL     1       4.264   3.183   1.076  0.00  0.00    +0.001 C 
BRANCH  12  18
ATOM     18  C   UNL     1       4.552   0.970  -1.104  0.00  0.00    +0.127 C 
BRANCH  18  20
ATOM      3  O   UNL     1       6.938   0.759  -0.649  0.00  0.00    -0.251 OA
ATOM     20  C   UNL     1       5.929   0.388  -1.230  0.00  0.00    +0.305 C 
BRANCH  20   2
ATOM      2  O   UNL     1       5.902  -0.646  -2.110  0.00  0.00    -0.481 OA
ATOM     38  H   UNL     1       6.787  -1.056  -2.219  0.00  0.00    +0.295 HD
ENDBRANCH  20   2
ENDBRANCH  18  20
ENDBRANCH  12  18
ENDBRANCH  17  12
ENDBRANCH  19  17
ENDBRANCH  21   9
BRANCH  26  27
ATOM      6  O   UNL     1      -3.402  -1.531   1.898  0.00  0.00    -0.271 OA
ATOM     10  N   UNL     1      -3.199  -0.758  -0.292  0.00  0.00    -0.300 N 
ATOM     27  C   UNL     1      -2.821  -1.500   0.814  0.00  0.00    +0.241 C 
ATOM     41  H   UNL     1      -2.681  -0.863  -1.160  0.00  0.00    +0.150 HD
BRANCH  10  28
ATOM     28  C   UNL     1      -4.362   0.099  -0.307  0.00  0.00    +0.163 C 
BRANCH  28  30
ATOM      7  O   UNL     1      -5.485  -1.699  -1.495  0.00  0.00    -0.274 OA
ATOM     11  N   UNL     1      -6.705  -0.424  -0.024  0.00  0.00    -0.328 N 
ATOM     30  C   UNL     1      -5.551  -0.766  -0.698  0.00  0.00    +0.231 C 
ATOM     42  H   UNL     1      -6.745   0.348   0.634  0.00  0.00    +0.145 HD
ATOM     43  H   UNL     1      -7.569  -0.933  -0.181  0.00  0.00    +0.145 HD
ENDBRANCH  28  30
BRANCH  28  29
ATOM     29  C   UNL     1      -4.208   1.268  -1.286  0.00  0.00    +0.067 C 
BRANCH  29  31
ATOM     31  C   UNL     1      -3.368   2.391  -0.727  0.00  0.00    -0.045 A 
ATOM     32  C   UNL     1      -3.971   3.425  -0.011  0.00  0.00    +0.007 A 
ATOM     33  C   UNL     1      -1.987   2.394  -0.927  0.00  0.00    +0.007 A 
ATOM     34  C   UNL     1      -3.194   4.462   0.505  0.00  0.00    +0.045 A 
ATOM     35  C   UNL     1      -1.210   3.431  -0.411  0.00  0.00    +0.045 A 
ATOM     36  C   UNL     1      -1.813   4.465   0.305  0.00  0.00    +0.117 A 
BRANCH  36   8
ATOM      8  O   UNL     1      -1.055   5.476   0.809  0.00  0.00    -0.507 OA
ATOM     44  H   UNL     1      -0.124   5.316   0.580  0.00  0.00    +0.292 HD
ENDBRANCH  36   8
ENDBRANCH  29  31
ENDBRANCH  28  29
ENDBRANCH  10  28
ENDBRANCH  26  27
BRANCH  22   4
ATOM      4  O   UNL     1       1.001  -3.795   1.933  0.00  0.00    -0.387 OA
ATOM     39  H   UNL     1       1.038  -4.723   2.220  0.00  0.00    +0.210 HD
ENDBRANCH  22   4
BRANCH  23   5
ATOM      5  O   UNL     1      -0.575  -4.703  -1.241  0.00  0.00    -0.389 OA
ATOM     40  H   UNL     1      -1.387  -5.209  -1.414  0.00  0.00    +0.210 HD
ENDBRANCH  23   5
TORSDOF 14
