MODEL 1
REMARK VINA RESULT:      -6.2      0.000      0.000
REMARK  Name = 40777419
REMARK  8 active torsions:
REMARK  status: ('A' for Active; 'I' for Inactive)
REMARK    1  A    between atoms: O_3  and  C_29
REMARK    2  A    between atoms: O_3  and  C_30
REMARK    3  A    between atoms: N_5  and  C_14
REMARK    4  A    between atoms: C_7  and  C_11
REMARK    5  A    between atoms: C_8  and  C_13
REMARK    6  A    between atoms: C_11  and  C_17
REMARK    7  A    between atoms: C_13  and  C_21
REMARK    8  A    between atoms: C_23  and  C_24
REMARK                            x       y       z     vdW  Elec       q    Type
REMARK                         _______ _______ _______ _____ _____    ______ ____
ROOT
ATOM      4  N   UNL     1      -5.315  -8.504   8.765  0.00  0.00    -0.316 NA
ATOM      7  C   UNL     1      -4.981 -11.180   9.963  0.00  0.00    +0.004 C 
ATOM      8  C   UNL     1      -4.211  -9.936  10.466  0.00  0.00    +0.012 C 
ATOM      9  C   UNL     1      -6.277 -10.723   9.272  0.00  0.00    +0.019 C 
ATOM     10  C   UNL     1      -4.032  -8.889   9.353  0.00  0.00    +0.085 C 
ATOM     12  C   UNL     1      -6.025  -9.654   8.209  0.00  0.00    +0.081 C 
ATOM     31  H   UNL     1      -5.155  -7.818   8.028  0.00  0.00    +0.122 HD
ENDROOT
BRANCH   7  11
ATOM     11  C   UNL     1      -4.162 -12.088   9.039  0.00  0.00    +0.099 C 
BRANCH  11  17
ATOM      1  O   UNL     1      -4.514 -14.476   8.873  0.00  0.00    -0.276 OA
ATOM      5  N   UNL     1      -3.584 -13.592  10.811  0.00  0.00    -0.312 N 
ATOM     17  C   UNL     1      -4.119 -13.519   9.533  0.00  0.00    +0.214 C 
ATOM     32  H   UNL     1      -3.225 -12.747  11.245  0.00  0.00    +0.149 HD
BRANCH   5  14
ATOM     14  C   UNL     1      -3.426 -14.837  11.530  0.00  0.00    +0.073 C 
ATOM     15  C   UNL     1      -2.074 -14.889  12.249  0.00  0.00    +0.022 C 
ATOM     16  C   UNL     1      -4.585 -15.059  12.509  0.00  0.00    +0.022 C 
ATOM     18  C   UNL     1      -2.016 -13.949  13.455  0.00  0.00    +0.002 C 
ATOM     19  C   UNL     1      -4.522 -14.119  13.712  0.00  0.00    +0.002 C 
ATOM     20  C   UNL     1      -3.173 -14.197  14.418  0.00  0.00    +0.000 C 
ENDBRANCH   5  14
ENDBRANCH  11  17
ENDBRANCH   7  11
BRANCH   8  13
ATOM     13  C   UNL     1      -2.863 -10.282  11.100  0.00  0.00    +0.064 C 
BRANCH  13  21
ATOM      2  O   UNL     1      -2.323 -10.484  14.654  0.00  0.00    -0.354 OA
ATOM      6  N   UNL     1      -1.868 -10.365  13.347  0.00  0.00    -0.083 NA
ATOM     21  C   UNL     1      -2.973 -10.390  12.594  0.00  0.00    +0.085 A 
ATOM     22  C   UNL     1      -4.141 -10.523  13.364  0.00  0.00    +0.076 A 
ATOM     23  C   UNL     1      -3.677 -10.578  14.652  0.00  0.00    +0.167 A 
BRANCH  23  24
ATOM     24  C   UNL     1      -4.293 -10.708  15.941  0.00  0.00    +0.020 A 
ATOM     25  C   UNL     1      -3.604 -11.329  16.983  0.00  0.00    +0.015 A 
ATOM     26  C   UNL     1      -5.579 -10.213  16.153  0.00  0.00    +0.015 A 
ATOM     27  C   UNL     1      -4.201 -11.456  18.237  0.00  0.00    +0.046 A 
ATOM     28  C   UNL     1      -6.177 -10.340  17.406  0.00  0.00    +0.046 A 
ATOM     29  C   UNL     1      -5.489 -10.961  18.448  0.00  0.00    +0.120 A 
BRANCH  29   3
ATOM      3  O   UNL     1      -6.071 -11.082  19.673  0.00  0.00    -0.495 OA
ATOM     30  C   UNL     1      -7.232 -11.906  19.762  0.00  0.00    +0.277 C 
ENDBRANCH  29   3
ENDBRANCH  23  24
ENDBRANCH  13  21
ENDBRANCH   8  13
TORSDOF 7
ENDMDL
MODEL 2
REMARK VINA RESULT:      -6.1      1.477      2.127
REMARK  Name = 40777419
REMARK  8 active torsions:
REMARK  status: ('A' for Active; 'I' for Inactive)
REMARK    1  A    between atoms: O_3  and  C_29
REMARK    2  A    between atoms: O_3  and  C_30
REMARK    3  A    between atoms: N_5  and  C_14
REMARK    4  A    between atoms: C_7  and  C_11
REMARK    5  A    between atoms: C_8  and  C_13
REMARK    6  A    between atoms: C_11  and  C_17
REMARK    7  A    between atoms: C_13  and  C_21
REMARK    8  A    between atoms: C_23  and  C_24
REMARK                            x       y       z     vdW  Elec       q    Type
REMARK                         _______ _______ _______ _____ _____    ______ ____
ROOT
ATOM      4  N   UNL     1      -3.605  -8.935   9.691  0.00  0.00    -0.316 NA
ATOM      7  C   UNL     1      -4.134 -11.374  11.263  0.00  0.00    +0.004 C 
ATOM      8  C   UNL     1      -3.257 -10.213  11.791  0.00  0.00    +0.012 C 
ATOM      9  C   UNL     1      -5.105 -10.830  10.203  0.00  0.00    +0.019 C 
ATOM     10  C   UNL     1      -2.606  -9.426  10.641  0.00  0.00    +0.085 C 
ATOM     12  C   UNL     1      -4.391 -10.025   9.117  0.00  0.00    +0.081 C 
ATOM     31  H   UNL     1      -3.136  -8.428   8.941  0.00  0.00    +0.122 HD
ENDROOT
BRANCH   7  11
ATOM     11  C   UNL     1      -3.333 -12.559  10.712  0.00  0.00    +0.099 C 
BRANCH  11  17
ATOM      1  O   UNL     1      -3.633 -14.959  10.658  0.00  0.00    -0.276 OA
ATOM      5  N   UNL     1      -4.601 -13.726  12.375  0.00  0.00    -0.312 N 
ATOM     17  C   UNL     1      -3.853 -13.888  11.217  0.00  0.00    +0.214 C 
ATOM     32  H   UNL     1      -4.667 -12.804  12.795  0.00  0.00    +0.149 HD
BRANCH   5  14
ATOM     14  C   UNL     1      -5.221 -14.830  13.074  0.00  0.00    +0.073 C 
ATOM     15  C   UNL     1      -4.340 -15.315  14.228  0.00  0.00    +0.022 C 
ATOM     16  C   UNL     1      -6.623 -14.451  13.566  0.00  0.00    +0.022 C 
ATOM     18  C   UNL     1      -4.307 -14.327  15.396  0.00  0.00    +0.002 C 
ATOM     19  C   UNL     1      -6.586 -13.465  14.733  0.00  0.00    +0.002 C 
ATOM     20  C   UNL     1      -5.712 -13.975  15.874  0.00  0.00    +0.000 C 
ENDBRANCH   5  14
ENDBRANCH  11  17
ENDBRANCH   7  11
BRANCH   8  13
ATOM     13  C   UNL     1      -2.200 -10.669  12.796  0.00  0.00    +0.064 C 
BRANCH  13  21
ATOM      2  O   UNL     1      -2.719 -10.666  16.359  0.00  0.00    -0.354 OA
ATOM      6  N   UNL     1      -1.901 -10.661  15.237  0.00  0.00    -0.083 NA
ATOM     21  C   UNL     1      -2.742 -10.672  14.197  0.00  0.00    +0.085 A 
ATOM     22  C   UNL     1      -4.088 -10.685  14.599  0.00  0.00    +0.076 A 
ATOM     23  C   UNL     1      -4.020 -10.681  15.967  0.00  0.00    +0.167 A 
BRANCH  23  24
ATOM     24  C   UNL     1      -4.987 -10.688  17.026  0.00  0.00    +0.020 A 
ATOM     25  C   UNL     1      -6.261 -10.164  16.810  0.00  0.00    +0.015 A 
ATOM     26  C   UNL     1      -4.654 -11.220  18.271  0.00  0.00    +0.015 A 
ATOM     27  C   UNL     1      -7.203 -10.171  17.838  0.00  0.00    +0.046 A 
ATOM     28  C   UNL     1      -5.596 -11.227  19.301  0.00  0.00    +0.046 A 
ATOM     29  C   UNL     1      -6.869 -10.702  19.085  0.00  0.00    +0.120 A 
BRANCH  29   3
ATOM      3  O   UNL     1      -7.789 -10.713  20.087  0.00  0.00    -0.495 OA
ATOM     30  C   UNL     1      -9.131 -11.046  19.735  0.00  0.00    +0.277 C 
ENDBRANCH  29   3
ENDBRANCH  23  24
ENDBRANCH  13  21
ENDBRANCH   8  13
TORSDOF 7
ENDMDL
MODEL 3
REMARK VINA RESULT:      -5.7     28.001     29.966
REMARK  Name = 40777419
REMARK  8 active torsions:
REMARK  status: ('A' for Active; 'I' for Inactive)
REMARK    1  A    between atoms: O_3  and  C_29
REMARK    2  A    between atoms: O_3  and  C_30
REMARK    3  A    between atoms: N_5  and  C_14
REMARK    4  A    between atoms: C_7  and  C_11
REMARK    5  A    between atoms: C_8  and  C_13
REMARK    6  A    between atoms: C_11  and  C_17
REMARK    7  A    between atoms: C_13  and  C_21
REMARK    8  A    between atoms: C_23  and  C_24
REMARK                            x       y       z     vdW  Elec       q    Type
REMARK                         _______ _______ _______ _____ _____    ______ ____
ROOT
ATOM      4  N   UNL     1      18.136  12.360  13.504  0.00  0.00    -0.316 NA
ATOM      7  C   UNL     1      16.588  12.350  16.016  0.00  0.00    +0.004 C 
ATOM      8  C   UNL     1      16.153  11.554  14.762  0.00  0.00    +0.012 C 
ATOM      9  C   UNL     1      18.108  12.577  15.964  0.00  0.00    +0.019 C 
ATOM     10  C   UNL     1      16.682  12.196  13.469  0.00  0.00    +0.085 C 
ATOM     12  C   UNL     1      18.564  13.179  14.636  0.00  0.00    +0.081 C 
ATOM     31  H   UNL     1      18.447  12.796  12.636  0.00  0.00    +0.122 HD
ENDROOT
BRANCH   7  11
ATOM     11  C   UNL     1      15.844  13.678  16.199  0.00  0.00    +0.099 C 
BRANCH  11  17
ATOM      1  O   UNL     1      16.051  15.254  18.022  0.00  0.00    -0.276 OA
ATOM      5  N   UNL     1      15.432  13.060  18.475  0.00  0.00    -0.312 N 
ATOM     17  C   UNL     1      15.796  14.113  17.648  0.00  0.00    +0.214 C 
ATOM     32  H   UNL     1      15.175  12.171  18.058  0.00  0.00    +0.149 HD
BRANCH   5  14
ATOM     14  C   UNL     1      15.308  13.191  19.911  0.00  0.00    +0.073 C 
ATOM     15  C   UNL     1      13.838  13.294  20.329  0.00  0.00    +0.022 C 
ATOM     16  C   UNL     1      16.011  12.034  20.631  0.00  0.00    +0.022 C 
ATOM     18  C   UNL     1      13.092  11.967  20.180  0.00  0.00    +0.002 C 
ATOM     19  C   UNL     1      15.262  10.711  20.481  0.00  0.00    +0.002 C 
ATOM     20  C   UNL     1      13.805  10.836  20.914  0.00  0.00    +0.000 C 
ENDBRANCH   5  14
ENDBRANCH  11  17
ENDBRANCH   7  11
BRANCH   8  13
ATOM     13  C   UNL     1      14.640  11.346  14.679  0.00  0.00    +0.064 C 
BRANCH  13  21
ATOM      2  O   UNL     1      13.756   8.215  16.222  0.00  0.00    -0.354 OA
ATOM      6  N   UNL     1      14.233   8.969  15.157  0.00  0.00    -0.083 NA
ATOM     21  C   UNL     1      14.190  10.235  15.584  0.00  0.00    +0.085 A 
ATOM     22  C   UNL     1      13.700  10.339  16.897  0.00  0.00    +0.076 A 
ATOM     23  C   UNL     1      13.442   9.042  17.253  0.00  0.00    +0.167 A 
BRANCH  23  24
ATOM     24  C   UNL     1      12.933   8.401  18.430  0.00  0.00    +0.020 A 
ATOM     25  C   UNL     1      13.721   7.476  19.116  0.00  0.00    +0.015 A 
ATOM     26  C   UNL     1      11.651   8.701  18.889  0.00  0.00    +0.015 A 
ATOM     27  C   UNL     1      13.226   6.852  20.261  0.00  0.00    +0.046 A 
ATOM     28  C   UNL     1      11.156   8.077  20.034  0.00  0.00    +0.046 A 
ATOM     29  C   UNL     1      11.943   7.153  20.720  0.00  0.00    +0.120 A 
BRANCH  29   3
ATOM      3  O   UNL     1      11.462   6.547  21.840  0.00  0.00    -0.495 OA
ATOM     30  C   UNL     1      10.918   5.236  21.687  0.00  0.00    +0.277 C 
ENDBRANCH  29   3
ENDBRANCH  23  24
ENDBRANCH  13  21
ENDBRANCH   8  13
TORSDOF 7
ENDMDL
MODEL 4
REMARK VINA RESULT:      -5.7     28.114     30.248
REMARK  Name = 40777419
REMARK  8 active torsions:
REMARK  status: ('A' for Active; 'I' for Inactive)
REMARK    1  A    between atoms: O_3  and  C_29
REMARK    2  A    between atoms: O_3  and  C_30
REMARK    3  A    between atoms: N_5  and  C_14
REMARK    4  A    between atoms: C_7  and  C_11
REMARK    5  A    between atoms: C_8  and  C_13
REMARK    6  A    between atoms: C_11  and  C_17
REMARK    7  A    between atoms: C_13  and  C_21
REMARK    8  A    between atoms: C_23  and  C_24
REMARK                            x       y       z     vdW  Elec       q    Type
REMARK                         _______ _______ _______ _____ _____    ______ ____
ROOT
ATOM      4  N   UNL     1      13.014   7.008  21.579  0.00  0.00    -0.316 NA
ATOM      7  C   UNL     1      14.154   7.454  18.894  0.00  0.00    +0.004 C 
ATOM      8  C   UNL     1      15.032   7.257  20.154  0.00  0.00    +0.012 C 
ATOM      9  C   UNL     1      12.785   6.795  19.128  0.00  0.00    +0.019 C 
ATOM     10  C   UNL     1      14.297   7.695  21.432  0.00  0.00    +0.085 C 
ATOM     12  C   UNL     1      12.136   7.247  20.436  0.00  0.00    +0.081 C 
ATOM     31  H   UNL     1      12.554   7.330  22.430  0.00  0.00    +0.122 HD
ENDROOT
BRANCH   7  11
ATOM     11  C   UNL     1      13.990   8.918  18.472  0.00  0.00    +0.099 C 
BRANCH  11  17
ATOM      1  O   UNL     1      13.511   8.260  16.194  0.00  0.00    -0.276 OA
ATOM      5  N   UNL     1      14.599  10.275  16.595  0.00  0.00    -0.312 N 
ATOM     17  C   UNL     1      13.990   9.084  16.968  0.00  0.00    +0.214 C 
ATOM     32  H   UNL     1      14.903  10.921  17.317  0.00  0.00    +0.149 HD
BRANCH   5  14
ATOM     14  C   UNL     1      14.741  10.692  15.217  0.00  0.00    +0.073 C 
ATOM     15  C   UNL     1      13.784  11.842  14.889  0.00  0.00    +0.022 C 
ATOM     16  C   UNL     1      16.193  11.069  14.904  0.00  0.00    +0.022 C 
ATOM     18  C   UNL     1      14.205  13.158  15.544  0.00  0.00    +0.002 C 
ATOM     19  C   UNL     1      16.609  12.386  15.558  0.00  0.00    +0.002 C 
ATOM     20  C   UNL     1      15.649  13.517  15.208  0.00  0.00    +0.000 C 
ENDBRANCH   5  14
ENDBRANCH  11  17
ENDBRANCH   7  11
BRANCH   8  13
ATOM     13  C   UNL     1      16.392   7.950  20.051  0.00  0.00    +0.064 C 
BRANCH  13  21
ATOM      2  O   UNL     1      18.639   5.167  19.638  0.00  0.00    -0.354 OA
ATOM      6  N   UNL     1      17.462   5.849  19.355  0.00  0.00    -0.083 NA
ATOM     21  C   UNL     1      17.516   6.956  20.102  0.00  0.00    +0.085 A 
ATOM     22  C   UNL     1      18.692   7.025  20.869  0.00  0.00    +0.076 A 
ATOM     23  C   UNL     1      19.363   5.877  20.541  0.00  0.00    +0.167 A 
BRANCH  23  24
ATOM     24  C   UNL     1      20.613   5.292  20.932  0.00  0.00    +0.020 A 
ATOM     25  C   UNL     1      21.634   6.100  21.433  0.00  0.00    +0.015 A 
ATOM     26  C   UNL     1      20.807   3.916  20.811  0.00  0.00    +0.015 A 
ATOM     27  C   UNL     1      22.850   5.532  21.813  0.00  0.00    +0.046 A 
ATOM     28  C   UNL     1      22.023   3.348  21.191  0.00  0.00    +0.046 A 
ATOM     29  C   UNL     1      23.044   4.155  21.692  0.00  0.00    +0.120 A 
BRANCH  29   3
ATOM      3  O   UNL     1      24.229   3.601  22.066  0.00  0.00    -0.495 OA
ATOM     30  C   UNL     1      24.434   3.385  23.462  0.00  0.00    +0.277 C 
ENDBRANCH  29   3
ENDBRANCH  23  24
ENDBRANCH  13  21
ENDBRANCH   8  13
TORSDOF 7
ENDMDL
MODEL 5
REMARK VINA RESULT:      -5.7     24.894     26.674
REMARK  Name = 40777419
REMARK  8 active torsions:
REMARK  status: ('A' for Active; 'I' for Inactive)
REMARK    1  A    between atoms: O_3  and  C_29
REMARK    2  A    between atoms: O_3  and  C_30
REMARK    3  A    between atoms: N_5  and  C_14
REMARK    4  A    between atoms: C_7  and  C_11
REMARK    5  A    between atoms: C_8  and  C_13
REMARK    6  A    between atoms: C_11  and  C_17
REMARK    7  A    between atoms: C_13  and  C_21
REMARK    8  A    between atoms: C_23  and  C_24
REMARK                            x       y       z     vdW  Elec       q    Type
REMARK                         _______ _______ _______ _____ _____    ______ ____
ROOT
ATOM      4  N   UNL     1      15.757   4.016   1.108  0.00  0.00    -0.316 NA
ATOM      7  C   UNL     1      13.146   4.235  -0.249  0.00  0.00    +0.004 C 
ATOM      8  C   UNL     1      13.284   4.145   1.290  0.00  0.00    +0.012 C 
ATOM      9  C   UNL     1      14.451   4.796  -0.838  0.00  0.00    +0.019 C 
ATOM     10  C   UNL     1      14.568   3.405   1.703  0.00  0.00    +0.085 C 
ATOM     12  C   UNL     1      15.685   4.037  -0.351  0.00  0.00    +0.081 C 
ATOM     31  H   UNL     1      16.584   3.494   1.397  0.00  0.00    +0.122 HD
ENDROOT
BRANCH   7  11
ATOM     11  C   UNL     1      12.771   2.909  -0.919  0.00  0.00    +0.099 C 
BRANCH  11  17
ATOM      1  O   UNL     1      11.362   2.215  -2.759  0.00  0.00    -0.276 OA
ATOM      5  N   UNL     1      11.037   4.307  -1.799  0.00  0.00    -0.312 N 
ATOM     17  C   UNL     1      11.659   3.073  -1.933  0.00  0.00    +0.214 C 
ATOM     32  H   UNL     1      11.314   4.919  -1.037  0.00  0.00    +0.149 HD
BRANCH   5  14
ATOM     14  C   UNL     1       9.940   4.733  -2.640  0.00  0.00    +0.073 C 
ATOM     15  C   UNL     1       8.954   5.606  -1.857  0.00  0.00    +0.022 C 
ATOM     16  C   UNL     1      10.454   5.457  -3.889  0.00  0.00    +0.022 C 
ATOM     18  C   UNL     1       9.521   6.991  -1.544  0.00  0.00    +0.002 C 
ATOM     19  C   UNL     1      11.017   6.842  -3.572  0.00  0.00    +0.002 C 
ATOM     20  C   UNL     1      10.014   7.696  -2.804  0.00  0.00    +0.000 C 
ENDBRANCH   5  14
ENDBRANCH  11  17
ENDBRANCH   7  11
BRANCH   8  13
ATOM     13  C   UNL     1      12.063   3.521   1.966  0.00  0.00    +0.064 C 
BRANCH  13  21
ATOM      2  O   UNL     1      10.032   5.639   4.053  0.00  0.00    -0.354 OA
ATOM      6  N   UNL     1      10.866   4.547   3.853  0.00  0.00    -0.083 NA
ATOM     21  C   UNL     1      11.164   4.573   2.550  0.00  0.00    +0.085 A 
ATOM     22  C   UNL     1      10.551   5.648   1.884  0.00  0.00    +0.076 A 
ATOM     23  C   UNL     1       9.851   6.288   2.874  0.00  0.00    +0.167 A 
BRANCH  23  24
ATOM     24  C   UNL     1       9.006   7.445   2.924  0.00  0.00    +0.020 A 
ATOM     25  C   UNL     1       8.335   7.767   4.105  0.00  0.00    +0.015 A 
ATOM     26  C   UNL     1       8.854   8.248   1.795  0.00  0.00    +0.015 A 
ATOM     27  C   UNL     1       7.513   8.892   4.155  0.00  0.00    +0.046 A 
ATOM     28  C   UNL     1       8.032   9.374   1.845  0.00  0.00    +0.046 A 
ATOM     29  C   UNL     1       7.361   9.696   3.024  0.00  0.00    +0.120 A 
BRANCH  29   3
ATOM      3  O   UNL     1       6.561  10.796   3.074  0.00  0.00    -0.495 OA
ATOM     30  C   UNL     1       5.179  10.582   3.357  0.00  0.00    +0.277 C 
ENDBRANCH  29   3
ENDBRANCH  23  24
ENDBRANCH  13  21
ENDBRANCH   8  13
TORSDOF 7
ENDMDL
MODEL 6
REMARK VINA RESULT:      -5.6      2.572      7.632
REMARK  Name = 40777419
REMARK  8 active torsions:
REMARK  status: ('A' for Active; 'I' for Inactive)
REMARK    1  A    between atoms: O_3  and  C_29
REMARK    2  A    between atoms: O_3  and  C_30
REMARK    3  A    between atoms: N_5  and  C_14
REMARK    4  A    between atoms: C_7  and  C_11
REMARK    5  A    between atoms: C_8  and  C_13
REMARK    6  A    between atoms: C_11  and  C_17
REMARK    7  A    between atoms: C_13  and  C_21
REMARK    8  A    between atoms: C_23  and  C_24
REMARK                            x       y       z     vdW  Elec       q    Type
REMARK                         _______ _______ _______ _____ _____    ______ ____
ROOT
ATOM      4  N   UNL     1      -3.345 -12.248  19.233  0.00  0.00    -0.316 NA
ATOM      7  C   UNL     1      -4.515 -11.427  16.651  0.00  0.00    +0.004 C 
ATOM      8  C   UNL     1      -2.991 -11.589  16.866  0.00  0.00    +0.012 C 
ATOM      9  C   UNL     1      -5.261 -12.300  17.674  0.00  0.00    +0.019 C 
ATOM     10  C   UNL     1      -2.597 -11.367  18.336  0.00  0.00    +0.085 C 
ATOM     12  C   UNL     1      -4.788 -12.054  19.106  0.00  0.00    +0.081 C 
ATOM     31  H   UNL     1      -3.065 -12.066  20.196  0.00  0.00    +0.122 HD
ENDROOT
BRANCH   7  11
ATOM     11  C   UNL     1      -5.002  -9.975  16.715  0.00  0.00    +0.099 C 
BRANCH  11  17
ATOM      1  O   UNL     1      -7.318  -9.288  16.840  0.00  0.00    -0.276 OA
ATOM      5  N   UNL     1      -6.550 -10.364  14.929  0.00  0.00    -0.312 N 
ATOM     17  C   UNL     1      -6.418  -9.823  16.200  0.00  0.00    +0.214 C 
ATOM     32  H   UNL     1      -5.726 -10.724  14.458  0.00  0.00    +0.149 HD
BRANCH   5  14
ATOM     14  C   UNL     1      -7.796 -10.359  14.195  0.00  0.00    +0.073 C 
ATOM     15  C   UNL     1      -7.743  -9.369  13.028  0.00  0.00    +0.022 C 
ATOM     16  C   UNL     1      -8.155 -11.769  13.712  0.00  0.00    +0.022 C 
ATOM     18  C   UNL     1      -6.839  -9.851  11.892  0.00  0.00    +0.002 C 
ATOM     19  C   UNL     1      -7.252 -12.246  12.576  0.00  0.00    +0.002 C 
ATOM     20  C   UNL     1      -7.225 -11.250  11.422  0.00  0.00    +0.000 C 
ENDBRANCH   5  14
ENDBRANCH  11  17
ENDBRANCH   7  11
BRANCH   8  13
ATOM     13  C   UNL     1      -2.158 -10.695  15.946  0.00  0.00    +0.064 C 
BRANCH  13  21
ATOM      2  O   UNL     1      -2.132 -12.182  12.666  0.00  0.00    -0.354 OA
ATOM      6  N   UNL     1      -1.739 -12.136  13.998  0.00  0.00    -0.083 NA
ATOM     21  C   UNL     1      -2.354 -11.061  14.503  0.00  0.00    +0.085 A 
ATOM     22  C   UNL     1      -3.141 -10.398  13.545  0.00  0.00    +0.076 A 
ATOM     23  C   UNL     1      -2.967 -11.142  12.408  0.00  0.00    +0.167 A 
BRANCH  23  24
ATOM     24  C   UNL     1      -3.457 -11.059  11.063  0.00  0.00    +0.020 A 
ATOM     25  C   UNL     1      -3.795 -12.222  10.371  0.00  0.00    +0.015 A 
ATOM     26  C   UNL     1      -3.596  -9.816  10.447  0.00  0.00    +0.015 A 
ATOM     27  C   UNL     1      -4.272 -12.143   9.063  0.00  0.00    +0.046 A 
ATOM     28  C   UNL     1      -4.073  -9.736   9.139  0.00  0.00    +0.046 A 
ATOM     29  C   UNL     1      -4.410 -10.898   8.446  0.00  0.00    +0.120 A 
BRANCH  29   3
ATOM      3  O   UNL     1      -4.879 -10.820   7.171  0.00  0.00    -0.495 OA
ATOM     30  C   UNL     1      -4.666 -11.952   6.330  0.00  0.00    +0.277 C 
ENDBRANCH  29   3
ENDBRANCH  23  24
ENDBRANCH  13  21
ENDBRANCH   8  13
TORSDOF 7
ENDMDL
MODEL 7
REMARK VINA RESULT:      -5.5     23.597     26.506
REMARK  Name = 40777419
REMARK  8 active torsions:
REMARK  status: ('A' for Active; 'I' for Inactive)
REMARK    1  A    between atoms: O_3  and  C_29
REMARK    2  A    between atoms: O_3  and  C_30
REMARK    3  A    between atoms: N_5  and  C_14
REMARK    4  A    between atoms: C_7  and  C_11
REMARK    5  A    between atoms: C_8  and  C_13
REMARK    6  A    between atoms: C_11  and  C_17
REMARK    7  A    between atoms: C_13  and  C_21
REMARK    8  A    between atoms: C_23  and  C_24
REMARK                            x       y       z     vdW  Elec       q    Type
REMARK                         _______ _______ _______ _____ _____    ______ ____
ROOT
ATOM      4  N   UNL     1      10.074   2.944  -4.501  0.00  0.00    -0.316 NA
ATOM      7  C   UNL     1      11.952   4.198  -2.602  0.00  0.00    +0.004 C 
ATOM      8  C   UNL     1      10.416   4.268  -2.428  0.00  0.00    +0.012 C 
ATOM      9  C   UNL     1      12.306   2.961  -3.443  0.00  0.00    +0.019 C 
ATOM     10  C   UNL     1       9.686   4.156  -3.778  0.00  0.00    +0.085 C 
ATOM     12  C   UNL     1      11.513   2.896  -4.748  0.00  0.00    +0.081 C 
ATOM     31  H   UNL     1       9.578   2.910  -5.391  0.00  0.00    +0.122 HD
ENDROOT
BRANCH   7  11
ATOM     11  C   UNL     1      12.569   5.464  -3.206  0.00  0.00    +0.099 C 
BRANCH  11  17
ATOM      1  O   UNL     1      14.189   7.137  -2.550  0.00  0.00    -0.276 OA
ATOM      5  N   UNL     1      13.562   5.496  -1.027  0.00  0.00    -0.312 N 
ATOM     17  C   UNL     1      13.531   6.144  -2.254  0.00  0.00    +0.214 C 
ATOM     32  H   UNL     1      12.928   4.721  -0.861  0.00  0.00    +0.149 HD
BRANCH   5  14
ATOM     14  C   UNL     1      14.396   5.930   0.072  0.00  0.00    +0.073 C 
ATOM     15  C   UNL     1      13.713   5.667   1.418  0.00  0.00    +0.022 C 
ATOM     16  C   UNL     1      15.777   5.266   0.011  0.00  0.00    +0.022 C 
ATOM     18  C   UNL     1      13.668   4.179   1.771  0.00  0.00    +0.002 C 
ATOM     19  C   UNL     1      15.728   3.781   0.366  0.00  0.00    +0.002 C 
ATOM     20  C   UNL     1      15.054   3.545   1.713  0.00  0.00    +0.000 C 
ENDBRANCH   5  14
ENDBRANCH  11  17
ENDBRANCH   7  11
BRANCH   8  13
ATOM     13  C   UNL     1       9.954   5.514  -1.670  0.00  0.00    +0.064 C 
BRANCH  13  21
ATOM      2  O   UNL     1      10.176   4.246   1.693  0.00  0.00    -0.354 OA
ATOM      6  N   UNL     1      10.118   4.073   0.315  0.00  0.00    -0.083 NA
ATOM     21  C   UNL     1      10.035   5.310  -0.185  0.00  0.00    +0.085 A 
ATOM     22  C   UNL     1      10.037   6.293   0.820  0.00  0.00    +0.076 A 
ATOM     23  C   UNL     1      10.127   5.572   1.982  0.00  0.00    +0.167 A 
BRANCH  23  24
ATOM     24  C   UNL     1      10.178   5.906   3.375  0.00  0.00    +0.020 A 
ATOM     25  C   UNL     1      10.286   4.895   4.331  0.00  0.00    +0.015 A 
ATOM     26  C   UNL     1      10.119   7.240   3.775  0.00  0.00    +0.015 A 
ATOM     27  C   UNL     1      10.336   5.219   5.686  0.00  0.00    +0.046 A 
ATOM     28  C   UNL     1      10.169   7.565   5.131  0.00  0.00    +0.046 A 
ATOM     29  C   UNL     1      10.276   6.555   6.086  0.00  0.00    +0.120 A 
BRANCH  29   3
ATOM      3  O   UNL     1      10.329   6.871   7.409  0.00  0.00    -0.495 OA
ATOM     30  C   UNL     1       9.785   5.922   8.326  0.00  0.00    +0.277 C 
ENDBRANCH  29   3
ENDBRANCH  23  24
ENDBRANCH  13  21
ENDBRANCH   8  13
TORSDOF 7
ENDMDL
MODEL 8
REMARK VINA RESULT:      -5.4      3.891      6.629
REMARK  Name = 40777419
REMARK  8 active torsions:
REMARK  status: ('A' for Active; 'I' for Inactive)
REMARK    1  A    between atoms: O_3  and  C_29
REMARK    2  A    between atoms: O_3  and  C_30
REMARK    3  A    between atoms: N_5  and  C_14
REMARK    4  A    between atoms: C_7  and  C_11
REMARK    5  A    between atoms: C_8  and  C_13
REMARK    6  A    between atoms: C_11  and  C_17
REMARK    7  A    between atoms: C_13  and  C_21
REMARK    8  A    between atoms: C_23  and  C_24
REMARK                            x       y       z     vdW  Elec       q    Type
REMARK                         _______ _______ _______ _____ _____    ______ ____
ROOT
ATOM      4  N   UNL     1      -5.880 -13.805  15.620  0.00  0.00    -0.316 NA
ATOM      7  C   UNL     1      -3.686 -11.832  15.559  0.00  0.00    +0.004 C 
ATOM      8  C   UNL     1      -4.661 -11.962  16.753  0.00  0.00    +0.012 C 
ATOM      9  C   UNL     1      -3.636 -13.171  14.804  0.00  0.00    +0.019 C 
ATOM     10  C   UNL     1      -6.024 -12.526  16.316  0.00  0.00    +0.085 C 
ATOM     12  C   UNL     1      -5.027 -13.688  14.439  0.00  0.00    +0.081 C 
ATOM     31  H   UNL     1      -6.800 -14.140  15.338  0.00  0.00    +0.122 HD
ENDROOT
BRANCH   7  11
ATOM     11  C   UNL     1      -4.020 -10.681  14.604  0.00  0.00    +0.099 C 
BRANCH  11  17
ATOM      1  O   UNL     1      -1.854 -10.410  13.561  0.00  0.00    -0.276 OA
ATOM      5  N   UNL     1      -3.722 -10.791  12.231  0.00  0.00    -0.312 N 
ATOM     17  C   UNL     1      -3.059 -10.608  13.436  0.00  0.00    +0.214 C 
ATOM     32  H   UNL     1      -4.712 -11.015  12.241  0.00  0.00    +0.149 HD
BRANCH   5  14
ATOM     14  C   UNL     1      -3.050 -10.769  10.950  0.00  0.00    +0.073 C 
ATOM     15  C   UNL     1      -3.767 -11.667   9.937  0.00  0.00    +0.022 C 
ATOM     16  C   UNL     1      -2.916  -9.335  10.424  0.00  0.00    +0.022 C 
ATOM     18  C   UNL     1      -5.103 -11.081   9.477  0.00  0.00    +0.002 C 
ATOM     19  C   UNL     1      -4.251  -8.754   9.963  0.00  0.00    +0.002 C 
ATOM     20  C   UNL     1      -4.940  -9.659   8.948  0.00  0.00    +0.000 C 
ENDBRANCH   5  14
ENDBRANCH  11  17
ENDBRANCH   7  11
BRANCH   8  13
ATOM     13  C   UNL     1      -4.844 -10.653  17.523  0.00  0.00    +0.064 C 
BRANCH  13  21
ATOM      2  O   UNL     1      -8.309  -9.859  18.090  0.00  0.00    -0.354 OA
ATOM      6  N   UNL     1      -7.103 -10.434  18.468  0.00  0.00    -0.083 NA
ATOM     21  C   UNL     1      -6.265 -10.174  17.459  0.00  0.00    +0.085 A 
ATOM     22  C   UNL     1      -6.883  -9.447  16.427  0.00  0.00    +0.076 A 
ATOM     23  C   UNL     1      -8.167  -9.274  16.873  0.00  0.00    +0.167 A 
BRANCH  23  24
ATOM     24  C   UNL     1      -9.339  -8.636  16.349  0.00  0.00    +0.020 A 
ATOM     25  C   UNL     1      -9.805  -8.968  15.077  0.00  0.00    +0.015 A 
ATOM     26  C   UNL     1     -10.014  -7.683  17.112  0.00  0.00    +0.015 A 
ATOM     27  C   UNL     1     -10.944  -8.347  14.567  0.00  0.00    +0.046 A 
ATOM     28  C   UNL     1     -11.154  -7.062  16.602  0.00  0.00    +0.046 A 
ATOM     29  C   UNL     1     -11.620  -7.393  15.330  0.00  0.00    +0.120 A 
BRANCH  29   3
ATOM      3  O   UNL     1     -12.734  -6.791  14.834  0.00  0.00    -0.495 OA
ATOM     30  C   UNL     1     -12.605  -5.436  14.406  0.00  0.00    +0.277 C 
ENDBRANCH  29   3
ENDBRANCH  23  24
ENDBRANCH  13  21
ENDBRANCH   8  13
TORSDOF 7
ENDMDL
MODEL 9
REMARK VINA RESULT:      -5.4      2.906      7.303
REMARK  Name = 40777419
REMARK  8 active torsions:
REMARK  status: ('A' for Active; 'I' for Inactive)
REMARK    1  A    between atoms: O_3  and  C_29
REMARK    2  A    between atoms: O_3  and  C_30
REMARK    3  A    between atoms: N_5  and  C_14
REMARK    4  A    between atoms: C_7  and  C_11
REMARK    5  A    between atoms: C_8  and  C_13
REMARK    6  A    between atoms: C_11  and  C_17
REMARK    7  A    between atoms: C_13  and  C_21
REMARK    8  A    between atoms: C_23  and  C_24
REMARK                            x       y       z     vdW  Elec       q    Type
REMARK                         _______ _______ _______ _____ _____    ______ ____
ROOT
ATOM      4  N   UNL     1      -7.011 -11.306  20.083  0.00  0.00    -0.316 NA
ATOM      7  C   UNL     1      -7.263 -10.962  17.164  0.00  0.00    +0.004 C 
ATOM      8  C   UNL     1      -5.896 -10.985  17.888  0.00  0.00    +0.012 C 
ATOM      9  C   UNL     1      -8.296 -11.720  18.014  0.00  0.00    +0.019 C 
ATOM     10  C   UNL     1      -6.019 -10.520  19.349  0.00  0.00    +0.085 C 
ATOM     12  C   UNL     1      -8.332 -11.232  19.462  0.00  0.00    +0.081 C 
ATOM     31  H   UNL     1      -7.071 -10.963  21.041  0.00  0.00    +0.122 HD
ENDROOT
BRANCH   7  11
ATOM     11  C   UNL     1      -7.765  -9.553  16.826  0.00  0.00    +0.099 C 
BRANCH  11  17
ATOM      1  O   UNL     1      -9.326  -9.070  15.043  0.00  0.00    -0.276 OA
ATOM      5  N   UNL     1      -7.178  -9.783  14.515  0.00  0.00    -0.312 N 
ATOM     17  C   UNL     1      -8.204  -9.432  15.382  0.00  0.00    +0.214 C 
ATOM     32  H   UNL     1      -6.263 -10.005  14.897  0.00  0.00    +0.149 HD
BRANCH   5  14
ATOM     14  C   UNL     1      -7.319  -9.762  13.076  0.00  0.00    +0.073 C 
ATOM     15  C   UNL     1      -6.038  -9.256  12.405  0.00  0.00    +0.022 C 
ATOM     16  C   UNL     1      -7.719 -11.142  12.542  0.00  0.00    +0.022 C 
ATOM     18  C   UNL     1      -4.897 -10.271  12.483  0.00  0.00    +0.002 C 
ATOM     19  C   UNL     1      -6.575 -12.152  12.619  0.00  0.00    +0.002 C 
ATOM     20  C   UNL     1      -5.316 -11.632  11.935  0.00  0.00    +0.000 C 
ENDBRANCH   5  14
ENDBRANCH  11  17
ENDBRANCH   7  11
BRANCH   8  13
ATOM     13  C   UNL     1      -4.817 -10.185  17.158  0.00  0.00    +0.064 C 
BRANCH  13  21
ATOM      2  O   UNL     1      -2.337 -11.703  15.035  0.00  0.00    -0.354 OA
ATOM      6  N   UNL     1      -2.787 -10.684  15.864  0.00  0.00    -0.083 NA
ATOM     21  C   UNL     1      -4.013 -11.060  16.240  0.00  0.00    +0.085 A 
ATOM     22  C   UNL     1      -4.385 -12.296  15.684  0.00  0.00    +0.076 A 
ATOM     23  C   UNL     1      -3.297 -12.658  14.935  0.00  0.00    +0.167 A 
BRANCH  23  24
ATOM     24  C   UNL     1      -2.972 -13.781  14.104  0.00  0.00    +0.020 A 
ATOM     25  C   UNL     1      -1.653 -13.992  13.701  0.00  0.00    +0.015 A 
ATOM     26  C   UNL     1      -3.974 -14.662  13.699  0.00  0.00    +0.015 A 
ATOM     27  C   UNL     1      -1.336 -15.083  12.894  0.00  0.00    +0.046 A 
ATOM     28  C   UNL     1      -3.658 -15.754  12.891  0.00  0.00    +0.046 A 
ATOM     29  C   UNL     1      -2.340 -15.964  12.488  0.00  0.00    +0.120 A 
BRANCH  29   3
ATOM      3  O   UNL     1      -2.030 -17.032  11.702  0.00  0.00    -0.495 OA
ATOM     30  C   UNL     1      -0.807 -16.966  10.969  0.00  0.00    +0.277 C 
ENDBRANCH  29   3
ENDBRANCH  23  24
ENDBRANCH  13  21
ENDBRANCH   8  13
TORSDOF 7
ENDMDL
MODEL 10
REMARK VINA RESULT:      -5.3     23.781     26.943
REMARK  Name = 40777419
REMARK  8 active torsions:
REMARK  status: ('A' for Active; 'I' for Inactive)
REMARK    1  A    between atoms: O_3  and  C_29
REMARK    2  A    between atoms: O_3  and  C_30
REMARK    3  A    between atoms: N_5  and  C_14
REMARK    4  A    between atoms: C_7  and  C_11
REMARK    5  A    between atoms: C_8  and  C_13
REMARK    6  A    between atoms: C_11  and  C_17
REMARK    7  A    between atoms: C_13  and  C_21
REMARK    8  A    between atoms: C_23  and  C_24
REMARK                            x       y       z     vdW  Elec       q    Type
REMARK                         _______ _______ _______ _____ _____    ______ ____
ROOT
ATOM      4  N   UNL     1      17.122   6.424  -1.501  0.00  0.00    -0.316 NA
ATOM      7  C   UNL     1      14.350   5.415  -1.425  0.00  0.00    +0.004 C 
ATOM      8  C   UNL     1      15.343   5.220  -0.255  0.00  0.00    +0.012 C 
ATOM      9  C   UNL     1      14.777   6.642  -2.247  0.00  0.00    +0.019 C 
ATOM     10  C   UNL     1      16.802   5.214  -0.742  0.00  0.00    +0.085 C 
ATOM     12  C   UNL     1      16.247   6.585  -2.660  0.00  0.00    +0.081 C 
ATOM     31  H   UNL     1      18.091   6.379  -1.814  0.00  0.00    +0.122 HD
ENDROOT
BRANCH   7  11
ATOM     11  C   UNL     1      14.197   4.183  -2.324  0.00  0.00    +0.099 C 
BRANCH  11  17
ATOM      1  O   UNL     1      12.426   2.661  -2.955  0.00  0.00    -0.276 OA
ATOM      5  N   UNL     1      11.906   4.579  -1.750  0.00  0.00    -0.312 N 
ATOM     17  C   UNL     1      12.764   3.699  -2.394  0.00  0.00    +0.214 C 
ATOM     32  H   UNL     1      12.295   5.377  -1.258  0.00  0.00    +0.149 HD
BRANCH   5  14
ATOM     14  C   UNL     1      10.478   4.367  -1.663  0.00  0.00    +0.073 C 
ATOM     15  C   UNL     1       9.876   5.145  -0.489  0.00  0.00    +0.022 C 
ATOM     16  C   UNL     1       9.787   4.728  -2.983  0.00  0.00    +0.022 C 
ATOM     18  C   UNL     1       9.843   6.653  -0.743  0.00  0.00    +0.002 C 
ATOM     19  C   UNL     1       9.754   6.236  -3.232  0.00  0.00    +0.002 C 
ATOM     20  C   UNL     1       9.141   6.988  -2.055  0.00  0.00    +0.000 C 
ENDBRANCH   5  14
ENDBRANCH  11  17
ENDBRANCH   7  11
BRANCH   8  13
ATOM     13  C   UNL     1      15.050   3.972   0.579  0.00  0.00    +0.064 C 
BRANCH  13  21
ATOM      2  O   UNL     1      11.739   3.504   1.915  0.00  0.00    -0.354 OA
ATOM      6  N   UNL     1      12.831   3.089   1.163  0.00  0.00    -0.083 NA
ATOM     21  C   UNL     1      13.724   4.078   1.275  0.00  0.00    +0.085 A 
ATOM     22  C   UNL     1      13.254   5.132   2.078  0.00  0.00    +0.076 A 
ATOM     23  C   UNL     1      12.003   4.721   2.456  0.00  0.00    +0.167 A 
BRANCH  23  24
ATOM     24  C   UNL     1      10.959   5.281   3.264  0.00  0.00    +0.020 A 
ATOM     25  C   UNL     1      10.512   4.598   4.396  0.00  0.00    +0.015 A 
ATOM     26  C   UNL     1      10.392   6.507   2.920  0.00  0.00    +0.015 A 
ATOM     27  C   UNL     1       9.497   5.142   5.183  0.00  0.00    +0.046 A 
ATOM     28  C   UNL     1       9.376   7.051   3.707  0.00  0.00    +0.046 A 
ATOM     29  C   UNL     1       8.929   6.369   4.837  0.00  0.00    +0.120 A 
BRANCH  29   3
ATOM      3  O   UNL     1       7.941   6.901   5.608  0.00  0.00    -0.495 OA
ATOM     30  C   UNL     1       8.251   8.090   6.332  0.00  0.00    +0.277 C 
ENDBRANCH  29   3
ENDBRANCH  23  24
ENDBRANCH  13  21
ENDBRANCH   8  13
TORSDOF 7
ENDMDL
