MODEL 1
REMARK VINA RESULT:      -6.9      0.000      0.000
REMARK  Name = 7049404
REMARK  13 active torsions:
REMARK  status: ('A' for Active; 'I' for Inactive)
REMARK    1  A    between atoms: S_1  and  C_21
REMARK    2  A    between atoms: S_1  and  C_27
REMARK    3  A    between atoms: O_7  and  C_23
REMARK    4  A    between atoms: O_7  and  C_28
REMARK    5  A    between atoms: N_10  and  C_14
REMARK    6  A    between atoms: N_11  and  C_19
REMARK    7  A    between atoms: N_12  and  C_26
REMARK    8  A    between atoms: C_13  and  C_17
REMARK    9  A    between atoms: C_18  and  C_21
REMARK   10  A    between atoms: C_19  and  C_20
REMARK   11  A    between atoms: C_19  and  C_23
REMARK   12  A    between atoms: C_20  and  C_24
REMARK   13  A    between atoms: C_20  and  C_25
REMARK                            x       y       z     vdW  Elec       q    Type
REMARK                         _______ _______ _______ _____ _____    ______ ____
ROOT
ATOM      5  O   UNL     1      12.700   7.558  22.054  0.00  0.00    -0.275 OA
ATOM      9  N   UNL     1      11.973   8.086  19.921  0.00  0.00    -0.287 N 
ATOM     13  C   UNL     1      13.006   7.345  19.212  0.00  0.00    +0.164 C 
ATOM     14  C   UNL     1      11.626   8.517  17.611  0.00  0.00    +0.094 C 
ATOM     15  C   UNL     1      12.529   7.290  17.761  0.00  0.00    +0.055 C 
ATOM     16  C   UNL     1      11.003   8.671  18.995  0.00  0.00    +0.131 C 
ATOM     18  C   UNL     1      11.863   8.061  21.304  0.00  0.00    +0.226 C 
ENDROOT
BRANCH  14  10
ATOM      6  O   UNL     1      13.068   8.901  15.166  0.00  0.00    -0.252 OA
ATOM     10  N   UNL     1      12.371   9.689  17.225  0.00  0.00    -0.295 N 
ATOM     12  N   UNL     1      13.683  11.042  15.909  0.00  0.00    -0.267 N 
ATOM     22  C   UNL     1      13.053   9.798  16.005  0.00  0.00    +0.304 C 
ATOM     34  H   UNL     1      12.462  10.447  17.895  0.00  0.00    +0.151 HD
ATOM     36  H   UNL     1      13.572  11.674  16.697  0.00  0.00    +0.156 HD
BRANCH  12  26
ATOM      2  F   UNL     1      12.514  12.235  13.679  0.00  0.00    -0.203 F 
ATOM      3  F   UNL     1      16.757  12.982  11.723  0.00  0.00    -0.205 F 
ATOM     26  C   UNL     1      14.465  11.536  14.839  0.00  0.00    +0.070 A 
ATOM     29  C   UNL     1      13.849  12.130  13.737  0.00  0.00    +0.147 A 
ATOM     30  C   UNL     1      15.855  11.432  14.888  0.00  0.00    +0.029 A 
ATOM     31  C   UNL     1      14.623  12.617  12.684  0.00  0.00    +0.078 A 
ATOM     32  C   UNL     1      16.629  11.919  13.835  0.00  0.00    +0.040 A 
ATOM     33  C   UNL     1      16.013  12.512  12.734  0.00  0.00    +0.126 A 
ENDBRANCH  12  26
ENDBRANCH  14  10
BRANCH  13  17
ATOM      4  O   UNL     1      14.442   9.227  18.904  0.00  0.00    -0.274 OA
ATOM     11  N   UNL     1      15.281   7.329  19.958  0.00  0.00    -0.301 N 
ATOM     17  C   UNL     1      14.303   8.085  19.337  0.00  0.00    +0.234 C 
ATOM     35  H   UNL     1      15.034   6.420  20.337  0.00  0.00    +0.150 HD
BRANCH  11  19
ATOM     19  C   UNL     1      16.628   7.805  20.179  0.00  0.00    +0.184 C 
BRANCH  19  20
ATOM     20  C   UNL     1      17.580   6.685  20.653  0.00  0.00    +0.014 C 
ATOM     24  C   UNL     1      18.814   7.213  21.393  0.00  0.00    +0.009 C 
ATOM     25  C   UNL     1      18.013   5.793  19.486  0.00  0.00    +0.009 C 
ENDBRANCH  19  20
BRANCH  19  23
ATOM      8  O   UNL     1      17.388   9.962  20.964  0.00  0.00    -0.249 OA
ATOM     23  C   UNL     1      16.653   8.995  21.133  0.00  0.00    +0.328 C 
BRANCH  23   7
ATOM      7  O   UNL     1      15.778   8.845  22.166  0.00  0.00    -0.467 OA
ATOM     28  C   UNL     1      15.016  10.008  22.509  0.00  0.00    +0.280 C 
ENDBRANCH  23   7
ENDBRANCH  19  23
ENDBRANCH  11  19
ENDBRANCH  13  17
BRANCH  18  21
ATOM     21  C   UNL     1      10.628   8.716  21.870  0.00  0.00    +0.164 C 
BRANCH  21   1
ATOM      1  S   UNL     1      11.162  10.095  22.894  0.00  0.00    -0.155 S 
ATOM     27  C   UNL     1      11.571  11.274  21.583  0.00  0.00    +0.085 C 
ENDBRANCH  21   1
ENDBRANCH  18  21
TORSDOF 9
ENDMDL
MODEL 2
REMARK VINA RESULT:      -6.3     12.278     14.966
REMARK  Name = 7049404
REMARK  13 active torsions:
REMARK  status: ('A' for Active; 'I' for Inactive)
REMARK    1  A    between atoms: S_1  and  C_21
REMARK    2  A    between atoms: S_1  and  C_27
REMARK    3  A    between atoms: O_7  and  C_23
REMARK    4  A    between atoms: O_7  and  C_28
REMARK    5  A    between atoms: N_10  and  C_14
REMARK    6  A    between atoms: N_11  and  C_19
REMARK    7  A    between atoms: N_12  and  C_26
REMARK    8  A    between atoms: C_13  and  C_17
REMARK    9  A    between atoms: C_18  and  C_21
REMARK   10  A    between atoms: C_19  and  C_20
REMARK   11  A    between atoms: C_19  and  C_23
REMARK   12  A    between atoms: C_20  and  C_24
REMARK   13  A    between atoms: C_20  and  C_25
REMARK                            x       y       z     vdW  Elec       q    Type
REMARK                         _______ _______ _______ _____ _____    ______ ____
ROOT
ATOM      5  O   UNL     1       9.183   8.987   7.679  0.00  0.00    -0.275 OA
ATOM      9  N   UNL     1       9.317   7.251   6.154  0.00  0.00    -0.287 N 
ATOM     13  C   UNL     1       9.867   6.268   7.078  0.00  0.00    +0.164 C 
ATOM     14  C   UNL     1       9.735   5.298   4.869  0.00  0.00    +0.094 C 
ATOM     15  C   UNL     1       9.739   4.929   6.355  0.00  0.00    +0.055 C 
ATOM     16  C   UNL     1       9.050   6.660   4.843  0.00  0.00    +0.131 C 
ATOM     18  C   UNL     1       8.943   8.522   6.564  0.00  0.00    +0.226 C 
ENDROOT
BRANCH  14  10
ATOM      6  O   UNL     1      10.498   4.852   2.144  0.00  0.00    -0.252 OA
ATOM     10  N   UNL     1      11.069   5.357   4.326  0.00  0.00    -0.295 N 
ATOM     12  N   UNL     1      12.733   5.251   2.744  0.00  0.00    -0.267 N 
ATOM     22  C   UNL     1      11.360   5.125   2.976  0.00  0.00    +0.304 C 
ATOM     34  H   UNL     1      11.844   5.511   4.965  0.00  0.00    +0.151 HD
ATOM     36  H   UNL     1      13.314   5.481   3.546  0.00  0.00    +0.156 HD
BRANCH  12  26
ATOM      2  F   UNL     1      13.345   2.730   1.729  0.00  0.00    -0.203 F 
ATOM      3  F   UNL     1      15.436   4.648  -2.057  0.00  0.00    -0.205 F 
ATOM     26  C   UNL     1      13.424   5.095   1.520  0.00  0.00    +0.070 A 
ATOM     29  C   UNL     1      13.714   3.818   1.038  0.00  0.00    +0.147 A 
ATOM     30  C   UNL     1      13.813   6.219   0.793  0.00  0.00    +0.029 A 
ATOM     31  C   UNL     1      14.395   3.667  -0.170  0.00  0.00    +0.078 A 
ATOM     32  C   UNL     1      14.494   6.068  -0.415  0.00  0.00    +0.040 A 
ATOM     33  C   UNL     1      14.784   4.792  -0.896  0.00  0.00    +0.126 A 
ENDBRANCH  12  26
ENDBRANCH  14  10
BRANCH  13  17
ATOM      4  O   UNL     1      12.019   5.897   8.042  0.00  0.00    -0.274 OA
ATOM     11  N   UNL     1      11.676   7.804   6.754  0.00  0.00    -0.301 N 
ATOM     17  C   UNL     1      11.301   6.612   7.348  0.00  0.00    +0.234 C 
ATOM     35  H   UNL     1      11.016   8.279   6.144  0.00  0.00    +0.150 HD
BRANCH  11  19
ATOM     19  C   UNL     1      12.999   8.370   6.882  0.00  0.00    +0.184 C 
BRANCH  19  20
ATOM     20  C   UNL     1      13.001   9.908   6.739  0.00  0.00    +0.014 C 
ATOM     24  C   UNL     1      14.409  10.512   6.718  0.00  0.00    +0.009 C 
ATOM     25  C   UNL     1      12.166  10.568   7.841  0.00  0.00    +0.009 C 
ENDBRANCH  19  20
BRANCH  19  23
ATOM      8  O   UNL     1      15.099   7.347   6.254  0.00  0.00    -0.249 OA
ATOM     23  C   UNL     1      13.983   7.723   5.912  0.00  0.00    +0.328 C 
BRANCH  23   7
ATOM      7  O   UNL     1      13.473   7.621   4.652  0.00  0.00    -0.467 OA
ATOM     28  C   UNL     1      14.121   8.416   3.653  0.00  0.00    +0.280 C 
ENDBRANCH  23   7
ENDBRANCH  19  23
ENDBRANCH  11  19
ENDBRANCH  13  17
BRANCH  18  21
ATOM     21  C   UNL     1       8.209   9.347   5.537  0.00  0.00    +0.164 C 
BRANCH  21   1
ATOM      1  S   UNL     1       9.194  10.817   5.212  0.00  0.00    -0.155 S 
ATOM     27  C   UNL     1      10.440  10.083   4.124  0.00  0.00    +0.085 C 
ENDBRANCH  21   1
ENDBRANCH  18  21
TORSDOF 9
ENDMDL
MODEL 3
REMARK VINA RESULT:      -6.1      9.596     12.844
REMARK  Name = 7049404
REMARK  13 active torsions:
REMARK  status: ('A' for Active; 'I' for Inactive)
REMARK    1  A    between atoms: S_1  and  C_21
REMARK    2  A    between atoms: S_1  and  C_27
REMARK    3  A    between atoms: O_7  and  C_23
REMARK    4  A    between atoms: O_7  and  C_28
REMARK    5  A    between atoms: N_10  and  C_14
REMARK    6  A    between atoms: N_11  and  C_19
REMARK    7  A    between atoms: N_12  and  C_26
REMARK    8  A    between atoms: C_13  and  C_17
REMARK    9  A    between atoms: C_18  and  C_21
REMARK   10  A    between atoms: C_19  and  C_20
REMARK   11  A    between atoms: C_19  and  C_23
REMARK   12  A    between atoms: C_20  and  C_24
REMARK   13  A    between atoms: C_20  and  C_25
REMARK                            x       y       z     vdW  Elec       q    Type
REMARK                         _______ _______ _______ _____ _____    ______ ____
ROOT
ATOM      5  O   UNL     1      10.591  10.312   8.952  0.00  0.00    -0.275 OA
ATOM      9  N   UNL     1      12.424  10.839   7.641  0.00  0.00    -0.287 N 
ATOM     13  C   UNL     1      11.999  10.095   6.464  0.00  0.00    +0.164 C 
ATOM     14  C   UNL     1      14.187  11.037   6.062  0.00  0.00    +0.094 C 
ATOM     15  C   UNL     1      12.920  10.567   5.341  0.00  0.00    +0.055 C 
ATOM     16  C   UNL     1      13.662  11.576   7.388  0.00  0.00    +0.131 C 
ATOM     18  C   UNL     1      11.630  10.949   8.773  0.00  0.00    +0.226 C 
ENDROOT
BRANCH  14  10
ATOM      6  O   UNL     1      16.935  10.994   5.252  0.00  0.00    -0.252 OA
ATOM     10  N   UNL     1      15.126   9.960   6.254  0.00  0.00    -0.295 N 
ATOM     12  N   UNL     1      17.126   8.832   6.148  0.00  0.00    -0.267 N 
ATOM     22  C   UNL     1      16.459  10.018   5.826  0.00  0.00    +0.304 C 
ATOM     34  H   UNL     1      14.790   9.093   6.662  0.00  0.00    +0.151 HD
ATOM     36  H   UNL     1      16.584   8.117   6.626  0.00  0.00    +0.156 HD
BRANCH  12  26
ATOM      2  F   UNL     1      17.949   7.934   3.643  0.00  0.00    -0.203 F 
ATOM      3  F   UNL     1      22.419   7.533   5.138  0.00  0.00    -0.205 F 
ATOM     26  C   UNL     1      18.476   8.499   5.889  0.00  0.00    +0.070 A 
ATOM     29  C   UNL     1      18.856   8.053   4.622  0.00  0.00    +0.147 A 
ATOM     30  C   UNL     1      19.428   8.618   6.900  0.00  0.00    +0.029 A 
ATOM     31  C   UNL     1      20.187   7.726   4.369  0.00  0.00    +0.078 A 
ATOM     32  C   UNL     1      20.760   8.291   6.647  0.00  0.00    +0.040 A 
ATOM     33  C   UNL     1      21.140   7.845   5.381  0.00  0.00    +0.126 A 
ENDBRANCH  12  26
ENDBRANCH  14  10
BRANCH  13  17
ATOM      4  O   UNL     1      13.260   8.142   7.006  0.00  0.00    -0.274 OA
ATOM     11  N   UNL     1      10.975   7.935   6.614  0.00  0.00    -0.301 N 
ATOM     17  C   UNL     1      12.166   8.630   6.733  0.00  0.00    +0.234 C 
ATOM     35  H   UNL     1      10.117   8.453   6.451  0.00  0.00    +0.150 HD
BRANCH  11  19
ATOM     19  C   UNL     1      10.872   6.506   6.801  0.00  0.00    +0.184 C 
BRANCH  19  20
ATOM     20  C   UNL     1      10.311   5.786   5.556  0.00  0.00    +0.014 C 
ATOM     24  C   UNL     1      11.209   5.925   4.321  0.00  0.00    +0.009 C 
ATOM     25  C   UNL     1       8.894   6.266   5.227  0.00  0.00    +0.009 C 
ENDBRANCH  19  20
BRANCH  19  23
ATOM      8  O   UNL     1       9.143   6.858   8.456  0.00  0.00    -0.249 OA
ATOM     23  C   UNL     1      10.067   6.160   8.050  0.00  0.00    +0.328 C 
BRANCH  23   7
ATOM      7  O   UNL     1      10.497   5.009   8.638  0.00  0.00    -0.467 OA
ATOM     28  C   UNL     1       9.471   4.102   9.054  0.00  0.00    +0.280 C 
ENDBRANCH  23   7
ENDBRANCH  19  23
ENDBRANCH  11  19
ENDBRANCH  13  17
BRANCH  18  21
ATOM     21  C   UNL     1      12.123  11.912   9.822  0.00  0.00    +0.164 C 
BRANCH  21   1
ATOM      1  S   UNL     1      10.780  12.187  10.987  0.00  0.00    -0.155 S 
ATOM     27  C   UNL     1      11.740  12.198  12.522  0.00  0.00    +0.085 C 
ENDBRANCH  21   1
ENDBRANCH  18  21
TORSDOF 9
ENDMDL
MODEL 4
REMARK VINA RESULT:      -5.8     27.150     29.314
REMARK  Name = 7049404
REMARK  13 active torsions:
REMARK  status: ('A' for Active; 'I' for Inactive)
REMARK    1  A    between atoms: S_1  and  C_21
REMARK    2  A    between atoms: S_1  and  C_27
REMARK    3  A    between atoms: O_7  and  C_23
REMARK    4  A    between atoms: O_7  and  C_28
REMARK    5  A    between atoms: N_10  and  C_14
REMARK    6  A    between atoms: N_11  and  C_19
REMARK    7  A    between atoms: N_12  and  C_26
REMARK    8  A    between atoms: C_13  and  C_17
REMARK    9  A    between atoms: C_18  and  C_21
REMARK   10  A    between atoms: C_19  and  C_20
REMARK   11  A    between atoms: C_19  and  C_23
REMARK   12  A    between atoms: C_20  and  C_24
REMARK   13  A    between atoms: C_20  and  C_25
REMARK                            x       y       z     vdW  Elec       q    Type
REMARK                         _______ _______ _______ _____ _____    ______ ____
ROOT
ATOM      5  O   UNL     1      -2.834 -14.833  15.151  0.00  0.00    -0.275 OA
ATOM      9  N   UNL     1      -2.538 -12.945  13.845  0.00  0.00    -0.287 N 
ATOM     13  C   UNL     1      -2.546 -11.988  14.943  0.00  0.00    +0.164 C 
ATOM     14  C   UNL     1      -2.388 -10.794  12.847  0.00  0.00    +0.094 C 
ATOM     15  C   UNL     1      -2.039 -10.682  14.334  0.00  0.00    +0.055 C 
ATOM     16  C   UNL     1      -2.266 -12.289  12.566  0.00  0.00    +0.131 C 
ATOM     18  C   UNL     1      -2.604 -14.314  14.058  0.00  0.00    +0.226 C 
ENDROOT
BRANCH  14  10
ATOM      6  O   UNL     1      -3.673 -10.689  10.289  0.00  0.00    -0.252 OA
ATOM     10  N   UNL     1      -3.713 -10.302  12.568  0.00  0.00    -0.295 N 
ATOM     12  N   UNL     1      -5.564  -9.754  11.321  0.00  0.00    -0.267 N 
ATOM     22  C   UNL     1      -4.272 -10.284  11.283  0.00  0.00    +0.304 C 
ATOM     34  H   UNL     1      -4.245  -9.888  13.329  0.00  0.00    +0.151 HD
ATOM     36  H   UNL     1      -5.914  -9.462  12.230  0.00  0.00    +0.156 HD
BRANCH  12  26
ATOM      2  F   UNL     1      -5.359  -7.553   9.624  0.00  0.00    -0.203 F 
ATOM      3  F   UNL     1      -9.063  -9.036   7.081  0.00  0.00    -0.205 F 
ATOM     26  C   UNL     1      -6.457  -9.568  10.239  0.00  0.00    +0.070 A 
ATOM     29  C   UNL     1      -6.326  -8.455   9.407  0.00  0.00    +0.147 A 
ATOM     30  C   UNL     1      -7.467 -10.500  10.004  0.00  0.00    +0.029 A 
ATOM     31  C   UNL     1      -7.207  -8.275   8.341  0.00  0.00    +0.078 A 
ATOM     32  C   UNL     1      -8.348 -10.320   8.938  0.00  0.00    +0.040 A 
ATOM     33  C   UNL     1      -8.218  -9.208   8.106  0.00  0.00    +0.126 A 
ENDBRANCH  12  26
ENDBRANCH  14  10
BRANCH  13  17
ATOM      4  O   UNL     1      -4.834 -11.327  14.778  0.00  0.00    -0.274 OA
ATOM     11  N   UNL     1      -4.094 -12.349  16.734  0.00  0.00    -0.301 N 
ATOM     17  C   UNL     1      -3.949 -11.850  15.451  0.00  0.00    +0.234 C 
ATOM     35  H   UNL     1      -3.308 -12.822  17.170  0.00  0.00    +0.150 HD
BRANCH  11  19
ATOM     19  C   UNL     1      -5.343 -12.314  17.459  0.00  0.00    +0.184 C 
BRANCH  19  20
ATOM     20  C   UNL     1      -5.137 -12.181  18.984  0.00  0.00    +0.014 C 
ATOM     24  C   UNL     1      -5.859 -10.972  19.589  0.00  0.00    +0.009 C 
ATOM     25  C   UNL     1      -3.649 -12.132  19.341  0.00  0.00    +0.009 C 
ENDBRANCH  19  20
BRANCH  19  23
ATOM      8  O   UNL     1      -5.759 -14.619  16.857  0.00  0.00    -0.249 OA
ATOM     23  C   UNL     1      -6.222 -13.515  17.122  0.00  0.00    +0.328 C 
BRANCH  23   7
ATOM      7  O   UNL     1      -7.549 -13.207  17.152  0.00  0.00    -0.467 OA
ATOM     28  C   UNL     1      -7.921 -11.993  16.492  0.00  0.00    +0.280 C 
ENDBRANCH  23   7
ENDBRANCH  19  23
ENDBRANCH  11  19
ENDBRANCH  13  17
BRANCH  18  21
ATOM     21  C   UNL     1      -2.385 -15.173  12.838  0.00  0.00    +0.164 C 
BRANCH  21   1
ATOM      1  S   UNL     1      -0.745 -15.901  12.968  0.00  0.00    -0.155 S 
ATOM     27  C   UNL     1      -0.649 -16.667  11.331  0.00  0.00    +0.085 C 
ENDBRANCH  21   1
ENDBRANCH  18  21
TORSDOF 9
ENDMDL
MODEL 5
REMARK VINA RESULT:      -5.8     25.918     28.389
REMARK  Name = 7049404
REMARK  13 active torsions:
REMARK  status: ('A' for Active; 'I' for Inactive)
REMARK    1  A    between atoms: S_1  and  C_21
REMARK    2  A    between atoms: S_1  and  C_27
REMARK    3  A    between atoms: O_7  and  C_23
REMARK    4  A    between atoms: O_7  and  C_28
REMARK    5  A    between atoms: N_10  and  C_14
REMARK    6  A    between atoms: N_11  and  C_19
REMARK    7  A    between atoms: N_12  and  C_26
REMARK    8  A    between atoms: C_13  and  C_17
REMARK    9  A    between atoms: C_18  and  C_21
REMARK   10  A    between atoms: C_19  and  C_20
REMARK   11  A    between atoms: C_19  and  C_23
REMARK   12  A    between atoms: C_20  and  C_24
REMARK   13  A    between atoms: C_20  and  C_25
REMARK                            x       y       z     vdW  Elec       q    Type
REMARK                         _______ _______ _______ _____ _____    ______ ____
ROOT
ATOM      5  O   UNL     1      18.858  -5.891  -3.837  0.00  0.00    -0.275 OA
ATOM      9  N   UNL     1      19.003  -8.062  -3.048  0.00  0.00    -0.287 N 
ATOM     13  C   UNL     1      18.165  -8.663  -4.077  0.00  0.00    +0.164 C 
ATOM     14  C   UNL     1      18.797 -10.358  -2.476  0.00  0.00    +0.094 C 
ATOM     15  C   UNL     1      18.382 -10.168  -3.938  0.00  0.00    +0.055 C 
ATOM     16  C   UNL     1      19.559  -9.077  -2.153  0.00  0.00    +0.131 C 
ATOM     18  C   UNL     1      19.346  -6.719  -3.066  0.00  0.00    +0.226 C 
ENDROOT
BRANCH  14  10
ATOM      6  O   UNL     1      18.759 -11.689   0.061  0.00  0.00    -0.252 OA
ATOM     10  N   UNL     1      17.656 -10.537  -1.613  0.00  0.00    -0.295 N 
ATOM     12  N   UNL     1      16.464 -11.220   0.230  0.00  0.00    -0.267 N 
ATOM     22  C   UNL     1      17.721 -11.203  -0.382  0.00  0.00    +0.304 C 
ATOM     34  H   UNL     1      16.748 -10.221  -1.941  0.00  0.00    +0.151 HD
ATOM     36  H   UNL     1      15.703 -10.771  -0.273  0.00  0.00    +0.156 HD
BRANCH  12  26
ATOM      2  F   UNL     1      17.056  -9.946   2.636  0.00  0.00    -0.203 F 
ATOM      3  F   UNL     1      15.084 -13.467   5.106  0.00  0.00    -0.205 F 
ATOM     26  C   UNL     1      16.114 -11.792   1.475  0.00  0.00    +0.070 A 
ATOM     29  C   UNL     1      16.424 -11.128   2.662  0.00  0.00    +0.147 A 
ATOM     30  C   UNL     1      15.456 -13.021   1.515  0.00  0.00    +0.029 A 
ATOM     31  C   UNL     1      16.076 -11.694   3.889  0.00  0.00    +0.078 A 
ATOM     32  C   UNL     1      15.109 -13.587   2.742  0.00  0.00    +0.040 A 
ATOM     33  C   UNL     1      15.419 -12.924   3.928  0.00  0.00    +0.126 A 
ENDBRANCH  12  26
ENDBRANCH  14  10
BRANCH  13  17
ATOM      4  O   UNL     1      16.088  -8.800  -2.908  0.00  0.00    -0.274 OA
ATOM     11  N   UNL     1      16.271  -7.342  -4.713  0.00  0.00    -0.301 N 
ATOM     17  C   UNL     1      16.737  -8.286  -3.815  0.00  0.00    +0.234 C 
ATOM     35  H   UNL     1      16.919  -6.936  -5.382  0.00  0.00    +0.150 HD
BRANCH  11  19
ATOM     19  C   UNL     1      14.920  -6.829  -4.691  0.00  0.00    +0.184 C 
BRANCH  19  20
ATOM     20  C   UNL     1      14.321  -6.682  -6.106  0.00  0.00    +0.014 C 
ATOM     24  C   UNL     1      13.345  -7.805  -6.470  0.00  0.00    +0.009 C 
ATOM     25  C   UNL     1      15.421  -6.581  -7.167  0.00  0.00    +0.009 C 
ENDBRANCH  19  20
BRANCH  19  23
ATOM      8  O   UNL     1      13.878  -5.248  -3.186  0.00  0.00    -0.249 OA
ATOM     23  C   UNL     1      14.829  -5.521  -3.911  0.00  0.00    +0.328 C 
BRANCH  23   7
ATOM      7  O   UNL     1      15.910  -4.719  -4.122  0.00  0.00    -0.467 OA
ATOM     28  C   UNL     1      16.248  -3.836  -3.047  0.00  0.00    +0.280 C 
ENDBRANCH  23   7
ENDBRANCH  19  23
ENDBRANCH  11  19
ENDBRANCH  13  17
BRANCH  18  21
ATOM     21  C   UNL     1      20.376  -6.297  -2.049  0.00  0.00    +0.164 C 
BRANCH  21   1
ATOM      1  S   UNL     1      19.581  -5.160  -0.904  0.00  0.00    -0.155 S 
ATOM     27  C   UNL     1      20.614  -5.461   0.551  0.00  0.00    +0.085 C 
ENDBRANCH  21   1
ENDBRANCH  18  21
TORSDOF 9
ENDMDL
MODEL 6
REMARK VINA RESULT:      -5.6     12.114     14.561
REMARK  Name = 7049404
REMARK  13 active torsions:
REMARK  status: ('A' for Active; 'I' for Inactive)
REMARK    1  A    between atoms: S_1  and  C_21
REMARK    2  A    between atoms: S_1  and  C_27
REMARK    3  A    between atoms: O_7  and  C_23
REMARK    4  A    between atoms: O_7  and  C_28
REMARK    5  A    between atoms: N_10  and  C_14
REMARK    6  A    between atoms: N_11  and  C_19
REMARK    7  A    between atoms: N_12  and  C_26
REMARK    8  A    between atoms: C_13  and  C_17
REMARK    9  A    between atoms: C_18  and  C_21
REMARK   10  A    between atoms: C_19  and  C_20
REMARK   11  A    between atoms: C_19  and  C_23
REMARK   12  A    between atoms: C_20  and  C_24
REMARK   13  A    between atoms: C_20  and  C_25
REMARK                            x       y       z     vdW  Elec       q    Type
REMARK                         _______ _______ _______ _____ _____    ______ ____
ROOT
ATOM      5  O   UNL     1      24.571   3.089  27.287  0.00  0.00    -0.275 OA
ATOM      9  N   UNL     1      23.277   1.173  27.383  0.00  0.00    -0.287 N 
ATOM     13  C   UNL     1      23.676   0.645  26.085  0.00  0.00    +0.164 C 
ATOM     14  C   UNL     1      21.999  -0.802  27.052  0.00  0.00    +0.094 C 
ATOM     15  C   UNL     1      23.178  -0.799  26.074  0.00  0.00    +0.055 C 
ATOM     16  C   UNL     1      22.395   0.244  28.089  0.00  0.00    +0.131 C 
ATOM     18  C   UNL     1      23.831   2.329  27.912  0.00  0.00    +0.226 C 
ENDROOT
BRANCH  14  10
ATOM      6  O   UNL     1      20.281  -2.590  25.617  0.00  0.00    -0.252 OA
ATOM     10  N   UNL     1      20.759  -0.467  26.398  0.00  0.00    -0.295 N 
ATOM     12  N   UNL     1      18.834  -0.791  25.185  0.00  0.00    -0.267 N 
ATOM     22  C   UNL     1      19.974  -1.404  25.714  0.00  0.00    +0.304 C 
ATOM     34  H   UNL     1      20.472   0.507  26.377  0.00  0.00    +0.151 HD
ATOM     36  H   UNL     1      18.728   0.205  25.356  0.00  0.00    +0.156 HD
BRANCH  12  26
ATOM      2  F   UNL     1      16.908  -2.407  26.387  0.00  0.00    -0.203 F 
ATOM      3  F   UNL     1      14.772  -3.135  22.229  0.00  0.00    -0.205 F 
ATOM     26  C   UNL     1      17.797  -1.391  24.432  0.00  0.00    +0.070 A 
ATOM     29  C   UNL     1      16.848  -2.194  25.065  0.00  0.00    +0.147 A 
ATOM     30  C   UNL     1      17.725  -1.178  23.056  0.00  0.00    +0.029 A 
ATOM     31  C   UNL     1      15.826  -2.784  24.321  0.00  0.00    +0.078 A 
ATOM     32  C   UNL     1      16.703  -1.768  22.312  0.00  0.00    +0.040 A 
ATOM     33  C   UNL     1      15.754  -2.570  22.944  0.00  0.00    +0.126 A 
ENDBRANCH  12  26
ENDBRANCH  14  10
BRANCH  13  17
ATOM      4  O   UNL     1      21.804   1.616  24.966  0.00  0.00    -0.274 OA
ATOM     11  N   UNL     1      23.938   1.971  24.108  0.00  0.00    -0.301 N 
ATOM     17  C   UNL     1      23.022   1.461  25.011  0.00  0.00    +0.234 C 
ATOM     35  H   UNL     1      24.929   1.835  24.283  0.00  0.00    +0.150 HD
BRANCH  11  19
ATOM     19  C   UNL     1      23.561   2.772  22.966  0.00  0.00    +0.184 C 
BRANCH  19  20
ATOM     20  C   UNL     1      24.431   2.478  21.725  0.00  0.00    +0.014 C 
ATOM     24  C   UNL     1      23.830   3.016  20.423  0.00  0.00    +0.009 C 
ATOM     25  C   UNL     1      24.717   0.979  21.589  0.00  0.00    +0.009 C 
ENDBRANCH  19  20
BRANCH  19  23
ATOM      8  O   UNL     1      24.575   4.946  23.280  0.00  0.00    -0.249 OA
ATOM     23  C   UNL     1      23.558   4.260  23.301  0.00  0.00    +0.328 C 
BRANCH  23   7
ATOM      7  O   UNL     1      22.313   4.715  23.618  0.00  0.00    -0.467 OA
ATOM     28  C   UNL     1      22.260   5.734  24.622  0.00  0.00    +0.280 C 
ENDBRANCH  23   7
ENDBRANCH  19  23
ENDBRANCH  11  19
ENDBRANCH  13  17
BRANCH  18  21
ATOM     21  C   UNL     1      23.459   2.631  29.342  0.00  0.00    +0.164 C 
BRANCH  21   1
ATOM      1  S   UNL     1      22.269   3.980  29.324  0.00  0.00    -0.155 S 
ATOM     27  C   UNL     1      23.109   5.108  30.465  0.00  0.00    +0.085 C 
ENDBRANCH  21   1
ENDBRANCH  18  21
TORSDOF 9
ENDMDL
MODEL 7
REMARK VINA RESULT:      -5.6     12.946     16.654
REMARK  Name = 7049404
REMARK  13 active torsions:
REMARK  status: ('A' for Active; 'I' for Inactive)
REMARK    1  A    between atoms: S_1  and  C_21
REMARK    2  A    between atoms: S_1  and  C_27
REMARK    3  A    between atoms: O_7  and  C_23
REMARK    4  A    between atoms: O_7  and  C_28
REMARK    5  A    between atoms: N_10  and  C_14
REMARK    6  A    between atoms: N_11  and  C_19
REMARK    7  A    between atoms: N_12  and  C_26
REMARK    8  A    between atoms: C_13  and  C_17
REMARK    9  A    between atoms: C_18  and  C_21
REMARK   10  A    between atoms: C_19  and  C_20
REMARK   11  A    between atoms: C_19  and  C_23
REMARK   12  A    between atoms: C_20  and  C_24
REMARK   13  A    between atoms: C_20  and  C_25
REMARK                            x       y       z     vdW  Elec       q    Type
REMARK                         _______ _______ _______ _____ _____    ______ ____
ROOT
ATOM      5  O   UNL     1       9.004   7.922   7.942  0.00  0.00    -0.275 OA
ATOM      9  N   UNL     1      10.880   7.441   6.675  0.00  0.00    -0.287 N 
ATOM     13  C   UNL     1      10.710   8.526   5.719  0.00  0.00    +0.164 C 
ATOM     14  C   UNL     1      12.612   7.185   5.070  0.00  0.00    +0.094 C 
ATOM     15  C   UNL     1      12.033   8.598   4.960  0.00  0.00    +0.055 C 
ATOM     16  C   UNL     1      12.120   6.704   6.431  0.00  0.00    +0.131 C 
ATOM     18  C   UNL     1      10.042   7.281   7.768  0.00  0.00    +0.226 C 
ENDROOT
BRANCH  14  10
ATOM      6  O   UNL     1      13.830   6.854   2.498  0.00  0.00    -0.252 OA
ATOM     10  N   UNL     1      12.153   6.333   4.002  0.00  0.00    -0.295 N 
ATOM     12  N   UNL     1      12.135   5.329   1.934  0.00  0.00    -0.267 N 
ATOM     22  C   UNL     1      12.808   6.227   2.768  0.00  0.00    +0.304 C 
ATOM     34  H   UNL     1      11.277   5.833   4.124  0.00  0.00    +0.151 HD
ATOM     36  H   UNL     1      11.298   4.892   2.311  0.00  0.00    +0.156 HD
BRANCH  12  26
ATOM      2  F   UNL     1      13.264   2.843   1.380  0.00  0.00    -0.203 F 
ATOM      3  F   UNL     1      13.465   3.846  -3.240  0.00  0.00    -0.205 F 
ATOM     26  C   UNL     1      12.476   4.949   0.615  0.00  0.00    +0.070 A 
ATOM     29  C   UNL     1      13.039   3.696   0.371  0.00  0.00    +0.147 A 
ATOM     30  C   UNL     1      12.248   5.829  -0.443  0.00  0.00    +0.029 A 
ATOM     31  C   UNL     1      13.374   3.324  -0.931  0.00  0.00    +0.078 A 
ATOM     32  C   UNL     1      12.582   5.456  -1.745  0.00  0.00    +0.040 A 
ATOM     33  C   UNL     1      13.145   4.204  -1.989  0.00  0.00    +0.126 A 
ENDBRANCH  12  26
ENDBRANCH  14  10
BRANCH  13  17
ATOM      4  O   UNL     1       9.088   7.060   4.761  0.00  0.00    -0.274 OA
ATOM     11  N   UNL     1       9.173   9.271   4.040  0.00  0.00    -0.301 N 
ATOM     17  C   UNL     1       9.570   8.188   4.805  0.00  0.00    +0.234 C 
ATOM     35  H   UNL     1       9.600  10.177   4.209  0.00  0.00    +0.150 HD
BRANCH  11  19
ATOM     19  C   UNL     1       8.110   9.201   3.063  0.00  0.00    +0.184 C 
BRANCH  19  20
ATOM     20  C   UNL     1       8.638   9.230   1.613  0.00  0.00    +0.014 C 
ATOM     24  C   UNL     1       7.527   9.383   0.567  0.00  0.00    +0.009 C 
ATOM     25  C   UNL     1       9.479   7.988   1.303  0.00  0.00    +0.009 C 
ENDBRANCH  19  20
BRANCH  19  23
ATOM      8  O   UNL     1       7.340  11.483   3.293  0.00  0.00    -0.249 OA
ATOM     23  C   UNL     1       7.064  10.287   3.294  0.00  0.00    +0.328 C 
BRANCH  23   7
ATOM      7  O   UNL     1       5.820   9.770   3.497  0.00  0.00    -0.467 OA
ATOM     28  C   UNL     1       4.746  10.461   2.852  0.00  0.00    +0.280 C 
ENDBRANCH  23   7
ENDBRANCH  19  23
ENDBRANCH  11  19
ENDBRANCH  13  17
BRANCH  18  21
ATOM     21  C   UNL     1      10.468   6.235   8.767  0.00  0.00    +0.164 C 
BRANCH  21   1
ATOM      1  S   UNL     1       9.501   4.751   8.452  0.00  0.00    -0.155 S 
ATOM     27  C   UNL     1       9.015   4.369  10.153  0.00  0.00    +0.085 C 
ENDBRANCH  21   1
ENDBRANCH  18  21
TORSDOF 9
ENDMDL
MODEL 8
REMARK VINA RESULT:      -5.6     23.663     25.373
REMARK  Name = 7049404
REMARK  13 active torsions:
REMARK  status: ('A' for Active; 'I' for Inactive)
REMARK    1  A    between atoms: S_1  and  C_21
REMARK    2  A    between atoms: S_1  and  C_27
REMARK    3  A    between atoms: O_7  and  C_23
REMARK    4  A    between atoms: O_7  and  C_28
REMARK    5  A    between atoms: N_10  and  C_14
REMARK    6  A    between atoms: N_11  and  C_19
REMARK    7  A    between atoms: N_12  and  C_26
REMARK    8  A    between atoms: C_13  and  C_17
REMARK    9  A    between atoms: C_18  and  C_21
REMARK   10  A    between atoms: C_19  and  C_20
REMARK   11  A    between atoms: C_19  and  C_23
REMARK   12  A    between atoms: C_20  and  C_24
REMARK   13  A    between atoms: C_20  and  C_25
REMARK                            x       y       z     vdW  Elec       q    Type
REMARK                         _______ _______ _______ _____ _____    ______ ____
ROOT
ATOM      5  O   UNL     1      19.779 -11.774   3.358  0.00  0.00    -0.275 OA
ATOM      9  N   UNL     1      19.759 -10.795   1.261  0.00  0.00    -0.287 N 
ATOM     13  C   UNL     1      21.019 -10.079   1.406  0.00  0.00    +0.164 C 
ATOM     14  C   UNL     1      20.022  -9.513  -0.721  0.00  0.00    +0.094 C 
ATOM     15  C   UNL     1      21.371  -9.607  -0.003  0.00  0.00    +0.055 C 
ATOM     16  C   UNL     1      19.200 -10.627  -0.080  0.00  0.00    +0.131 C 
ATOM     18  C   UNL     1      19.282 -11.657   2.237  0.00  0.00    +0.226 C 
ENDROOT
BRANCH  14  10
ATOM      6  O   UNL     1      19.496  -7.568  -2.758  0.00  0.00    -0.252 OA
ATOM     10  N   UNL     1      19.408  -8.221  -0.542  0.00  0.00    -0.295 N 
ATOM     12  N   UNL     1      18.577  -6.158  -1.121  0.00  0.00    -0.267 N 
ATOM     22  C   UNL     1      19.185  -7.324  -1.595  0.00  0.00    +0.304 C 
ATOM     34  H   UNL     1      19.184  -7.920   0.401  0.00  0.00    +0.151 HD
ATOM     36  H   UNL     1      18.385  -6.113  -0.124  0.00  0.00    +0.156 HD
BRANCH  12  26
ATOM      2  F   UNL     1      16.454  -6.246  -2.925  0.00  0.00    -0.203 F 
ATOM      3  F   UNL     1      17.066  -1.686  -4.027  0.00  0.00    -0.205 F 
ATOM     26  C   UNL     1      18.190  -5.018  -1.865  0.00  0.00    +0.070 A 
ATOM     29  C   UNL     1      17.122  -5.095  -2.759  0.00  0.00    +0.147 A 
ATOM     30  C   UNL     1      18.878  -3.816  -1.701  0.00  0.00    +0.029 A 
ATOM     31  C   UNL     1      16.743  -3.970  -3.490  0.00  0.00    +0.078 A 
ATOM     32  C   UNL     1      18.498  -2.691  -2.432  0.00  0.00    +0.040 A 
ATOM     33  C   UNL     1      17.431  -2.767  -3.326  0.00  0.00    +0.126 A 
ENDBRANCH  12  26
ENDBRANCH  14  10
BRANCH  13  17
ATOM      4  O   UNL     1      19.712  -8.398   2.484  0.00  0.00    -0.274 OA
ATOM     11  N   UNL     1      21.986  -8.537   2.961  0.00  0.00    -0.301 N 
ATOM     17  C   UNL     1      20.813  -8.924   2.338  0.00  0.00    +0.234 C 
ATOM     35  H   UNL     1      22.826  -9.089   2.816  0.00  0.00    +0.150 HD
BRANCH  11  19
ATOM     19  C   UNL     1      22.061  -7.432   3.889  0.00  0.00    +0.184 C 
BRANCH  19  20
ATOM     20  C   UNL     1      22.928  -6.270   3.357  0.00  0.00    +0.014 C 
ATOM     24  C   UNL     1      22.110  -5.035   2.964  0.00  0.00    +0.009 C 
ATOM     25  C   UNL     1      23.794  -6.720   2.175  0.00  0.00    +0.009 C 
ENDBRANCH  19  20
BRANCH  19  23
ATOM      8  O   UNL     1      21.818  -7.822   6.264  0.00  0.00    -0.249 OA
ATOM     23  C   UNL     1      22.531  -7.887   5.267  0.00  0.00    +0.328 C 
BRANCH  23   7
ATOM      7  O   UNL     1      23.808  -8.360   5.246  0.00  0.00    -0.467 OA
ATOM     28  C   UNL     1      23.962  -9.751   5.546  0.00  0.00    +0.280 C 
ENDBRANCH  23   7
ENDBRANCH  19  23
ENDBRANCH  11  19
ENDBRANCH  13  17
BRANCH  18  21
ATOM     21  C   UNL     1      18.070 -12.468   1.853  0.00  0.00    +0.164 C 
BRANCH  21   1
ATOM      1  S   UNL     1      16.637 -11.713   2.635  0.00  0.00    -0.155 S 
ATOM     27  C   UNL     1      15.356 -12.824   2.000  0.00  0.00    +0.085 C 
ENDBRANCH  21   1
ENDBRANCH  18  21
TORSDOF 9
ENDMDL
MODEL 9
REMARK VINA RESULT:      -5.6     13.369     16.810
REMARK  Name = 7049404
REMARK  13 active torsions:
REMARK  status: ('A' for Active; 'I' for Inactive)
REMARK    1  A    between atoms: S_1  and  C_21
REMARK    2  A    between atoms: S_1  and  C_27
REMARK    3  A    between atoms: O_7  and  C_23
REMARK    4  A    between atoms: O_7  and  C_28
REMARK    5  A    between atoms: N_10  and  C_14
REMARK    6  A    between atoms: N_11  and  C_19
REMARK    7  A    between atoms: N_12  and  C_26
REMARK    8  A    between atoms: C_13  and  C_17
REMARK    9  A    between atoms: C_18  and  C_21
REMARK   10  A    between atoms: C_19  and  C_20
REMARK   11  A    between atoms: C_19  and  C_23
REMARK   12  A    between atoms: C_20  and  C_24
REMARK   13  A    between atoms: C_20  and  C_25
REMARK                            x       y       z     vdW  Elec       q    Type
REMARK                         _______ _______ _______ _____ _____    ______ ____
ROOT
ATOM      5  O   UNL     1       9.915   4.849  -0.343  0.00  0.00    -0.275 OA
ATOM      9  N   UNL     1      12.096   5.071   0.399  0.00  0.00    -0.287 N 
ATOM     13  C   UNL     1      12.125   3.843   1.182  0.00  0.00    +0.164 C 
ATOM     14  C   UNL     1      14.218   5.018   1.467  0.00  0.00    +0.094 C 
ATOM     15  C   UNL     1      13.599   3.617   1.513  0.00  0.00    +0.055 C 
ATOM     16  C   UNL     1      13.402   5.731   0.394  0.00  0.00    +0.131 C 
ATOM     18  C   UNL     1      11.001   5.430  -0.372  0.00  0.00    +0.226 C 
ENDROOT
BRANCH  14  10
ATOM      6  O   UNL     1      15.703   7.321   2.300  0.00  0.00    -0.252 OA
ATOM     10  N   UNL     1      14.130   5.685   2.741  0.00  0.00    -0.295 N 
ATOM     12  N   UNL     1      14.597   7.239   4.370  0.00  0.00    -0.267 N 
ATOM     22  C   UNL     1      14.895   6.812   3.073  0.00  0.00    +0.304 C 
ATOM     34  H   UNL     1      13.532   5.283   3.457  0.00  0.00    +0.151 HD
ATOM     36  H   UNL     1      13.899   6.703   4.880  0.00  0.00    +0.156 HD
BRANCH  12  26
ATOM      2  F   UNL     1      12.995   9.286   5.374  0.00  0.00    -0.203 F 
ATOM      3  F   UNL     1      16.777  11.532   7.117  0.00  0.00    -0.205 F 
ATOM     26  C   UNL     1      15.151   8.336   5.070  0.00  0.00    +0.070 A 
ATOM     29  C   UNL     1      14.321   9.344   5.561  0.00  0.00    +0.147 A 
ATOM     30  C   UNL     1      16.529   8.408   5.270  0.00  0.00    +0.029 A 
ATOM     31  C   UNL     1      14.870  10.424   6.252  0.00  0.00    +0.078 A 
ATOM     32  C   UNL     1      17.078   9.488   5.961  0.00  0.00    +0.040 A 
ATOM     33  C   UNL     1      16.249  10.496   6.452  0.00  0.00    +0.126 A 
ENDBRANCH  12  26
ENDBRANCH  14  10
BRANCH  13  17
ATOM      4  O   UNL     1      11.011   3.109   3.162  0.00  0.00    -0.274 OA
ATOM     11  N   UNL     1      10.933   5.365   2.596  0.00  0.00    -0.301 N 
ATOM     17  C   UNL     1      11.307   4.044   2.423  0.00  0.00    +0.234 C 
ATOM     35  H   UNL     1      11.293   6.067   1.956  0.00  0.00    +0.150 HD
BRANCH  11  19
ATOM     19  C   UNL     1      10.121   5.818   3.702  0.00  0.00    +0.184 C 
BRANCH  19  20
ATOM     20  C   UNL     1       9.553   7.236   3.476  0.00  0.00    +0.014 C 
ATOM     24  C   UNL     1       8.297   7.525   4.305  0.00  0.00    +0.009 C 
ATOM     25  C   UNL     1       9.269   7.491   1.992  0.00  0.00    +0.009 C 
ENDBRANCH  19  20
BRANCH  19  23
ATOM      8  O   UNL     1      11.932   6.314   5.226  0.00  0.00    -0.249 OA
ATOM     23  C   UNL     1      10.874   5.727   5.025  0.00  0.00    +0.328 C 
BRANCH  23   7
ATOM      7  O   UNL     1      10.236   4.931   5.928  0.00  0.00    -0.467 OA
ATOM     28  C   UNL     1       9.845   5.566   7.150  0.00  0.00    +0.280 C 
ENDBRANCH  23   7
ENDBRANCH  19  23
ENDBRANCH  11  19
ENDBRANCH  13  17
BRANCH  18  21
ATOM     21  C   UNL     1      11.204   6.621  -1.274  0.00  0.00    +0.164 C 
BRANCH  21   1
ATOM      1  S   UNL     1       9.590   7.118  -1.894  0.00  0.00    -0.155 S 
ATOM     27  C   UNL     1       9.715   6.446  -3.569  0.00  0.00    +0.085 C 
ENDBRANCH  21   1
ENDBRANCH  18  21
TORSDOF 9
ENDMDL
MODEL 10
REMARK VINA RESULT:      -5.5      5.814      9.396
REMARK  Name = 7049404
REMARK  13 active torsions:
REMARK  status: ('A' for Active; 'I' for Inactive)
REMARK    1  A    between atoms: S_1  and  C_21
REMARK    2  A    between atoms: S_1  and  C_27
REMARK    3  A    between atoms: O_7  and  C_23
REMARK    4  A    between atoms: O_7  and  C_28
REMARK    5  A    between atoms: N_10  and  C_14
REMARK    6  A    between atoms: N_11  and  C_19
REMARK    7  A    between atoms: N_12  and  C_26
REMARK    8  A    between atoms: C_13  and  C_17
REMARK    9  A    between atoms: C_18  and  C_21
REMARK   10  A    between atoms: C_19  and  C_20
REMARK   11  A    between atoms: C_19  and  C_23
REMARK   12  A    between atoms: C_20  and  C_24
REMARK   13  A    between atoms: C_20  and  C_25
REMARK                            x       y       z     vdW  Elec       q    Type
REMARK                         _______ _______ _______ _____ _____    ______ ____
ROOT
ATOM      5  O   UNL     1      23.014   5.678  23.123  0.00  0.00    -0.275 OA
ATOM      9  N   UNL     1      21.464   7.060  22.101  0.00  0.00    -0.287 N 
ATOM     13  C   UNL     1      21.394   8.043  23.173  0.00  0.00    +0.164 C 
ATOM     14  C   UNL     1      19.804   8.631  21.451  0.00  0.00    +0.094 C 
ATOM     15  C   UNL     1      20.656   9.237  22.571  0.00  0.00    +0.055 C 
ATOM     16  C   UNL     1      20.650   7.463  20.954  0.00  0.00    +0.131 C 
ATOM     18  C   UNL     1      22.342   5.988  22.137  0.00  0.00    +0.226 C 
ENDROOT
BRANCH  14  10
ATOM      6  O   UNL     1      17.241   9.535  20.545  0.00  0.00    -0.252 OA
ATOM     10  N   UNL     1      18.517   8.195  21.931  0.00  0.00    -0.295 N 
ATOM     12  N   UNL     1      16.227   8.084  22.087  0.00  0.00    -0.267 N 
ATOM     22  C   UNL     1      17.304   8.689  21.434  0.00  0.00    +0.304 C 
ATOM     34  H   UNL     1      18.487   7.546  22.712  0.00  0.00    +0.151 HD
ATOM     36  H   UNL     1      16.451   7.399  22.805  0.00  0.00    +0.156 HD
BRANCH  12  26
ATOM      2  F   UNL     1      14.639   6.228  20.746  0.00  0.00    -0.203 F 
ATOM      3  F   UNL     1      10.817   8.970  21.261  0.00  0.00    -0.205 F 
ATOM     26  C   UNL     1      14.846   8.309  21.874  0.00  0.00    +0.070 A 
ATOM     29  C   UNL     1      14.079   7.359  21.200  0.00  0.00    +0.147 A 
ATOM     30  C   UNL     1      14.253   9.481  22.341  0.00  0.00    +0.029 A 
ATOM     31  C   UNL     1      12.718   7.582  20.992  0.00  0.00    +0.078 A 
ATOM     32  C   UNL     1      12.892   9.705  22.133  0.00  0.00    +0.040 A 
ATOM     33  C   UNL     1      12.124   8.755  21.459  0.00  0.00    +0.126 A 
ENDBRANCH  12  26
ENDBRANCH  14  10
BRANCH  13  17
ATOM      4  O   UNL     1      19.928   6.455  24.187  0.00  0.00    -0.274 OA
ATOM     11  N   UNL     1      20.819   8.162  25.495  0.00  0.00    -0.301 N 
ATOM     17  C   UNL     1      20.636   7.450  24.322  0.00  0.00    +0.234 C 
ATOM     35  H   UNL     1      21.483   8.931  25.506  0.00  0.00    +0.150 HD
BRANCH  11  19
ATOM     19  C   UNL     1      20.179   7.810  26.742  0.00  0.00    +0.184 C 
BRANCH  19  20
ATOM     20  C   UNL     1      20.264   8.941  27.789  0.00  0.00    +0.014 C 
ATOM     24  C   UNL     1      19.561   8.600  29.107  0.00  0.00    +0.009 C 
ATOM     25  C   UNL     1      19.714  10.257  27.231  0.00  0.00    +0.009 C 
ENDBRANCH  19  20
BRANCH  19  23
ATOM      8  O   UNL     1      20.013   5.508  27.466  0.00  0.00    -0.249 OA
ATOM     23  C   UNL     1      20.720   6.497  27.299  0.00  0.00    +0.328 C 
BRANCH  23   7
ATOM      7  O   UNL     1      22.051   6.565  27.580  0.00  0.00    -0.467 OA
ATOM     28  C   UNL     1      22.457   5.976  28.820  0.00  0.00    +0.280 C 
ENDBRANCH  23   7
ENDBRANCH  19  23
ENDBRANCH  11  19
ENDBRANCH  13  17
BRANCH  18  21
ATOM     21  C   UNL     1      22.433   5.178  20.869  0.00  0.00    +0.164 C 
BRANCH  21   1
ATOM      1  S   UNL     1      21.772   3.541  21.217  0.00  0.00    -0.155 S 
ATOM     27  C   UNL     1      23.300   2.584  21.057  0.00  0.00    +0.085 C 
ENDBRANCH  21   1
ENDBRANCH  18  21
TORSDOF 9
ENDMDL
