MODEL 1
REMARK VINA RESULT:      -7.4      0.000      0.000
REMARK  Name = 40780146
REMARK  12 active torsions:
REMARK  status: ('A' for Active; 'I' for Inactive)
REMARK    1  A    between atoms: O_2  and  C_27
REMARK    2  A    between atoms: O_2  and  C_35
REMARK    3  A    between atoms: O_3  and  C_29
REMARK    4  A    between atoms: O_3  and  C_36
REMARK    5  A    between atoms: O_4  and  C_34
REMARK    6  A    between atoms: O_4  and  C_37
REMARK    7  A    between atoms: N_6  and  C_21
REMARK    8  A    between atoms: N_7  and  C_18
REMARK    9  A    between atoms: N_9  and  C_26
REMARK   10  A    between atoms: C_11  and  C_17
REMARK   11  A    between atoms: C_12  and  C_18
REMARK   12  A    between atoms: C_20  and  C_23
REMARK                            x       y       z     vdW  Elec       q    Type
REMARK                         _______ _______ _______ _____ _____    ______ ____
ROOT
ATOM      5  N   UNL     1      -6.640 -10.773  18.195  0.00  0.00    -0.297 NA
ATOM     10  C   UNL     1      -4.425 -12.057  17.716  0.00  0.00    +0.002 C 
ATOM     11  C   UNL     1      -4.449 -10.710  16.945  0.00  0.00    +0.055 C 
ATOM     12  C   UNL     1      -6.940 -12.177  17.808  0.00  0.00    +0.074 C 
ATOM     13  C   UNL     1      -5.660 -12.893  17.322  0.00  0.00    +0.024 C 
ATOM     14  C   UNL     1      -4.569 -11.715  19.215  0.00  0.00    +0.019 C 
ATOM     15  C   UNL     1      -5.871 -10.102  17.117  0.00  0.00    +0.094 C 
ATOM     16  C   UNL     1      -5.795 -10.809  19.413  0.00  0.00    +0.085 C 
ENDROOT
BRANCH  11  17
ATOM      6  N   UNL     1      -2.677 -10.684  15.129  0.00  0.00    -0.270 N 
ATOM      8  N   UNL     1      -2.483 -10.681  13.799  0.00  0.00    -0.171 NA
ATOM     17  C   UNL     1      -3.991 -10.703  15.493  0.00  0.00    +0.044 A 
ATOM     19  C   UNL     1      -4.706 -10.714  14.321  0.00  0.00    +0.053 A 
ATOM     20  C   UNL     1      -3.726 -10.700  13.311  0.00  0.00    +0.093 A 
ATOM     21  C   UNL     1      -1.532 -10.663  16.009  0.00  0.00    +0.172 C 
BRANCH  20  23
ATOM     23  C   UNL     1      -3.955 -10.703  11.889  0.00  0.00    +0.006 A 
ATOM     24  C   UNL     1      -4.524  -9.588  11.273  0.00  0.00    +0.059 A 
ATOM     25  C   UNL     1      -3.606 -11.819  11.129  0.00  0.00    +0.014 A 
ATOM     27  C   UNL     1      -4.746  -9.591   9.896  0.00  0.00    +0.162 A 
ATOM     28  C   UNL     1      -3.829 -11.821   9.751  0.00  0.00    +0.050 A 
ATOM     29  C   UNL     1      -4.398 -10.707   9.135  0.00  0.00    +0.162 A 
BRANCH  27   2
ATOM      2  O   UNL     1      -5.303  -8.497   9.305  0.00  0.00    -0.491 OA
ATOM     35  C   UNL     1      -6.726  -8.405   9.323  0.00  0.00    +0.277 C 
ENDBRANCH  27   2
BRANCH  29   3
ATOM      3  O   UNL     1      -4.609 -10.721   7.789  0.00  0.00    -0.491 OA
ATOM     36  C   UNL     1      -4.484 -11.978   7.127  0.00  0.00    +0.277 C 
ENDBRANCH  29   3
ENDBRANCH  20  23
ENDBRANCH  11  17
BRANCH  12  18
ATOM     18  C   UNL     1      -8.071 -12.270  16.781  0.00  0.00    +0.124 C 
BRANCH  18   7
ATOM      1  O   UNL     1      -8.895 -10.143  15.050  0.00  0.00    -0.253 OA
ATOM      7  N   UNL     1      -9.084 -11.297  17.047  0.00  0.00    -0.298 N 
ATOM      9  N   UNL     1     -10.454  -9.477  16.675  0.00  0.00    -0.269 N 
ATOM     22  C   UNL     1      -9.436 -10.276  16.146  0.00  0.00    +0.304 C 
ATOM     38  H   UNL     1      -9.572 -11.341  17.936  0.00  0.00    +0.150 HD
ATOM     39  H   UNL     1     -10.793  -9.724  17.601  0.00  0.00    +0.156 HD
BRANCH   9  26
ATOM     26  C   UNL     1     -11.076  -8.356  16.078  0.00  0.00    +0.035 A 
ATOM     30  C   UNL     1     -12.105  -8.540  15.153  0.00  0.00    +0.027 A 
ATOM     31  C   UNL     1     -10.662  -7.067  16.413  0.00  0.00    +0.027 A 
ATOM     32  C   UNL     1     -12.719  -7.435  14.565  0.00  0.00    +0.047 A 
ATOM     33  C   UNL     1     -11.276  -5.962  15.824  0.00  0.00    +0.047 A 
ATOM     34  C   UNL     1     -12.304  -6.145  14.900  0.00  0.00    +0.120 A 
BRANCH  34   4
ATOM      4  O   UNL     1     -12.904  -5.067  14.325  0.00  0.00    -0.495 OA
ATOM     37  C   UNL     1     -12.353  -4.597  13.095  0.00  0.00    +0.277 C 
ENDBRANCH  34   4
ENDBRANCH   9  26
ENDBRANCH  18   7
ENDBRANCH  12  18
TORSDOF 8
ENDMDL
MODEL 2
REMARK VINA RESULT:      -7.4     24.341     28.055
REMARK  Name = 40780146
REMARK  12 active torsions:
REMARK  status: ('A' for Active; 'I' for Inactive)
REMARK    1  A    between atoms: O_2  and  C_27
REMARK    2  A    between atoms: O_2  and  C_35
REMARK    3  A    between atoms: O_3  and  C_29
REMARK    4  A    between atoms: O_3  and  C_36
REMARK    5  A    between atoms: O_4  and  C_34
REMARK    6  A    between atoms: O_4  and  C_37
REMARK    7  A    between atoms: N_6  and  C_21
REMARK    8  A    between atoms: N_7  and  C_18
REMARK    9  A    between atoms: N_9  and  C_26
REMARK   10  A    between atoms: C_11  and  C_17
REMARK   11  A    between atoms: C_12  and  C_18
REMARK   12  A    between atoms: C_20  and  C_23
REMARK                            x       y       z     vdW  Elec       q    Type
REMARK                         _______ _______ _______ _____ _____    ______ ____
ROOT
ATOM      5  N   UNL     1      13.900   5.005  -0.671  0.00  0.00    -0.297 NA
ATOM     10  C   UNL     1      12.343   3.334   0.581  0.00  0.00    +0.002 C 
ATOM     11  C   UNL     1      11.675   4.733   0.487  0.00  0.00    +0.055 C 
ATOM     12  C   UNL     1      14.660   4.306   0.398  0.00  0.00    +0.074 C 
ATOM     13  C   UNL     1      13.711   3.467   1.282  0.00  0.00    +0.024 C 
ATOM     14  C   UNL     1      12.619   2.875  -0.867  0.00  0.00    +0.019 C 
ATOM     15  C   UNL     1      12.736   5.716  -0.085  0.00  0.00    +0.094 C 
ATOM     16  C   UNL     1      13.390   3.978  -1.611  0.00  0.00    +0.085 C 
ENDROOT
BRANCH  11  17
ATOM      6  N   UNL     1      10.183   6.388   1.703  0.00  0.00    -0.270 N 
ATOM      8  N   UNL     1       9.671   6.712   2.902  0.00  0.00    -0.171 NA
ATOM     17  C   UNL     1      10.986   5.285   1.728  0.00  0.00    +0.044 A 
ATOM     19  C   UNL     1      11.000   4.859   3.033  0.00  0.00    +0.053 A 
ATOM     20  C   UNL     1      10.173   5.774   3.711  0.00  0.00    +0.093 A 
ATOM     21  C   UNL     1       9.856   7.198   0.553  0.00  0.00    +0.172 C 
BRANCH  20  23
ATOM     23  C   UNL     1       9.856   5.773   5.115  0.00  0.00    +0.006 A 
ATOM     24  C   UNL     1       9.267   6.895   5.698  0.00  0.00    +0.059 A 
ATOM     25  C   UNL     1      10.137   4.649   5.892  0.00  0.00    +0.014 A 
ATOM     27  C   UNL     1       8.961   6.893   7.059  0.00  0.00    +0.162 A 
ATOM     28  C   UNL     1       9.830   4.648   7.253  0.00  0.00    +0.050 A 
ATOM     29  C   UNL     1       9.241   5.770   7.836  0.00  0.00    +0.162 A 
BRANCH  27   2
ATOM      2  O   UNL     1       8.386   7.996   7.617  0.00  0.00    -0.491 OA
ATOM     35  C   UNL     1       9.261   9.041   8.034  0.00  0.00    +0.277 C 
ENDBRANCH  27   2
BRANCH  29   3
ATOM      3  O   UNL     1       8.945   5.756   9.166  0.00  0.00    -0.491 OA
ATOM     36  C   UNL     1       9.338   4.602   9.905  0.00  0.00    +0.277 C 
ENDBRANCH  29   3
ENDBRANCH  20  23
ENDBRANCH  11  17
BRANCH  12  18
ATOM     18  C   UNL     1      15.515   5.265   1.229  0.00  0.00    +0.124 C 
BRANCH  18   7
ATOM      1  O   UNL     1      15.275   7.866   2.404  0.00  0.00    -0.253 OA
ATOM      7  N   UNL     1      14.867   5.589   2.463  0.00  0.00    -0.298 N 
ATOM      9  N   UNL     1      14.100   6.907   4.195  0.00  0.00    -0.269 N 
ATOM     22  C   UNL     1      14.789   6.895   2.980  0.00  0.00    +0.304 C 
ATOM     38  H   UNL     1      14.445   4.836   2.996  0.00  0.00    +0.150 HD
ATOM     39  H   UNL     1      13.760   6.011   4.536  0.00  0.00    +0.156 HD
BRANCH   9  26
ATOM     26  C   UNL     1      13.815   8.019   5.021  0.00  0.00    +0.035 A 
ATOM     30  C   UNL     1      12.518   8.529   5.082  0.00  0.00    +0.027 A 
ATOM     31  C   UNL     1      14.831   8.607   5.775  0.00  0.00    +0.027 A 
ATOM     32  C   UNL     1      12.236   9.625   5.896  0.00  0.00    +0.047 A 
ATOM     33  C   UNL     1      14.550   9.704   6.589  0.00  0.00    +0.047 A 
ATOM     34  C   UNL     1      13.252  10.213   6.650  0.00  0.00    +0.120 A 
BRANCH  34   4
ATOM      4  O   UNL     1      12.977  11.284   7.445  0.00  0.00    -0.495 OA
ATOM     37  C   UNL     1      12.099  11.064   8.548  0.00  0.00    +0.277 C 
ENDBRANCH  34   4
ENDBRANCH   9  26
ENDBRANCH  18   7
ENDBRANCH  12  18
TORSDOF 8
ENDMDL
MODEL 3
REMARK VINA RESULT:      -7.3      2.676      3.496
REMARK  Name = 40780146
REMARK  12 active torsions:
REMARK  status: ('A' for Active; 'I' for Inactive)
REMARK    1  A    between atoms: O_2  and  C_27
REMARK    2  A    between atoms: O_2  and  C_35
REMARK    3  A    between atoms: O_3  and  C_29
REMARK    4  A    between atoms: O_3  and  C_36
REMARK    5  A    between atoms: O_4  and  C_34
REMARK    6  A    between atoms: O_4  and  C_37
REMARK    7  A    between atoms: N_6  and  C_21
REMARK    8  A    between atoms: N_7  and  C_18
REMARK    9  A    between atoms: N_9  and  C_26
REMARK   10  A    between atoms: C_11  and  C_17
REMARK   11  A    between atoms: C_12  and  C_18
REMARK   12  A    between atoms: C_20  and  C_23
REMARK                            x       y       z     vdW  Elec       q    Type
REMARK                         _______ _______ _______ _____ _____    ______ ____
ROOT
ATOM      5  N   UNL     1      -5.918 -10.541  18.208  0.00  0.00    -0.297 NA
ATOM     10  C   UNL     1      -4.543 -12.462  17.109  0.00  0.00    +0.002 C 
ATOM     11  C   UNL     1      -3.990 -11.078  16.670  0.00  0.00    +0.055 C 
ATOM     12  C   UNL     1      -6.835 -11.523  17.571  0.00  0.00    +0.074 C 
ATOM     13  C   UNL     1      -6.039 -12.553  16.741  0.00  0.00    +0.024 C 
ATOM     14  C   UNL     1      -4.452 -12.510  18.649  0.00  0.00    +0.019 C 
ATOM     15  C   UNL     1      -4.976  -9.996  17.198  0.00  0.00    +0.094 C 
ATOM     16  C   UNL     1      -5.128 -11.260  19.237  0.00  0.00    +0.085 C 
ENDROOT
BRANCH  11  17
ATOM      6  N   UNL     1      -2.392 -10.536  14.775  0.00  0.00    -0.270 N 
ATOM      8  N   UNL     1      -2.292 -10.404  13.442  0.00  0.00    -0.171 NA
ATOM     17  C   UNL     1      -3.642 -10.875  15.202  0.00  0.00    +0.044 A 
ATOM     19  C   UNL     1      -4.413 -10.971  14.070  0.00  0.00    +0.053 A 
ATOM     20  C   UNL     1      -3.530 -10.672  13.016  0.00  0.00    +0.093 A 
ATOM     21  C   UNL     1      -1.224 -10.315  15.596  0.00  0.00    +0.172 C 
BRANCH  20  23
ATOM     23  C   UNL     1      -3.846 -10.633  11.612  0.00  0.00    +0.006 A 
ATOM     24  C   UNL     1      -4.575 -11.671  11.033  0.00  0.00    +0.059 A 
ATOM     25  C   UNL     1      -3.421  -9.559  10.831  0.00  0.00    +0.014 A 
ATOM     27  C   UNL     1      -4.880 -11.635   9.672  0.00  0.00    +0.162 A 
ATOM     28  C   UNL     1      -3.726  -9.522   9.470  0.00  0.00    +0.050 A 
ATOM     29  C   UNL     1      -4.456 -10.560   8.891  0.00  0.00    +0.162 A 
BRANCH  27   2
ATOM      2  O   UNL     1      -5.594 -12.655   9.118  0.00  0.00    -0.491 OA
ATOM     35  C   UNL     1      -7.015 -12.566   9.193  0.00  0.00    +0.277 C 
ENDBRANCH  27   2
BRANCH  29   3
ATOM      3  O   UNL     1      -4.749 -10.513   7.561  0.00  0.00    -0.491 OA
ATOM     36  C   UNL     1      -5.781  -9.615   7.157  0.00  0.00    +0.277 C 
ENDBRANCH  29   3
ENDBRANCH  20  23
ENDBRANCH  11  17
BRANCH  12  18
ATOM     18  C   UNL     1      -7.929 -10.846  16.743  0.00  0.00    +0.124 C 
BRANCH  18   7
ATOM      1  O   UNL     1      -8.890  -9.172  14.627  0.00  0.00    -0.253 OA
ATOM      7  N   UNL     1      -7.691 -11.017  15.343  0.00  0.00    -0.298 N 
ATOM      9  N   UNL     1      -7.804 -10.567  13.083  0.00  0.00    -0.269 N 
ATOM     22  C   UNL     1      -8.198 -10.151  14.357  0.00  0.00    +0.304 C 
ATOM     38  H   UNL     1      -7.131 -11.809  15.044  0.00  0.00    +0.150 HD
ATOM     39  H   UNL     1      -7.229 -11.404  13.033  0.00  0.00    +0.156 HD
BRANCH   9  26
ATOM     26  C   UNL     1      -8.109  -9.964  11.840  0.00  0.00    +0.035 A 
ATOM     30  C   UNL     1      -9.361 -10.162  11.257  0.00  0.00    +0.027 A 
ATOM     31  C   UNL     1      -7.158  -9.172  11.197  0.00  0.00    +0.027 A 
ATOM     32  C   UNL     1      -9.662  -9.568  10.032  0.00  0.00    +0.047 A 
ATOM     33  C   UNL     1      -7.459  -8.578   9.971  0.00  0.00    +0.047 A 
ATOM     34  C   UNL     1      -8.711  -8.776   9.389  0.00  0.00    +0.120 A 
BRANCH  34   4
ATOM      4  O   UNL     1      -9.005  -8.196   8.193  0.00  0.00    -0.495 OA
ATOM     37  C   UNL     1      -8.353  -6.962   7.892  0.00  0.00    +0.277 C 
ENDBRANCH  34   4
ENDBRANCH   9  26
ENDBRANCH  18   7
ENDBRANCH  12  18
TORSDOF 8
ENDMDL
MODEL 4
REMARK VINA RESULT:      -7.2     18.638     21.947
REMARK  Name = 40780146
REMARK  12 active torsions:
REMARK  status: ('A' for Active; 'I' for Inactive)
REMARK    1  A    between atoms: O_2  and  C_27
REMARK    2  A    between atoms: O_2  and  C_35
REMARK    3  A    between atoms: O_3  and  C_29
REMARK    4  A    between atoms: O_3  and  C_36
REMARK    5  A    between atoms: O_4  and  C_34
REMARK    6  A    between atoms: O_4  and  C_37
REMARK    7  A    between atoms: N_6  and  C_21
REMARK    8  A    between atoms: N_7  and  C_18
REMARK    9  A    between atoms: N_9  and  C_26
REMARK   10  A    between atoms: C_11  and  C_17
REMARK   11  A    between atoms: C_12  and  C_18
REMARK   12  A    between atoms: C_20  and  C_23
REMARK                            x       y       z     vdW  Elec       q    Type
REMARK                         _______ _______ _______ _____ _____    ______ ____
ROOT
ATOM      5  N   UNL     1     -16.160   5.864  22.538  0.00  0.00    -0.297 NA
ATOM     10  C   UNL     1     -17.209   3.696  23.529  0.00  0.00    +0.002 C 
ATOM     11  C   UNL     1     -17.398   4.888  24.507  0.00  0.00    +0.055 C 
ATOM     12  C   UNL     1     -15.181   4.747  22.466  0.00  0.00    +0.074 C 
ATOM     13  C   UNL     1     -15.706   3.513  23.233  0.00  0.00    +0.024 C 
ATOM     14  C   UNL     1     -17.887   4.097  22.202  0.00  0.00    +0.019 C 
ATOM     15  C   UNL     1     -16.578   6.084  23.945  0.00  0.00    +0.094 C 
ATOM     16  C   UNL     1     -17.357   5.470  21.755  0.00  0.00    +0.085 C 
ENDROOT
BRANCH  11  17
ATOM      6  N   UNL     1     -17.573   5.497  26.965  0.00  0.00    -0.270 N 
ATOM      8  N   UNL     1     -17.235   5.111  28.207  0.00  0.00    -0.171 NA
ATOM     17  C   UNL     1     -17.134   4.652  25.988  0.00  0.00    +0.044 A 
ATOM     19  C   UNL     1     -16.463   3.644  26.636  0.00  0.00    +0.053 A 
ATOM     20  C   UNL     1     -16.558   3.978  28.000  0.00  0.00    +0.093 A 
ATOM     21  C   UNL     1     -18.330   6.714  26.785  0.00  0.00    +0.172 C 
BRANCH  20  23
ATOM     23  C   UNL     1     -16.013   3.238  29.108  0.00  0.00    +0.006 A 
ATOM     24  C   UNL     1     -15.815   1.862  28.997  0.00  0.00    +0.059 A 
ATOM     25  C   UNL     1     -15.683   3.898  30.292  0.00  0.00    +0.014 A 
ATOM     27  C   UNL     1     -15.288   1.145  30.071  0.00  0.00    +0.162 A 
ATOM     28  C   UNL     1     -15.155   3.180  31.366  0.00  0.00    +0.050 A 
ATOM     29  C   UNL     1     -14.957   1.804  31.255  0.00  0.00    +0.162 A 
BRANCH  27   2
ATOM      2  O   UNL     1     -15.098  -0.199  29.951  0.00  0.00    -0.491 OA
ATOM     35  C   UNL     1     -13.830  -0.634  29.468  0.00  0.00    +0.277 C 
ENDBRANCH  27   2
BRANCH  29   3
ATOM      3  O   UNL     1     -14.441   1.115  32.311  0.00  0.00    -0.491 OA
ATOM     36  C   UNL     1     -14.584   1.704  33.601  0.00  0.00    +0.277 C 
ENDBRANCH  29   3
ENDBRANCH  20  23
ENDBRANCH  11  17
BRANCH  12  18
ATOM     18  C   UNL     1     -13.787   5.162  22.940  0.00  0.00    +0.124 C 
BRANCH  18   7
ATOM      1  O   UNL     1     -13.360   7.654  21.594  0.00  0.00    -0.253 OA
ATOM      7  N   UNL     1     -12.918   5.395  21.828  0.00  0.00    -0.298 N 
ATOM      9  N   UNL     1     -11.849   6.576  20.157  0.00  0.00    -0.269 N 
ATOM     22  C   UNL     1     -12.759   6.652  21.215  0.00  0.00    +0.304 C 
ATOM     38  H   UNL     1     -12.391   4.611  21.457  0.00  0.00    +0.150 HD
ATOM     39  H   UNL     1     -11.438   5.664  19.974  0.00  0.00    +0.156 HD
BRANCH   9  26
ATOM     26  C   UNL     1     -11.425   7.619  19.301  0.00  0.00    +0.035 A 
ATOM     30  C   UNL     1     -11.931   7.705  18.003  0.00  0.00    +0.027 A 
ATOM     31  C   UNL     1     -10.501   8.561  19.753  0.00  0.00    +0.027 A 
ATOM     32  C   UNL     1     -11.513   8.733  17.159  0.00  0.00    +0.047 A 
ATOM     33  C   UNL     1     -10.082   9.588  18.908  0.00  0.00    +0.047 A 
ATOM     34  C   UNL     1     -10.588   9.675  17.611  0.00  0.00    +0.120 A 
BRANCH  34   4
ATOM      4  O   UNL     1     -10.181  10.678  16.786  0.00  0.00    -0.495 OA
ATOM     37  C   UNL     1     -10.974  10.927  15.627  0.00  0.00    +0.277 C 
ENDBRANCH  34   4
ENDBRANCH   9  26
ENDBRANCH  18   7
ENDBRANCH  12  18
TORSDOF 8
ENDMDL
MODEL 5
REMARK VINA RESULT:      -7.2     27.390     30.852
REMARK  Name = 40780146
REMARK  12 active torsions:
REMARK  status: ('A' for Active; 'I' for Inactive)
REMARK    1  A    between atoms: O_2  and  C_27
REMARK    2  A    between atoms: O_2  and  C_35
REMARK    3  A    between atoms: O_3  and  C_29
REMARK    4  A    between atoms: O_3  and  C_36
REMARK    5  A    between atoms: O_4  and  C_34
REMARK    6  A    between atoms: O_4  and  C_37
REMARK    7  A    between atoms: N_6  and  C_21
REMARK    8  A    between atoms: N_7  and  C_18
REMARK    9  A    between atoms: N_9  and  C_26
REMARK   10  A    between atoms: C_11  and  C_17
REMARK   11  A    between atoms: C_12  and  C_18
REMARK   12  A    between atoms: C_20  and  C_23
REMARK                            x       y       z     vdW  Elec       q    Type
REMARK                         _______ _______ _______ _____ _____    ______ ____
ROOT
ATOM      5  N   UNL     1      13.232   7.476  20.904  0.00  0.00    -0.297 NA
ATOM     10  C   UNL     1      11.547   9.109  19.774  0.00  0.00    +0.002 C 
ATOM     11  C   UNL     1      12.379   8.357  18.699  0.00  0.00    +0.055 C 
ATOM     12  C   UNL     1      13.340   8.824  21.521  0.00  0.00    +0.074 C 
ATOM     13  C   UNL     1      12.503   9.853  20.730  0.00  0.00    +0.024 C 
ATOM     14  C   UNL     1      10.819   8.033  20.607  0.00  0.00    +0.019 C 
ATOM     15  C   UNL     1      13.489   7.561  19.445  0.00  0.00    +0.094 C 
ATOM     16  C   UNL     1      11.842   6.996  21.102  0.00  0.00    +0.085 C 
ENDROOT
BRANCH  11  17
ATOM      6  N   UNL     1      12.235   9.358  16.372  0.00  0.00    -0.270 N 
ATOM      8  N   UNL     1      12.898  10.090  15.460  0.00  0.00    -0.171 NA
ATOM     17  C   UNL     1      12.931   9.157  17.527  0.00  0.00    +0.044 A 
ATOM     19  C   UNL     1      14.132   9.801  17.360  0.00  0.00    +0.053 A 
ATOM     20  C   UNL     1      14.056  10.358  16.070  0.00  0.00    +0.093 A 
ATOM     21  C   UNL     1      10.911   8.872  16.059  0.00  0.00    +0.172 C 
BRANCH  20  23
ATOM     23  C   UNL     1      15.068  11.139  15.407  0.00  0.00    +0.006 A 
ATOM     24  C   UNL     1      15.151  11.135  14.015  0.00  0.00    +0.059 A 
ATOM     25  C   UNL     1      15.964  11.899  16.158  0.00  0.00    +0.014 A 
ATOM     27  C   UNL     1      16.132  11.890  13.373  0.00  0.00    +0.162 A 
ATOM     28  C   UNL     1      16.946  12.655  15.515  0.00  0.00    +0.050 A 
ATOM     29  C   UNL     1      17.029  12.651  14.123  0.00  0.00    +0.162 A 
BRANCH  27   2
ATOM      2  O   UNL     1      16.204  11.878  12.012  0.00  0.00    -0.491 OA
ATOM     35  C   UNL     1      15.290  12.715  11.309  0.00  0.00    +0.277 C 
ENDBRANCH  27   2
BRANCH  29   3
ATOM      3  O   UNL     1      17.991  13.394  13.508  0.00  0.00    -0.491 OA
ATOM     36  C   UNL     1      17.788  14.804  13.460  0.00  0.00    +0.277 C 
ENDBRANCH  29   3
ENDBRANCH  20  23
ENDBRANCH  11  17
BRANCH  12  18
ATOM     18  C   UNL     1      14.793   9.276  21.684  0.00  0.00    +0.124 C 
BRANCH  18   7
ATOM      1  O   UNL     1      17.508   8.974  20.822  0.00  0.00    -0.253 OA
ATOM      7  N   UNL     1      15.650   8.159  21.935  0.00  0.00    -0.298 N 
ATOM      9  N   UNL     1      17.568   6.877  21.872  0.00  0.00    -0.269 N 
ATOM     22  C   UNL     1      16.978   8.080  21.477  0.00  0.00    +0.304 C 
ATOM     38  H   UNL     1      15.280   7.378  22.467  0.00  0.00    +0.150 HD
ATOM     39  H   UNL     1      16.988   6.240  22.414  0.00  0.00    +0.156 HD
BRANCH   9  26
ATOM     26  C   UNL     1      18.883   6.427  21.609  0.00  0.00    +0.035 A 
ATOM     30  C   UNL     1      19.150   5.686  20.458  0.00  0.00    +0.027 A 
ATOM     31  C   UNL     1      19.914   6.723  22.502  0.00  0.00    +0.027 A 
ATOM     32  C   UNL     1      20.446   5.243  20.198  0.00  0.00    +0.047 A 
ATOM     33  C   UNL     1      21.210   6.278  22.243  0.00  0.00    +0.047 A 
ATOM     34  C   UNL     1      21.477   5.539  21.091  0.00  0.00    +0.120 A 
BRANCH  34   4
ATOM      4  O   UNL     1      22.742   5.106  20.838  0.00  0.00    -0.495 OA
ATOM     37  C   UNL     1      23.785   6.078  20.900  0.00  0.00    +0.277 C 
ENDBRANCH  34   4
ENDBRANCH   9  26
ENDBRANCH  18   7
ENDBRANCH  12  18
TORSDOF 8
ENDMDL
MODEL 6
REMARK VINA RESULT:      -7.1     27.113     30.361
REMARK  Name = 40780146
REMARK  12 active torsions:
REMARK  status: ('A' for Active; 'I' for Inactive)
REMARK    1  A    between atoms: O_2  and  C_27
REMARK    2  A    between atoms: O_2  and  C_35
REMARK    3  A    between atoms: O_3  and  C_29
REMARK    4  A    between atoms: O_3  and  C_36
REMARK    5  A    between atoms: O_4  and  C_34
REMARK    6  A    between atoms: O_4  and  C_37
REMARK    7  A    between atoms: N_6  and  C_21
REMARK    8  A    between atoms: N_7  and  C_18
REMARK    9  A    between atoms: N_9  and  C_26
REMARK   10  A    between atoms: C_11  and  C_17
REMARK   11  A    between atoms: C_12  and  C_18
REMARK   12  A    between atoms: C_20  and  C_23
REMARK                            x       y       z     vdW  Elec       q    Type
REMARK                         _______ _______ _______ _____ _____    ______ ____
ROOT
ATOM      5  N   UNL     1      11.936   9.231  19.867  0.00  0.00    -0.297 NA
ATOM     10  C   UNL     1      12.796   7.583  21.691  0.00  0.00    +0.002 C 
ATOM     11  C   UNL     1      13.759   8.794  21.556  0.00  0.00    +0.055 C 
ATOM     12  C   UNL     1      11.956   7.845  19.330  0.00  0.00    +0.074 C 
ATOM     13  C   UNL     1      12.655   6.888  20.321  0.00  0.00    +0.024 C 
ATOM     14  C   UNL     1      11.409   8.155  22.054  0.00  0.00    +0.019 C 
ATOM     15  C   UNL     1      13.294   9.620  20.323  0.00  0.00    +0.094 C 
ATOM     16  C   UNL     1      11.031   9.250  21.042  0.00  0.00    +0.085 C 
ENDROOT
BRANCH  11  17
ATOM      6  N   UNL     1      16.187   9.469  21.854  0.00  0.00    -0.270 N 
ATOM      8  N   UNL     1      17.454   9.030  21.777  0.00  0.00    -0.171 NA
ATOM     17  C   UNL     1      15.257   8.523  21.538  0.00  0.00    +0.044 A 
ATOM     19  C   UNL     1      15.965   7.387  21.233  0.00  0.00    +0.053 A 
ATOM     20  C   UNL     1      17.313   7.757  21.397  0.00  0.00    +0.093 A 
ATOM     21  C   UNL     1      15.936  10.838  22.243  0.00  0.00    +0.172 C 
BRANCH  20  23
ATOM     23  C   UNL     1      18.467   6.921  21.197  0.00  0.00    +0.006 A 
ATOM     24  C   UNL     1      19.579   7.056  22.028  0.00  0.00    +0.059 A 
ATOM     25  C   UNL     1      18.473   5.975  20.172  0.00  0.00    +0.014 A 
ATOM     27  C   UNL     1      20.698   6.246  21.833  0.00  0.00    +0.162 A 
ATOM     28  C   UNL     1      19.593   5.165  19.977  0.00  0.00    +0.050 A 
ATOM     29  C   UNL     1      20.705   5.301  20.808  0.00  0.00    +0.162 A 
BRANCH  27   2
ATOM      2  O   UNL     1      21.778   6.388  22.652  0.00  0.00    -0.491 OA
ATOM     35  C   UNL     1      21.518   6.676  24.023  0.00  0.00    +0.277 C 
ENDBRANCH  27   2
BRANCH  29   3
ATOM      3  O   UNL     1      21.791   4.503  20.609  0.00  0.00    -0.491 OA
ATOM     36  C   UNL     1      21.825   3.266  21.318  0.00  0.00    +0.277 C 
ENDBRANCH  29   3
ENDBRANCH  20  23
ENDBRANCH  11  17
BRANCH  12  18
ATOM     18  C   UNL     1      12.575   7.770  17.933  0.00  0.00    +0.124 C 
BRANCH  18   7
ATOM      1  O   UNL     1      13.653   8.411  15.358  0.00  0.00    -0.253 OA
ATOM      7  N   UNL     1      12.799   9.079  17.402  0.00  0.00    -0.298 N 
ATOM      9  N   UNL     1      13.440  10.689  15.878  0.00  0.00    -0.269 N 
ATOM     22  C   UNL     1      13.335   9.318  16.123  0.00  0.00    +0.304 C 
ATOM     38  H   UNL     1      12.564   9.879  17.980  0.00  0.00    +0.150 HD
ATOM     39  H   UNL     1      13.131  11.311  16.622  0.00  0.00    +0.156 HD
BRANCH   9  26
ATOM     26  C   UNL     1      13.929  11.329  14.715  0.00  0.00    +0.035 A 
ATOM     30  C   UNL     1      13.066  12.080  13.917  0.00  0.00    +0.027 A 
ATOM     31  C   UNL     1      15.274  11.208  14.365  0.00  0.00    +0.027 A 
ATOM     32  C   UNL     1      13.547  12.711  12.771  0.00  0.00    +0.047 A 
ATOM     33  C   UNL     1      15.755  11.837  13.218  0.00  0.00    +0.047 A 
ATOM     34  C   UNL     1      14.893  12.589  12.421  0.00  0.00    +0.120 A 
BRANCH  34   4
ATOM      4  O   UNL     1      15.362  13.205  11.301  0.00  0.00    -0.495 OA
ATOM     37  C   UNL     1      16.499  12.619  10.667  0.00  0.00    +0.277 C 
ENDBRANCH  34   4
ENDBRANCH   9  26
ENDBRANCH  18   7
ENDBRANCH  12  18
TORSDOF 8
ENDMDL
MODEL 7
REMARK VINA RESULT:      -7.0     25.413     28.483
REMARK  Name = 40780146
REMARK  12 active torsions:
REMARK  status: ('A' for Active; 'I' for Inactive)
REMARK    1  A    between atoms: O_2  and  C_27
REMARK    2  A    between atoms: O_2  and  C_35
REMARK    3  A    between atoms: O_3  and  C_29
REMARK    4  A    between atoms: O_3  and  C_36
REMARK    5  A    between atoms: O_4  and  C_34
REMARK    6  A    between atoms: O_4  and  C_37
REMARK    7  A    between atoms: N_6  and  C_21
REMARK    8  A    between atoms: N_7  and  C_18
REMARK    9  A    between atoms: N_9  and  C_26
REMARK   10  A    between atoms: C_11  and  C_17
REMARK   11  A    between atoms: C_12  and  C_18
REMARK   12  A    between atoms: C_20  and  C_23
REMARK                            x       y       z     vdW  Elec       q    Type
REMARK                         _______ _______ _______ _____ _____    ______ ____
ROOT
ATOM      5  N   UNL     1      13.969   4.704  -1.420  0.00  0.00    -0.297 NA
ATOM     10  C   UNL     1      11.805   3.541  -0.553  0.00  0.00    +0.002 C 
ATOM     11  C   UNL     1      11.554   5.057  -0.778  0.00  0.00    +0.055 C 
ATOM     12  C   UNL     1      14.277   3.888  -0.216  0.00  0.00    +0.074 C 
ATOM     13  C   UNL     1      12.979   3.359   0.432  0.00  0.00    +0.024 C 
ATOM     14  C   UNL     1      12.256   2.958  -1.909  0.00  0.00    +0.019 C 
ATOM     15  C   UNL     1      12.928   5.713  -1.097  0.00  0.00    +0.094 C 
ATOM     16  C   UNL     1      13.425   3.795  -2.458  0.00  0.00    +0.085 C 
ENDROOT
BRANCH  11  17
ATOM      6  N   UNL     1       9.940   6.858  -0.006  0.00  0.00    -0.270 N 
ATOM      8  N   UNL     1       9.355   7.402   1.074  0.00  0.00    -0.171 NA
ATOM     17  C   UNL     1      10.781   5.824   0.286  0.00  0.00    +0.044 A 
ATOM     19  C   UNL     1      10.743   5.683   1.651  0.00  0.00    +0.053 A 
ATOM     20  C   UNL     1       9.849   6.680   2.084  0.00  0.00    +0.093 A 
ATOM     21  C   UNL     1       9.643   7.392  -1.315  0.00  0.00    +0.172 C 
BRANCH  20  23
ATOM     23  C   UNL     1       9.460   6.958   3.442  0.00  0.00    +0.006 A 
ATOM     24  C   UNL     1       9.917   6.145   4.479  0.00  0.00    +0.059 A 
ATOM     25  C   UNL     1       8.624   8.040   3.720  0.00  0.00    +0.014 A 
ATOM     27  C   UNL     1       9.538   6.414   5.794  0.00  0.00    +0.162 A 
ATOM     28  C   UNL     1       8.246   8.308   5.036  0.00  0.00    +0.050 A 
ATOM     29  C   UNL     1       8.703   7.495   6.073  0.00  0.00    +0.162 A 
BRANCH  27   2
ATOM      2  O   UNL     1       9.992   5.612   6.798  0.00  0.00    -0.491 OA
ATOM     35  C   UNL     1      11.222   5.982   7.416  0.00  0.00    +0.277 C 
ENDBRANCH  27   2
BRANCH  29   3
ATOM      3  O   UNL     1       8.328   7.769   7.353  0.00  0.00    -0.491 OA
ATOM     36  C   UNL     1       9.041   8.801   8.031  0.00  0.00    +0.277 C 
ENDBRANCH  29   3
ENDBRANCH  20  23
ENDBRANCH  11  17
BRANCH  12  18
ATOM     18  C   UNL     1      15.152   4.639   0.790  0.00  0.00    +0.124 C 
BRANCH  18   7
ATOM      1  O   UNL     1      15.226   7.175   2.120  0.00  0.00    -0.253 OA
ATOM      7  N   UNL     1      14.393   5.023   1.940  0.00  0.00    -0.298 N 
ATOM      9  N   UNL     1      13.628   6.379   3.644  0.00  0.00    -0.269 N 
ATOM     22  C   UNL     1      14.483   6.292   2.541  0.00  0.00    +0.304 C 
ATOM     38  H   UNL     1      13.760   4.343   2.347  0.00  0.00    +0.150 HD
ATOM     39  H   UNL     1      13.077   5.552   3.860  0.00  0.00    +0.156 HD
BRANCH   9  26
ATOM     26  C   UNL     1      13.433   7.484   4.505  0.00  0.00    +0.035 A 
ATOM     30  C   UNL     1      14.090   7.534   5.735  0.00  0.00    +0.027 A 
ATOM     31  C   UNL     1      12.582   8.522   4.127  0.00  0.00    +0.027 A 
ATOM     32  C   UNL     1      13.898   8.623   6.584  0.00  0.00    +0.047 A 
ATOM     33  C   UNL     1      12.388   9.610   4.977  0.00  0.00    +0.047 A 
ATOM     34  C   UNL     1      13.047   9.662   6.205  0.00  0.00    +0.120 A 
BRANCH  34   4
ATOM      4  O   UNL     1      12.859  10.724   7.035  0.00  0.00    -0.495 OA
ATOM     37  C   UNL     1      13.987  11.564   7.279  0.00  0.00    +0.277 C 
ENDBRANCH  34   4
ENDBRANCH   9  26
ENDBRANCH  18   7
ENDBRANCH  12  18
TORSDOF 8
ENDMDL
MODEL 8
REMARK VINA RESULT:      -7.0      2.843      7.030
REMARK  Name = 40780146
REMARK  12 active torsions:
REMARK  status: ('A' for Active; 'I' for Inactive)
REMARK    1  A    between atoms: O_2  and  C_27
REMARK    2  A    between atoms: O_2  and  C_35
REMARK    3  A    between atoms: O_3  and  C_29
REMARK    4  A    between atoms: O_3  and  C_36
REMARK    5  A    between atoms: O_4  and  C_34
REMARK    6  A    between atoms: O_4  and  C_37
REMARK    7  A    between atoms: N_6  and  C_21
REMARK    8  A    between atoms: N_7  and  C_18
REMARK    9  A    between atoms: N_9  and  C_26
REMARK   10  A    between atoms: C_11  and  C_17
REMARK   11  A    between atoms: C_12  and  C_18
REMARK   12  A    between atoms: C_20  and  C_23
REMARK                            x       y       z     vdW  Elec       q    Type
REMARK                         _______ _______ _______ _____ _____    ______ ____
ROOT
ATOM      5  N   UNL     1      -6.184 -10.320   9.147  0.00  0.00    -0.297 NA
ATOM     10  C   UNL     1      -4.325  -8.818  10.183  0.00  0.00    +0.002 C 
ATOM     11  C   UNL     1      -4.203 -10.275  10.710  0.00  0.00    +0.055 C 
ATOM     12  C   UNL     1      -6.784  -9.079   9.705  0.00  0.00    +0.074 C 
ATOM     13  C   UNL     1      -5.733  -8.276  10.502  0.00  0.00    +0.024 C 
ATOM     14  C   UNL     1      -4.204  -8.889   8.646  0.00  0.00    +0.019 C 
ATOM     15  C   UNL     1      -5.454 -11.054  10.211  0.00  0.00    +0.094 C 
ATOM     16  C   UNL     1      -5.207  -9.923   8.105  0.00  0.00    +0.085 C 
ENDROOT
BRANCH  11  17
ATOM      6  N   UNL     1      -2.706 -10.403  12.755  0.00  0.00    -0.270 N 
ATOM      8  N   UNL     1      -2.694 -10.619  14.081  0.00  0.00    -0.171 NA
ATOM     17  C   UNL     1      -3.948 -10.483  12.196  0.00  0.00    +0.044 A 
ATOM     19  C   UNL     1      -4.806 -10.772  13.228  0.00  0.00    +0.053 A 
ATOM     20  C   UNL     1      -3.980 -10.844  14.364  0.00  0.00    +0.093 A 
ATOM     21  C   UNL     1      -1.464 -10.121  12.074  0.00  0.00    +0.172 C 
BRANCH  20  23
ATOM     23  C   UNL     1      -4.394 -11.125  15.714  0.00  0.00    +0.006 A 
ATOM     24  C   UNL     1      -4.402 -12.439  16.182  0.00  0.00    +0.059 A 
ATOM     25  C   UNL     1      -4.786 -10.083  16.554  0.00  0.00    +0.014 A 
ATOM     27  C   UNL     1      -4.804 -12.711  17.489  0.00  0.00    +0.162 A 
ATOM     28  C   UNL     1      -5.188 -10.356  17.863  0.00  0.00    +0.050 A 
ATOM     29  C   UNL     1      -5.197 -11.670  18.330  0.00  0.00    +0.162 A 
BRANCH  27   2
ATOM      2  O   UNL     1      -4.809 -13.999  17.934  0.00  0.00    -0.491 OA
ATOM     35  C   UNL     1      -4.895 -15.025  16.948  0.00  0.00    +0.277 C 
ENDBRANCH  27   2
BRANCH  29   3
ATOM      3  O   UNL     1      -5.590 -11.923  19.609  0.00  0.00    -0.491 OA
ATOM     36  C   UNL     1      -6.988 -12.092  19.835  0.00  0.00    +0.277 C 
ENDBRANCH  29   3
ENDBRANCH  20  23
ENDBRANCH  11  17
BRANCH  12  18
ATOM     18  C   UNL     1      -8.039  -9.360  10.535  0.00  0.00    +0.124 C 
BRANCH  18   7
ATOM      1  O   UNL     1      -9.850  -9.900  12.687  0.00  0.00    -0.253 OA
ATOM      7  N   UNL     1      -7.762  -9.245  11.933  0.00  0.00    -0.298 N 
ATOM      9  N   UNL     1      -8.155  -9.327  14.206  0.00  0.00    -0.269 N 
ATOM     22  C   UNL     1      -8.706  -9.528  12.937  0.00  0.00    +0.304 C 
ATOM     38  H   UNL     1      -6.838  -8.938  12.217  0.00  0.00    +0.150 HD
ATOM     39  H   UNL     1      -7.188  -9.015  14.239  0.00  0.00    +0.156 HD
BRANCH   9  26
ATOM     26  C   UNL     1      -8.781  -9.503  15.462  0.00  0.00    +0.035 A 
ATOM     30  C   UNL     1      -9.467  -8.442  16.054  0.00  0.00    +0.027 A 
ATOM     31  C   UNL     1      -8.711 -10.736  16.110  0.00  0.00    +0.027 A 
ATOM     32  C   UNL     1     -10.085  -8.616  17.292  0.00  0.00    +0.047 A 
ATOM     33  C   UNL     1      -9.328 -10.909  17.349  0.00  0.00    +0.047 A 
ATOM     34  C   UNL     1     -10.015  -9.850  17.940  0.00  0.00    +0.120 A 
BRANCH  34   4
ATOM      4  O   UNL     1     -10.617 -10.018  19.149  0.00  0.00    -0.495 OA
ATOM     37  C   UNL     1     -11.971 -10.471  19.142  0.00  0.00    +0.277 C 
ENDBRANCH  34   4
ENDBRANCH   9  26
ENDBRANCH  18   7
ENDBRANCH  12  18
TORSDOF 8
ENDMDL
MODEL 9
REMARK VINA RESULT:      -6.9     18.847     21.803
REMARK  Name = 40780146
REMARK  12 active torsions:
REMARK  status: ('A' for Active; 'I' for Inactive)
REMARK    1  A    between atoms: O_2  and  C_27
REMARK    2  A    between atoms: O_2  and  C_35
REMARK    3  A    between atoms: O_3  and  C_29
REMARK    4  A    between atoms: O_3  and  C_36
REMARK    5  A    between atoms: O_4  and  C_34
REMARK    6  A    between atoms: O_4  and  C_37
REMARK    7  A    between atoms: N_6  and  C_21
REMARK    8  A    between atoms: N_7  and  C_18
REMARK    9  A    between atoms: N_9  and  C_26
REMARK   10  A    between atoms: C_11  and  C_17
REMARK   11  A    between atoms: C_12  and  C_18
REMARK   12  A    between atoms: C_20  and  C_23
REMARK                            x       y       z     vdW  Elec       q    Type
REMARK                         _______ _______ _______ _____ _____    ______ ____
ROOT
ATOM      5  N   UNL     1     -18.181   4.789  23.402  0.00  0.00    -0.297 NA
ATOM     10  C   UNL     1     -17.499   2.275  23.398  0.00  0.00    +0.002 C 
ATOM     11  C   UNL     1     -18.317   2.615  24.674  0.00  0.00    +0.055 C 
ATOM     12  C   UNL     1     -16.726   4.658  23.126  0.00  0.00    +0.074 C 
ATOM     13  C   UNL     1     -16.264   3.197  23.324  0.00  0.00    +0.024 C 
ATOM     14  C   UNL     1     -18.396   2.620  22.190  0.00  0.00    +0.019 C 
ATOM     15  C   UNL     1     -18.511   4.158  24.704  0.00  0.00    +0.094 C 
ATOM     16  C   UNL     1     -18.913   4.061  22.336  0.00  0.00    +0.085 C 
ENDROOT
BRANCH  11  17
ATOM      6  N   UNL     1     -18.259   0.884  26.530  0.00  0.00    -0.270 N 
ATOM      8  N   UNL     1     -17.706   0.582  27.718  0.00  0.00    -0.171 NA
ATOM     17  C   UNL     1     -17.827   2.069  26.009  0.00  0.00    +0.044 A 
ATOM     19  C   UNL     1     -16.931   2.576  26.917  0.00  0.00    +0.053 A 
ATOM     20  C   UNL     1     -16.896   1.619  27.948  0.00  0.00    +0.093 A 
ATOM     21  C   UNL     1     -19.215  -0.026  25.944  0.00  0.00    +0.172 C 
BRANCH  20  23
ATOM     23  C   UNL     1     -16.105   1.676  29.151  0.00  0.00    +0.006 A 
ATOM     24  C   UNL     1     -15.658   2.906  29.633  0.00  0.00    +0.059 A 
ATOM     25  C   UNL     1     -15.787   0.502  29.832  0.00  0.00    +0.014 A 
ATOM     27  C   UNL     1     -14.891   2.962  30.796  0.00  0.00    +0.162 A 
ATOM     28  C   UNL     1     -15.020   0.558  30.997  0.00  0.00    +0.050 A 
ATOM     29  C   UNL     1     -14.573   1.788  31.479  0.00  0.00    +0.162 A 
BRANCH  27   2
ATOM      2  O   UNL     1     -14.460   4.169  31.258  0.00  0.00    -0.491 OA
ATOM     35  C   UNL     1     -15.459   5.136  31.573  0.00  0.00    +0.277 C 
ENDBRANCH  27   2
BRANCH  29   3
ATOM      3  O   UNL     1     -13.825   1.829  32.617  0.00  0.00    -0.491 OA
ATOM     36  C   UNL     1     -14.523   1.702  33.854  0.00  0.00    +0.277 C 
ENDBRANCH  29   3
ENDBRANCH  20  23
ENDBRANCH  11  17
BRANCH  12  18
ATOM     18  C   UNL     1     -15.886   5.638  23.947  0.00  0.00    +0.124 C 
BRANCH  18   7
ATOM      1  O   UNL     1     -13.722   5.542  22.074  0.00  0.00    -0.253 OA
ATOM      7  N   UNL     1     -15.414   6.714  23.132  0.00  0.00    -0.298 N 
ATOM      9  N   UNL     1     -14.104   7.803  21.574  0.00  0.00    -0.269 N 
ATOM     22  C   UNL     1     -14.340   6.592  22.231  0.00  0.00    +0.304 C 
ATOM     38  H   UNL     1     -15.874   7.615  23.211  0.00  0.00    +0.150 HD
ATOM     39  H   UNL     1     -14.710   8.582  21.822  0.00  0.00    +0.156 HD
BRANCH   9  26
ATOM     26  C   UNL     1     -13.118   8.085  20.601  0.00  0.00    +0.035 A 
ATOM     30  C   UNL     1     -12.045   8.920  20.916  0.00  0.00    +0.027 A 
ATOM     31  C   UNL     1     -13.218   7.530  19.325  0.00  0.00    +0.027 A 
ATOM     32  C   UNL     1     -11.073   9.197  19.956  0.00  0.00    +0.047 A 
ATOM     33  C   UNL     1     -12.246   7.809  18.365  0.00  0.00    +0.047 A 
ATOM     34  C   UNL     1     -11.173   8.642  18.680  0.00  0.00    +0.120 A 
BRANCH  34   4
ATOM      4  O   UNL     1     -10.223   8.914  17.744  0.00  0.00    -0.495 OA
ATOM     37  C   UNL     1     -10.538   8.595  16.388  0.00  0.00    +0.277 C 
ENDBRANCH  34   4
ENDBRANCH   9  26
ENDBRANCH  18   7
ENDBRANCH  12  18
TORSDOF 8
ENDMDL
MODEL 10
REMARK VINA RESULT:      -6.9      3.314      4.411
REMARK  Name = 40780146
REMARK  12 active torsions:
REMARK  status: ('A' for Active; 'I' for Inactive)
REMARK    1  A    between atoms: O_2  and  C_27
REMARK    2  A    between atoms: O_2  and  C_35
REMARK    3  A    between atoms: O_3  and  C_29
REMARK    4  A    between atoms: O_3  and  C_36
REMARK    5  A    between atoms: O_4  and  C_34
REMARK    6  A    between atoms: O_4  and  C_37
REMARK    7  A    between atoms: N_6  and  C_21
REMARK    8  A    between atoms: N_7  and  C_18
REMARK    9  A    between atoms: N_9  and  C_26
REMARK   10  A    between atoms: C_11  and  C_17
REMARK   11  A    between atoms: C_12  and  C_18
REMARK   12  A    between atoms: C_20  and  C_23
REMARK                            x       y       z     vdW  Elec       q    Type
REMARK                         _______ _______ _______ _____ _____    ______ ____
ROOT
ATOM      5  N   UNL     1      -6.588 -10.771  18.121  0.00  0.00    -0.297 NA
ATOM     10  C   UNL     1      -4.299 -11.946  17.713  0.00  0.00    +0.002 C 
ATOM     11  C   UNL     1      -4.395 -10.638  16.880  0.00  0.00    +0.055 C 
ATOM     12  C   UNL     1      -6.804 -12.205  17.798  0.00  0.00    +0.074 C 
ATOM     13  C   UNL     1      -5.482 -12.868  17.352  0.00  0.00    +0.024 C 
ATOM     14  C   UNL     1      -4.473 -11.544  19.193  0.00  0.00    +0.019 C 
ATOM     15  C   UNL     1      -5.850 -10.106  17.017  0.00  0.00    +0.094 C 
ATOM     16  C   UNL     1      -5.752 -10.701  19.344  0.00  0.00    +0.085 C 
ENDROOT
BRANCH  11  17
ATOM      6  N   UNL     1      -2.610 -10.674  15.076  0.00  0.00    -0.270 N 
ATOM      8  N   UNL     1      -2.408 -10.706  13.748  0.00  0.00    -0.171 NA
ATOM     17  C   UNL     1      -3.927 -10.673  15.432  0.00  0.00    +0.044 A 
ATOM     19  C   UNL     1      -4.634 -10.707  14.255  0.00  0.00    +0.053 A 
ATOM     20  C   UNL     1      -3.648 -10.727  13.252  0.00  0.00    +0.093 A 
ATOM     21  C   UNL     1      -1.471 -10.641  15.963  0.00  0.00    +0.172 C 
BRANCH  20  23
ATOM     23  C   UNL     1      -3.866 -10.763  11.829  0.00  0.00    +0.006 A 
ATOM     24  C   UNL     1      -4.170  -9.588  11.140  0.00  0.00    +0.059 A 
ATOM     25  C   UNL     1      -3.775 -11.972  11.140  0.00  0.00    +0.014 A 
ATOM     27  C   UNL     1      -4.383  -9.623   9.763  0.00  0.00    +0.162 A 
ATOM     28  C   UNL     1      -3.988 -12.006   9.761  0.00  0.00    +0.050 A 
ATOM     29  C   UNL     1      -4.291 -10.832   9.073  0.00  0.00    +0.162 A 
BRANCH  27   2
ATOM      2  O   UNL     1      -4.678  -8.469   9.101  0.00  0.00    -0.491 OA
ATOM     35  C   UNL     1      -6.013  -7.982   9.214  0.00  0.00    +0.277 C 
ENDBRANCH  27   2
BRANCH  29   3
ATOM      3  O   UNL     1      -4.496 -10.879   7.727  0.00  0.00    -0.491 OA
ATOM     36  C   UNL     1      -4.457 -12.164   7.110  0.00  0.00    +0.277 C 
ENDBRANCH  29   3
ENDBRANCH  20  23
ENDBRANCH  11  17
BRANCH  12  18
ATOM     18  C   UNL     1      -7.920 -12.411  16.771  0.00  0.00    +0.124 C 
BRANCH  18   7
ATOM      1  O   UNL     1      -8.839 -11.487  14.221  0.00  0.00    -0.253 OA
ATOM      7  N   UNL     1      -7.380 -12.756  15.492  0.00  0.00    -0.298 N 
ATOM      9  N   UNL     1      -7.163 -12.771  13.195  0.00  0.00    -0.269 N 
ATOM     22  C   UNL     1      -7.887 -12.262  14.276  0.00  0.00    +0.304 C 
ATOM     38  H   UNL     1      -6.594 -13.396  15.459  0.00  0.00    +0.150 HD
ATOM     39  H   UNL     1      -6.399 -13.405  13.415  0.00  0.00    +0.156 HD
BRANCH   9  26
ATOM     26  C   UNL     1      -7.363 -12.513  11.818  0.00  0.00    +0.035 A 
ATOM     30  C   UNL     1      -7.640 -11.216  11.384  0.00  0.00    +0.027 A 
ATOM     31  C   UNL     1      -7.283 -13.555  10.894  0.00  0.00    +0.027 A 
ATOM     32  C   UNL     1      -7.836 -10.962  10.028  0.00  0.00    +0.047 A 
ATOM     33  C   UNL     1      -7.481 -13.301   9.538  0.00  0.00    +0.047 A 
ATOM     34  C   UNL     1      -7.756 -12.004   9.104  0.00  0.00    +0.120 A 
BRANCH  34   4
ATOM      4  O   UNL     1      -7.948 -11.756   7.779  0.00  0.00    -0.495 OA
ATOM     37  C   UNL     1      -8.127 -12.886   6.926  0.00  0.00    +0.277 C 
ENDBRANCH  34   4
ENDBRANCH   9  26
ENDBRANCH  18   7
ENDBRANCH  12  18
TORSDOF 8
ENDMDL
