MODEL 1
REMARK VINA RESULT:      -6.9      0.000      0.000
REMARK  Name = 11941662
REMARK  7 active torsions:
REMARK  status: ('A' for Active; 'I' for Inactive)
REMARK    1  A    between atoms: O_4  and  C_24
REMARK    2  A    between atoms: O_4  and  C_29
REMARK    3  A    between atoms: N_5  and  C_12
REMARK    4  A    between atoms: N_6  and  C_13
REMARK    5  A    between atoms: N_7  and  C_18
REMARK    6  A    between atoms: C_18  and  C_23
REMARK    7  A    between atoms: C_19  and  C_22
REMARK                            x       y       z     vdW  Elec       q    Type
REMARK                         _______ _______ _______ _____ _____    ______ ____
ROOT
ATOM      5  N   UNL     1      -3.726 -11.489  17.201  0.00  0.00    -0.306 N 
ATOM      8  N   UNL     1      -3.481 -11.278  14.877  0.00  0.00    -0.214 NA
ATOM      9  N   UNL     1      -1.772 -10.484  16.379  0.00  0.00    -0.223 NA
ATOM     16  C   UNL     1      -2.970 -11.071  16.120  0.00  0.00    +0.216 A 
ATOM     19  C   UNL     1      -2.718 -10.857  13.846  0.00  0.00    +0.080 A 
ATOM     20  C   UNL     1      -1.062 -10.088  15.302  0.00  0.00    +0.116 A 
ATOM     21  C   UNL     1      -1.488 -10.250  14.000  0.00  0.00    +0.048 A 
ATOM     30  H   UNL     1      -3.361 -11.283  18.124  0.00  0.00    +0.149 HD
ENDROOT
BRANCH   5  12
ATOM      1  O   UNL     1      -6.157 -11.667  19.108  0.00  0.00    -0.370 OA
ATOM      2  O   UNL     1      -7.224 -11.699  16.176  0.00  0.00    -0.370 OA
ATOM     10  C   UNL     1      -6.082 -11.089  16.802  0.00  0.00    +0.171 C 
ATOM     11  C   UNL     1      -6.516 -10.631  18.180  0.00  0.00    +0.171 C 
ATOM     12  C   UNL     1      -5.019 -12.128  17.075  0.00  0.00    +0.130 C 
ATOM     13  C   UNL     1      -8.019 -10.517  18.073  0.00  0.00    +0.131 C 
ATOM     14  C   UNL     1      -5.452 -12.704  18.409  0.00  0.00    +0.185 C 
ATOM     15  C   UNL     1      -8.355 -11.589  17.053  0.00  0.00    +0.185 C 
BRANCH  13   6
ATOM      3  O   UNL     1     -10.706  -9.492  17.828  0.00  0.00    -0.253 OA
ATOM      6  N   UNL     1      -8.412  -9.209  17.607  0.00  0.00    -0.292 N 
ATOM      7  N   UNL     1      -9.833  -7.492  17.039  0.00  0.00    -0.300 N 
ATOM     17  C   UNL     1      -9.740  -8.796  17.519  0.00  0.00    +0.300 C 
ATOM     31  H   UNL     1      -7.685  -8.534  17.392  0.00  0.00    +0.151 HD
ATOM     32  H   UNL     1      -8.980  -6.992  16.809  0.00  0.00    +0.150 HD
BRANCH   7  18
ATOM     18  C   UNL     1     -11.096  -6.816  16.851  0.00  0.00    +0.102 C 
ATOM     23  C   UNL     1     -11.099  -5.992  15.580  0.00  0.00    +0.024 C 
ENDBRANCH   7  18
ENDBRANCH  13   6
ENDBRANCH   5  12
BRANCH  19  22
ATOM     22  C   UNL     1      -3.279 -11.086  12.536  0.00  0.00    +0.042 A 
ATOM     24  C   UNL     1      -3.136 -12.320  11.895  0.00  0.00    +0.129 A 
ATOM     25  C   UNL     1      -3.976 -10.055  11.900  0.00  0.00    +0.013 A 
ATOM     26  C   UNL     1      -3.685 -12.521  10.629  0.00  0.00    +0.046 A 
ATOM     27  C   UNL     1      -4.526 -10.256  10.634  0.00  0.00    +0.001 A 
ATOM     28  C   UNL     1      -4.379 -11.489   9.999  0.00  0.00    +0.004 A 
BRANCH  24   4
ATOM      4  O   UNL     1      -2.461 -13.346  12.489  0.00  0.00    -0.494 OA
ATOM     29  C   UNL     1      -2.618 -14.641  11.914  0.00  0.00    +0.277 C 
ENDBRANCH  24   4
ENDBRANCH  19  22
TORSDOF 5
ENDMDL
MODEL 2
REMARK VINA RESULT:      -6.7      3.808      8.369
REMARK  Name = 11941662
REMARK  7 active torsions:
REMARK  status: ('A' for Active; 'I' for Inactive)
REMARK    1  A    between atoms: O_4  and  C_24
REMARK    2  A    between atoms: O_4  and  C_29
REMARK    3  A    between atoms: N_5  and  C_12
REMARK    4  A    between atoms: N_6  and  C_13
REMARK    5  A    between atoms: N_7  and  C_18
REMARK    6  A    between atoms: C_18  and  C_23
REMARK    7  A    between atoms: C_19  and  C_22
REMARK                            x       y       z     vdW  Elec       q    Type
REMARK                         _______ _______ _______ _____ _____    ______ ____
ROOT
ATOM      5  N   UNL     1      -3.145 -10.307  12.343  0.00  0.00    -0.306 N 
ATOM      8  N   UNL     1      -3.755 -10.845  14.545  0.00  0.00    -0.214 NA
ATOM      9  N   UNL     1      -1.490 -10.224  14.003  0.00  0.00    -0.223 NA
ATOM     16  C   UNL     1      -2.786 -10.463  13.670  0.00  0.00    +0.216 A 
ATOM     19  C   UNL     1      -3.369 -10.988  15.830  0.00  0.00    +0.080 A 
ATOM     20  C   UNL     1      -1.174 -10.386  15.305  0.00  0.00    +0.116 A 
ATOM     21  C   UNL     1      -2.080 -10.769  16.273  0.00  0.00    +0.048 A 
ATOM     30  H   UNL     1      -2.405 -10.074  11.691  0.00  0.00    +0.149 HD
ENDROOT
BRANCH   5  12
ATOM      1  O   UNL     1      -4.802  -8.920  10.127  0.00  0.00    -0.370 OA
ATOM      2  O   UNL     1      -5.676 -11.913  10.257  0.00  0.00    -0.370 OA
ATOM     10  C   UNL     1      -4.432 -11.238  10.513  0.00  0.00    +0.171 C 
ATOM     11  C   UNL     1      -4.312 -10.116   9.500  0.00  0.00    +0.171 C 
ATOM     12  C   UNL     1      -4.486 -10.529  11.846  0.00  0.00    +0.130 C 
ATOM     13  C   UNL     1      -5.232 -10.536   8.377  0.00  0.00    +0.131 C 
ATOM     14  C   UNL     1      -5.140  -9.207  11.492  0.00  0.00    +0.185 C 
ATOM     15  C   UNL     1      -6.303 -11.322   9.109  0.00  0.00    +0.185 C 
BRANCH  13   6
ATOM      3  O   UNL     1      -5.717 -10.681   5.535  0.00  0.00    -0.253 OA
ATOM      6  N   UNL     1      -4.539 -11.363   7.417  0.00  0.00    -0.292 N 
ATOM      7  N   UNL     1      -4.022 -12.257   5.362  0.00  0.00    -0.300 N 
ATOM     17  C   UNL     1      -4.841 -11.370   6.057  0.00  0.00    +0.300 C 
ATOM     31  H   UNL     1      -3.753 -11.919   7.737  0.00  0.00    +0.151 HD
ATOM     32  H   UNL     1      -3.325 -12.786   5.876  0.00  0.00    +0.150 HD
BRANCH   7  18
ATOM     18  C   UNL     1      -4.123 -12.462   3.935  0.00  0.00    +0.102 C 
ATOM     23  C   UNL     1      -2.759 -12.458   3.277  0.00  0.00    +0.024 C 
ENDBRANCH   7  18
ENDBRANCH  13   6
ENDBRANCH   5  12
BRANCH  19  22
ATOM     22  C   UNL     1      -4.412 -11.393  16.741  0.00  0.00    +0.042 A 
ATOM     24  C   UNL     1      -4.872 -12.713  16.770  0.00  0.00    +0.129 A 
ATOM     25  C   UNL     1      -4.969 -10.450  17.609  0.00  0.00    +0.013 A 
ATOM     26  C   UNL     1      -5.880 -13.085  17.658  0.00  0.00    +0.046 A 
ATOM     27  C   UNL     1      -5.977 -10.823  18.498  0.00  0.00    +0.001 A 
ATOM     28  C   UNL     1      -6.433 -12.140  18.522  0.00  0.00    +0.004 A 
BRANCH  24   4
ATOM      4  O   UNL     1      -4.350 -13.658  15.936  0.00  0.00    -0.494 OA
ATOM     29  C   UNL     1      -5.204 -14.159  14.911  0.00  0.00    +0.277 C 
ENDBRANCH  24   4
ENDBRANCH  19  22
TORSDOF 5
ENDMDL
MODEL 3
REMARK VINA RESULT:      -6.5     27.919     30.917
REMARK  Name = 11941662
REMARK  7 active torsions:
REMARK  status: ('A' for Active; 'I' for Inactive)
REMARK    1  A    between atoms: O_4  and  C_24
REMARK    2  A    between atoms: O_4  and  C_29
REMARK    3  A    between atoms: N_5  and  C_12
REMARK    4  A    between atoms: N_6  and  C_13
REMARK    5  A    between atoms: N_7  and  C_18
REMARK    6  A    between atoms: C_18  and  C_23
REMARK    7  A    between atoms: C_19  and  C_22
REMARK                            x       y       z     vdW  Elec       q    Type
REMARK                         _______ _______ _______ _____ _____    ______ ____
ROOT
ATOM      5  N   UNL     1      16.925   7.554  21.875  0.00  0.00    -0.306 N 
ATOM      8  N   UNL     1      15.605   8.269  20.071  0.00  0.00    -0.214 NA
ATOM      9  N   UNL     1      14.592   7.492  22.114  0.00  0.00    -0.223 NA
ATOM     16  C   UNL     1      15.670   7.778  21.337  0.00  0.00    +0.216 A 
ATOM     19  C   UNL     1      14.366   8.475  19.578  0.00  0.00    +0.080 A 
ATOM     20  C   UNL     1      13.384   7.722  21.559  0.00  0.00    +0.116 A 
ATOM     21  C   UNL     1      13.208   8.218  20.283  0.00  0.00    +0.048 A 
ATOM     30  H   UNL     1      16.961   7.139  22.798  0.00  0.00    +0.149 HD
ENDROOT
BRANCH   5  12
ATOM      1  O   UNL     1      19.797   8.182  22.841  0.00  0.00    -0.370 OA
ATOM      2  O   UNL     1      20.004   6.621  20.147  0.00  0.00    -0.370 OA
ATOM     10  C   UNL     1      19.055   6.599  21.228  0.00  0.00    +0.171 C 
ATOM     11  C   UNL     1      19.836   6.784  22.515  0.00  0.00    +0.171 C 
ATOM     12  C   UNL     1      18.158   7.812  21.162  0.00  0.00    +0.130 C 
ATOM     13  C   UNL     1      21.243   6.366  22.154  0.00  0.00    +0.131 C 
ATOM     14  C   UNL     1      18.972   8.867  21.887  0.00  0.00    +0.185 C 
ATOM     15  C   UNL     1      21.328   6.743  20.686  0.00  0.00    +0.185 C 
BRANCH  13   6
ATOM      3  O   UNL     1      23.754   4.951  22.315  0.00  0.00    -0.253 OA
ATOM      6  N   UNL     1      21.432   4.948  22.342  0.00  0.00    -0.292 N 
ATOM      7  N   UNL     1      22.579   2.970  22.594  0.00  0.00    -0.300 N 
ATOM     17  C   UNL     1      22.687   4.346  22.408  0.00  0.00    +0.300 C 
ATOM     31  H   UNL     1      20.613   4.368  22.498  0.00  0.00    +0.151 HD
ATOM     32  H   UNL     1      21.655   2.555  22.659  0.00  0.00    +0.150 HD
BRANCH   7  18
ATOM     18  C   UNL     1      23.728   2.101  22.697  0.00  0.00    +0.102 C 
ATOM     23  C   UNL     1      24.102   1.515  21.351  0.00  0.00    +0.024 C 
ENDBRANCH   7  18
ENDBRANCH  13   6
ENDBRANCH   5  12
BRANCH  19  22
ATOM     22  C   UNL     1      14.320   8.996  18.233  0.00  0.00    +0.042 A 
ATOM     24  C   UNL     1      14.406  10.369  17.987  0.00  0.00    +0.129 A 
ATOM     25  C   UNL     1      14.187   8.110  17.160  0.00  0.00    +0.013 A 
ATOM     26  C   UNL     1      14.360  10.852  16.680  0.00  0.00    +0.046 A 
ATOM     27  C   UNL     1      14.142   8.594  15.852  0.00  0.00    +0.001 A 
ATOM     28  C   UNL     1      14.228   9.964  15.613  0.00  0.00    +0.004 A 
BRANCH  24   4
ATOM      4  O   UNL     1      14.536  11.260  19.012  0.00  0.00    -0.494 OA
ATOM     29  C   UNL     1      13.377  12.010  19.367  0.00  0.00    +0.277 C 
ENDBRANCH  24   4
ENDBRANCH  19  22
TORSDOF 5
ENDMDL
MODEL 4
REMARK VINA RESULT:      -6.5      4.205      7.394
REMARK  Name = 11941662
REMARK  7 active torsions:
REMARK  status: ('A' for Active; 'I' for Inactive)
REMARK    1  A    between atoms: O_4  and  C_24
REMARK    2  A    between atoms: O_4  and  C_29
REMARK    3  A    between atoms: N_5  and  C_12
REMARK    4  A    between atoms: N_6  and  C_13
REMARK    5  A    between atoms: N_7  and  C_18
REMARK    6  A    between atoms: C_18  and  C_23
REMARK    7  A    between atoms: C_19  and  C_22
REMARK                            x       y       z     vdW  Elec       q    Type
REMARK                         _______ _______ _______ _____ _____    ______ ____
ROOT
ATOM      5  N   UNL     1      -3.896 -10.347  12.342  0.00  0.00    -0.306 N 
ATOM      8  N   UNL     1      -4.126 -10.870  14.619  0.00  0.00    -0.214 NA
ATOM      9  N   UNL     1      -1.989 -10.234  13.703  0.00  0.00    -0.223 NA
ATOM     16  C   UNL     1      -3.320 -10.488  13.592  0.00  0.00    +0.216 A 
ATOM     19  C   UNL     1      -3.530 -10.997  15.823  0.00  0.00    +0.080 A 
ATOM     20  C   UNL     1      -1.460 -10.381  14.936  0.00  0.00    +0.116 A 
ATOM     21  C   UNL     1      -2.188 -10.764  16.044  0.00  0.00    +0.048 A 
ATOM     30  H   UNL     1      -3.278 -10.114  11.575  0.00  0.00    +0.149 HD
ENDROOT
BRANCH   5  12
ATOM      1  O   UNL     1      -6.257  -8.438  11.740  0.00  0.00    -0.370 OA
ATOM      2  O   UNL     1      -6.779 -11.124  10.240  0.00  0.00    -0.370 OA
ATOM     10  C   UNL     1      -5.581 -10.416  10.603  0.00  0.00    +0.171 C 
ATOM     11  C   UNL     1      -5.870  -8.935  10.448  0.00  0.00    +0.171 C 
ATOM     12  C   UNL     1      -5.299 -10.586  12.077  0.00  0.00    +0.130 C 
ATOM     13  C   UNL     1      -7.042  -8.887   9.494  0.00  0.00    +0.131 C 
ATOM     14  C   UNL     1      -6.144  -9.494  12.705  0.00  0.00    +0.185 C 
ATOM     15  C   UNL     1      -7.771 -10.180   9.809  0.00  0.00    +0.185 C 
BRANCH  13   6
ATOM      3  O   UNL     1      -8.629  -8.273   7.163  0.00  0.00    -0.253 OA
ATOM      6  N   UNL     1      -6.596  -8.857   8.122  0.00  0.00    -0.292 N 
ATOM      7  N   UNL     1      -6.749  -8.594   5.841  0.00  0.00    -0.300 N 
ATOM     17  C   UNL     1      -7.435  -8.550   7.052  0.00  0.00    +0.300 C 
ATOM     31  H   UNL     1      -5.611  -9.005   7.930  0.00  0.00    +0.151 HD
ATOM     32  H   UNL     1      -5.762  -8.833   5.846  0.00  0.00    +0.150 HD
BRANCH   7  18
ATOM     18  C   UNL     1      -7.381  -8.317   4.573  0.00  0.00    +0.102 C 
ATOM     23  C   UNL     1      -7.687  -9.592   3.815  0.00  0.00    +0.024 C 
ENDBRANCH   7  18
ENDBRANCH  13   6
ENDBRANCH   5  12
BRANCH  19  22
ATOM     22  C   UNL     1      -4.403 -11.404  16.898  0.00  0.00    +0.042 A 
ATOM     24  C   UNL     1      -4.857 -12.722  17.000  0.00  0.00    +0.129 A 
ATOM     25  C   UNL     1      -4.798 -10.463  17.853  0.00  0.00    +0.013 A 
ATOM     26  C   UNL     1      -5.700 -13.095  18.046  0.00  0.00    +0.046 A 
ATOM     27  C   UNL     1      -5.640 -10.837  18.900  0.00  0.00    +0.001 A 
ATOM     28  C   UNL     1      -6.091 -12.152  18.996  0.00  0.00    +0.004 A 
BRANCH  24   4
ATOM      4  O   UNL     1      -4.490 -13.665  16.084  0.00  0.00    -0.494 OA
ATOM     29  C   UNL     1      -5.531 -14.244  15.301  0.00  0.00    +0.277 C 
ENDBRANCH  24   4
ENDBRANCH  19  22
TORSDOF 5
ENDMDL
MODEL 5
REMARK VINA RESULT:      -6.2      1.279      2.217
REMARK  Name = 11941662
REMARK  7 active torsions:
REMARK  status: ('A' for Active; 'I' for Inactive)
REMARK    1  A    between atoms: O_4  and  C_24
REMARK    2  A    between atoms: O_4  and  C_29
REMARK    3  A    between atoms: N_5  and  C_12
REMARK    4  A    between atoms: N_6  and  C_13
REMARK    5  A    between atoms: N_7  and  C_18
REMARK    6  A    between atoms: C_18  and  C_23
REMARK    7  A    between atoms: C_19  and  C_22
REMARK                            x       y       z     vdW  Elec       q    Type
REMARK                         _______ _______ _______ _____ _____    ______ ____
ROOT
ATOM      5  N   UNL     1      -4.288 -10.943  17.172  0.00  0.00    -0.306 N 
ATOM      8  N   UNL     1      -3.573 -12.167  15.302  0.00  0.00    -0.214 NA
ATOM      9  N   UNL     1      -2.095 -10.616  16.405  0.00  0.00    -0.223 NA
ATOM     16  C   UNL     1      -3.289 -11.251  16.266  0.00  0.00    +0.216 A 
ATOM     19  C   UNL     1      -2.577 -12.444  14.436  0.00  0.00    +0.080 A 
ATOM     20  C   UNL     1      -1.144 -10.940  15.504  0.00  0.00    +0.116 A 
ATOM     21  C   UNL     1      -1.329 -11.856  14.488  0.00  0.00    +0.048 A 
ATOM     30  H   UNL     1      -4.083 -10.221  17.853  0.00  0.00    +0.149 HD
ENDROOT
BRANCH   5  12
ATOM      1  O   UNL     1      -6.838 -10.445  18.854  0.00  0.00    -0.370 OA
ATOM      2  O   UNL     1      -7.723 -11.320  15.993  0.00  0.00    -0.370 OA
ATOM     10  C   UNL     1      -6.587 -10.593  16.493  0.00  0.00    +0.171 C 
ATOM     11  C   UNL     1      -7.077  -9.724  17.635  0.00  0.00    +0.171 C 
ATOM     12  C   UNL     1      -5.606 -11.540  17.144  0.00  0.00    +0.130 C 
ATOM     13  C   UNL     1      -8.562  -9.591  17.385  0.00  0.00    +0.131 C 
ATOM     14  C   UNL     1      -6.154 -11.670  18.552  0.00  0.00    +0.185 C 
ATOM     15  C   UNL     1      -8.897 -10.908  16.709  0.00  0.00    +0.185 C 
BRANCH  13   6
ATOM      3  O   UNL     1     -10.976  -8.010  17.328  0.00  0.00    -0.253 OA
ATOM      6  N   UNL     1      -8.848  -8.471  16.521  0.00  0.00    -0.292 N 
ATOM      7  N   UNL     1     -10.057  -6.733  15.622  0.00  0.00    -0.300 N 
ATOM     17  C   UNL     1     -10.046  -7.761  16.561  0.00  0.00    +0.300 C 
ATOM     31  H   UNL     1      -8.117  -8.143  15.897  0.00  0.00    +0.151 HD
ATOM     32  H   UNL     1      -9.243  -6.602  15.029  0.00  0.00    +0.150 HD
BRANCH   7  18
ATOM     18  C   UNL     1     -11.180  -5.841  15.450  0.00  0.00    +0.102 C 
ATOM     23  C   UNL     1     -12.179  -6.392  14.454  0.00  0.00    +0.024 C 
ENDBRANCH   7  18
ENDBRANCH  13   6
ENDBRANCH   5  12
BRANCH  19  22
ATOM     22  C   UNL     1      -2.899 -13.418  13.420  0.00  0.00    +0.042 A 
ATOM     24  C   UNL     1      -3.202 -13.025  12.114  0.00  0.00    +0.129 A 
ATOM     25  C   UNL     1      -2.908 -14.776  13.753  0.00  0.00    +0.013 A 
ATOM     26  C   UNL     1      -3.511 -13.982  11.147  0.00  0.00    +0.046 A 
ATOM     27  C   UNL     1      -3.216 -15.733  12.785  0.00  0.00    +0.001 A 
ATOM     28  C   UNL     1      -3.518 -15.335  11.484  0.00  0.00    +0.004 A 
BRANCH  24   4
ATOM      4  O   UNL     1      -3.202 -11.708  11.757  0.00  0.00    -0.494 OA
ATOM     29  C   UNL     1      -4.473 -11.091  11.566  0.00  0.00    +0.277 C 
ENDBRANCH  24   4
ENDBRANCH  19  22
TORSDOF 5
ENDMDL
MODEL 6
REMARK VINA RESULT:      -6.2     25.291     28.047
REMARK  Name = 11941662
REMARK  7 active torsions:
REMARK  status: ('A' for Active; 'I' for Inactive)
REMARK    1  A    between atoms: O_4  and  C_24
REMARK    2  A    between atoms: O_4  and  C_29
REMARK    3  A    between atoms: N_5  and  C_12
REMARK    4  A    between atoms: N_6  and  C_13
REMARK    5  A    between atoms: N_7  and  C_18
REMARK    6  A    between atoms: C_18  and  C_23
REMARK    7  A    between atoms: C_19  and  C_22
REMARK                            x       y       z     vdW  Elec       q    Type
REMARK                         _______ _______ _______ _____ _____    ______ ____
ROOT
ATOM      5  N   UNL     1      10.931   5.701   0.970  0.00  0.00    -0.306 N 
ATOM      8  N   UNL     1      12.759   5.054  -0.352  0.00  0.00    -0.214 NA
ATOM      9  N   UNL     1      10.575   4.099  -0.706  0.00  0.00    -0.223 NA
ATOM     16  C   UNL     1      11.437   4.928  -0.060  0.00  0.00    +0.216 A 
ATOM     19  C   UNL     1      13.218   4.284  -1.362  0.00  0.00    +0.080 A 
ATOM     20  C   UNL     1      11.101   3.359  -1.704  0.00  0.00    +0.116 A 
ATOM     21  C   UNL     1      12.428   3.410  -2.081  0.00  0.00    +0.048 A 
ATOM     30  H   UNL     1       9.958   5.562   1.213  0.00  0.00    +0.149 HD
ENDROOT
BRANCH   5  12
ATOM      1  O   UNL     1      10.203   7.756   3.167  0.00  0.00    -0.370 OA
ATOM      2  O   UNL     1      13.076   6.690   3.755  0.00  0.00    -0.370 OA
ATOM     10  C   UNL     1      11.912   6.101   3.148  0.00  0.00    +0.171 C 
ATOM     11  C   UNL     1      10.702   6.624   3.898  0.00  0.00    +0.171 C 
ATOM     12  C   UNL     1      11.732   6.626   1.743  0.00  0.00    +0.130 C 
ATOM     13  C   UNL     1      11.258   7.064   5.233  0.00  0.00    +0.131 C 
ATOM     14  C   UNL     1      10.972   7.919   1.966  0.00  0.00    +0.185 C 
ATOM     15  C   UNL     1      12.669   7.493   4.872  0.00  0.00    +0.185 C 
BRANCH  13   6
ATOM      3  O   UNL     1       9.111   6.267   6.989  0.00  0.00    -0.253 OA
ATOM      6  N   UNL     1      11.268   5.974   6.179  0.00  0.00    -0.292 N 
ATOM      7  N   UNL     1      10.459   4.565   7.808  0.00  0.00    -0.300 N 
ATOM     17  C   UNL     1      10.181   5.659   6.992  0.00  0.00    +0.300 C 
ATOM     31  H   UNL     1      12.081   5.368   6.210  0.00  0.00    +0.151 HD
ATOM     32  H   UNL     1      11.372   4.126   7.743  0.00  0.00    +0.150 HD
BRANCH   7  18
ATOM     18  C   UNL     1       9.505   4.028   8.750  0.00  0.00    +0.102 C 
ATOM     23  C   UNL     1       9.619   4.703  10.101  0.00  0.00    +0.024 C 
ENDBRANCH   7  18
ENDBRANCH  13   6
ENDBRANCH   5  12
BRANCH  19  22
ATOM     22  C   UNL     1      14.624   4.433  -1.655  0.00  0.00    +0.042 A 
ATOM     24  C   UNL     1      15.056   4.911  -2.895  0.00  0.00    +0.129 A 
ATOM     25  C   UNL     1      15.566   4.092  -0.680  0.00  0.00    +0.013 A 
ATOM     26  C   UNL     1      16.418   5.048  -3.159  0.00  0.00    +0.046 A 
ATOM     27  C   UNL     1      16.929   4.229  -0.944  0.00  0.00    +0.001 A 
ATOM     28  C   UNL     1      17.354   4.706  -2.183  0.00  0.00    +0.004 A 
BRANCH  24   4
ATOM      4  O   UNL     1      14.161   5.253  -3.867  0.00  0.00    -0.494 OA
ATOM     29  C   UNL     1      14.361   6.504  -4.519  0.00  0.00    +0.277 C 
ENDBRANCH  24   4
ENDBRANCH  19  22
TORSDOF 5
ENDMDL
MODEL 7
REMARK VINA RESULT:      -6.1     19.528     22.023
REMARK  Name = 11941662
REMARK  7 active torsions:
REMARK  status: ('A' for Active; 'I' for Inactive)
REMARK    1  A    between atoms: O_4  and  C_24
REMARK    2  A    between atoms: O_4  and  C_29
REMARK    3  A    between atoms: N_5  and  C_12
REMARK    4  A    between atoms: N_6  and  C_13
REMARK    5  A    between atoms: N_7  and  C_18
REMARK    6  A    between atoms: C_18  and  C_23
REMARK    7  A    between atoms: C_19  and  C_22
REMARK                            x       y       z     vdW  Elec       q    Type
REMARK                         _______ _______ _______ _____ _____    ______ ____
ROOT
ATOM      5  N   UNL     1     -14.856   4.355  22.610  0.00  0.00    -0.306 N 
ATOM      8  N   UNL     1     -14.804   6.693  22.421  0.00  0.00    -0.214 NA
ATOM      9  N   UNL     1     -13.014   5.340  21.542  0.00  0.00    -0.223 NA
ATOM     16  C   UNL     1     -14.205   5.497  22.178  0.00  0.00    +0.216 A 
ATOM     19  C   UNL     1     -14.141   7.786  21.987  0.00  0.00    +0.080 A 
ATOM     20  C   UNL     1     -12.407   6.474  21.135  0.00  0.00    +0.116 A 
ATOM     21  C   UNL     1     -12.928   7.737  21.331  0.00  0.00    +0.048 A 
ATOM     30  H   UNL     1     -14.376   3.473  22.471  0.00  0.00    +0.149 HD
ENDROOT
BRANCH   5  12
ATOM      1  O   UNL     1     -16.342   2.223  24.292  0.00  0.00    -0.370 OA
ATOM      2  O   UNL     1     -17.082   5.035  25.424  0.00  0.00    -0.370 OA
ATOM     10  C   UNL     1     -15.904   4.508  24.789  0.00  0.00    +0.171 C 
ATOM     11  C   UNL     1     -15.734   3.081  25.271  0.00  0.00    +0.171 C 
ATOM     12  C   UNL     1     -16.127   4.372  23.301  0.00  0.00    +0.130 C 
ATOM     13  C   UNL     1     -16.514   3.035  26.566  0.00  0.00    +0.131 C 
ATOM     14  C   UNL     1     -16.803   3.018  23.189  0.00  0.00    +0.185 C 
ATOM     15  C   UNL     1     -17.616   4.048  26.317  0.00  0.00    +0.185 C 
BRANCH  13   6
ATOM      3  O   UNL     1     -15.661   1.362  28.758  0.00  0.00    -0.253 OA
ATOM      6  N   UNL     1     -15.689   3.422  27.685  0.00  0.00    -0.292 N 
ATOM      7  N   UNL     1     -14.529   3.177  29.656  0.00  0.00    -0.300 N 
ATOM     17  C   UNL     1     -15.325   2.545  28.705  0.00  0.00    +0.300 C 
ATOM     31  H   UNL     1     -15.303   4.360  27.700  0.00  0.00    +0.151 HD
ATOM     32  H   UNL     1     -14.301   4.159  29.531  0.00  0.00    +0.150 HD
BRANCH   7  18
ATOM     18  C   UNL     1     -14.011   2.498  30.821  0.00  0.00    +0.102 C 
ATOM     23  C   UNL     1     -13.121   3.406  31.644  0.00  0.00    +0.024 C 
ENDBRANCH   7  18
ENDBRANCH  13   6
ENDBRANCH   5  12
BRANCH  19  22
ATOM     22  C   UNL     1     -14.794   9.045  22.255  0.00  0.00    +0.042 A 
ATOM     24  C   UNL     1     -15.717   9.586  21.355  0.00  0.00    +0.129 A 
ATOM     25  C   UNL     1     -14.496   9.733  23.435  0.00  0.00    +0.013 A 
ATOM     26  C   UNL     1     -16.336  10.803  21.633  0.00  0.00    +0.046 A 
ATOM     27  C   UNL     1     -15.117  10.951  23.713  0.00  0.00    +0.001 A 
ATOM     28  C   UNL     1     -16.036  11.485  22.812  0.00  0.00    +0.004 A 
BRANCH  24   4
ATOM      4  O   UNL     1     -16.029   8.939  20.195  0.00  0.00    -0.494 OA
ATOM     29  C   UNL     1     -17.342   8.396  20.091  0.00  0.00    +0.277 C 
ENDBRANCH  24   4
ENDBRANCH  19  22
TORSDOF 5
ENDMDL
MODEL 8
REMARK VINA RESULT:      -6.1     25.265     27.246
REMARK  Name = 11941662
REMARK  7 active torsions:
REMARK  status: ('A' for Active; 'I' for Inactive)
REMARK    1  A    between atoms: O_4  and  C_24
REMARK    2  A    between atoms: O_4  and  C_29
REMARK    3  A    between atoms: N_5  and  C_12
REMARK    4  A    between atoms: N_6  and  C_13
REMARK    5  A    between atoms: N_7  and  C_18
REMARK    6  A    between atoms: C_18  and  C_23
REMARK    7  A    between atoms: C_19  and  C_22
REMARK                            x       y       z     vdW  Elec       q    Type
REMARK                         _______ _______ _______ _____ _____    ______ ____
ROOT
ATOM      5  N   UNL     1      12.569   5.479   2.868  0.00  0.00    -0.306 N 
ATOM      8  N   UNL     1      12.564   4.664   0.667  0.00  0.00    -0.214 NA
ATOM      9  N   UNL     1      14.627   4.936   1.881  0.00  0.00    -0.223 NA
ATOM     16  C   UNL     1      13.275   5.013   1.772  0.00  0.00    +0.216 A 
ATOM     19  C   UNL     1      13.283   4.214  -0.382  0.00  0.00    +0.080 A 
ATOM     20  C   UNL     1      15.283   4.478   0.795  0.00  0.00    +0.116 A 
ATOM     21  C   UNL     1      14.659   4.098  -0.375  0.00  0.00    +0.048 A 
ATOM     30  H   UNL     1      13.112   5.786   3.667  0.00  0.00    +0.149 HD
ENDROOT
BRANCH   5  12
ATOM      1  O   UNL     1      10.462   4.909   5.062  0.00  0.00    -0.370 OA
ATOM      2  O   UNL     1       9.423   7.278   3.316  0.00  0.00    -0.370 OA
ATOM     10  C   UNL     1      10.739   6.835   3.693  0.00  0.00    +0.171 C 
ATOM     11  C   UNL     1      10.652   6.332   5.120  0.00  0.00    +0.171 C 
ATOM     12  C   UNL     1      11.129   5.614   2.893  0.00  0.00    +0.130 C 
ATOM     13  C   UNL     1       9.416   7.006   5.673  0.00  0.00    +0.131 C 
ATOM     14  C   UNL     1      10.510   4.482   3.692  0.00  0.00    +0.185 C 
ATOM     15  C   UNL     1       8.542   7.142   4.440  0.00  0.00    +0.185 C 
BRANCH  13   6
ATOM      3  O   UNL     1       8.579   8.039   8.234  0.00  0.00    -0.253 OA
ATOM      6  N   UNL     1       9.733   8.297   6.236  0.00  0.00    -0.292 N 
ATOM      7  N   UNL     1       9.735   9.999   7.782  0.00  0.00    -0.300 N 
ATOM     17  C   UNL     1       9.284   8.716   7.486  0.00  0.00    +0.300 C 
ATOM     31  H   UNL     1      10.366   8.904   5.725  0.00  0.00    +0.151 HD
ATOM     32  H   UNL     1      10.313  10.484   7.103  0.00  0.00    +0.150 HD
BRANCH   7  18
ATOM     18  C   UNL     1       9.414  10.677   9.017  0.00  0.00    +0.102 C 
ATOM     23  C   UNL     1      10.656  11.227   9.687  0.00  0.00    +0.024 C 
ENDBRANCH   7  18
ENDBRANCH  13   6
ENDBRANCH   5  12
BRANCH  19  22
ATOM     22  C   UNL     1      12.510   3.850  -1.545  0.00  0.00    +0.042 A 
ATOM     24  C   UNL     1      12.054   4.820  -2.441  0.00  0.00    +0.129 A 
ATOM     25  C   UNL     1      12.213   2.504  -1.776  0.00  0.00    +0.013 A 
ATOM     26  C   UNL     1      11.309   4.449  -3.559  0.00  0.00    +0.046 A 
ATOM     27  C   UNL     1      11.467   2.132  -2.895  0.00  0.00    +0.001 A 
ATOM     28  C   UNL     1      11.015   3.104  -3.786  0.00  0.00    +0.004 A 
BRANCH  24   4
ATOM      4  O   UNL     1      12.327   6.143  -2.244  0.00  0.00    -0.494 OA
ATOM     29  C   UNL     1      13.242   6.756  -3.148  0.00  0.00    +0.277 C 
ENDBRANCH  24   4
ENDBRANCH  19  22
TORSDOF 5
ENDMDL
MODEL 9
REMARK VINA RESULT:      -6.1     25.727     28.679
REMARK  Name = 11941662
REMARK  7 active torsions:
REMARK  status: ('A' for Active; 'I' for Inactive)
REMARK    1  A    between atoms: O_4  and  C_24
REMARK    2  A    between atoms: O_4  and  C_29
REMARK    3  A    between atoms: N_5  and  C_12
REMARK    4  A    between atoms: N_6  and  C_13
REMARK    5  A    between atoms: N_7  and  C_18
REMARK    6  A    between atoms: C_18  and  C_23
REMARK    7  A    between atoms: C_19  and  C_22
REMARK                            x       y       z     vdW  Elec       q    Type
REMARK                         _______ _______ _______ _____ _____    ______ ____
ROOT
ATOM      5  N   UNL     1      20.178  -2.453  28.968  0.00  0.00    -0.306 N 
ATOM      8  N   UNL     1      19.291  -2.464  26.795  0.00  0.00    -0.214 NA
ATOM      9  N   UNL     1      21.505  -1.614  27.224  0.00  0.00    -0.223 NA
ATOM     16  C   UNL     1      20.329  -2.168  27.622  0.00  0.00    +0.216 A 
ATOM     19  C   UNL     1      19.473  -2.173  25.490  0.00  0.00    +0.080 A 
ATOM     20  C   UNL     1      21.618  -1.349  25.906  0.00  0.00    +0.116 A 
ATOM     21  C   UNL     1      20.626  -1.610  24.983  0.00  0.00    +0.048 A 
ATOM     30  H   UNL     1      20.936  -2.180  29.583  0.00  0.00    +0.149 HD
ENDROOT
BRANCH   5  12
ATOM      1  O   UNL     1      19.112  -2.632  31.868  0.00  0.00    -0.370 OA
ATOM      2  O   UNL     1      16.659  -2.502  29.943  0.00  0.00    -0.370 OA
ATOM     10  C   UNL     1      17.989  -1.958  29.882  0.00  0.00    +0.171 C 
ATOM     11  C   UNL     1      18.371  -1.545  31.290  0.00  0.00    +0.171 C 
ATOM     12  C   UNL     1      18.982  -3.042  29.531  0.00  0.00    +0.130 C 
ATOM     13  C   UNL     1      17.045  -1.378  31.996  0.00  0.00    +0.131 C 
ATOM     14  C   UNL     1      19.289  -3.660  30.882  0.00  0.00    +0.185 C 
ATOM     15  C   UNL     1      16.168  -2.393  31.287  0.00  0.00    +0.185 C 
BRANCH  13   6
ATOM      3  O   UNL     1      18.048   1.031  33.231  0.00  0.00    -0.253 OA
ATOM      6  N   UNL     1      16.533  -0.038  31.833  0.00  0.00    -0.292 N 
ATOM      7  N   UNL     1      16.395   2.238  32.139  0.00  0.00    -0.300 N 
ATOM     17  C   UNL     1      17.081   1.073  32.472  0.00  0.00    +0.300 C 
ATOM     31  H   UNL     1      15.777   0.113  31.172  0.00  0.00    +0.151 HD
ATOM     32  H   UNL     1      15.606   2.177  31.503  0.00  0.00    +0.150 HD
BRANCH   7  18
ATOM     18  C   UNL     1      16.754   3.535  32.662  0.00  0.00    +0.102 C 
ATOM     23  C   UNL     1      16.879   4.564  31.558  0.00  0.00    +0.024 C 
ENDBRANCH   7  18
ENDBRANCH  13   6
ENDBRANCH   5  12
BRANCH  19  22
ATOM     22  C   UNL     1      18.359  -2.495  24.630  0.00  0.00    +0.042 A 
ATOM     24  C   UNL     1      18.134  -3.805  24.200  0.00  0.00    +0.129 A 
ATOM     25  C   UNL     1      17.492  -1.477  24.222  0.00  0.00    +0.013 A 
ATOM     26  C   UNL     1      17.052  -4.096  23.369  0.00  0.00    +0.046 A 
ATOM     27  C   UNL     1      16.409  -1.767  23.392  0.00  0.00    +0.001 A 
ATOM     28  C   UNL     1      16.190  -3.076  22.965  0.00  0.00    +0.004 A 
BRANCH  24   4
ATOM      4  O   UNL     1      18.961  -4.822  24.580  0.00  0.00    -0.494 OA
ATOM     29  C   UNL     1      19.443  -5.682  23.550  0.00  0.00    +0.277 C 
ENDBRANCH  24   4
ENDBRANCH  19  22
TORSDOF 5
ENDMDL
MODEL 10
REMARK VINA RESULT:      -6.0     24.629     27.795
REMARK  Name = 11941662
REMARK  7 active torsions:
REMARK  status: ('A' for Active; 'I' for Inactive)
REMARK    1  A    between atoms: O_4  and  C_24
REMARK    2  A    between atoms: O_4  and  C_29
REMARK    3  A    between atoms: N_5  and  C_12
REMARK    4  A    between atoms: N_6  and  C_13
REMARK    5  A    between atoms: N_7  and  C_18
REMARK    6  A    between atoms: C_18  and  C_23
REMARK    7  A    between atoms: C_19  and  C_22
REMARK                            x       y       z     vdW  Elec       q    Type
REMARK                         _______ _______ _______ _____ _____    ______ ____
ROOT
ATOM      5  N   UNL     1       9.384   9.682   6.045  0.00  0.00    -0.306 N 
ATOM      8  N   UNL     1       9.537  10.929   8.027  0.00  0.00    -0.214 NA
ATOM      9  N   UNL     1       9.561  12.015   5.876  0.00  0.00    -0.223 NA
ATOM     16  C   UNL     1       9.497  10.912   6.668  0.00  0.00    +0.216 A 
ATOM     19  C   UNL     1       9.648  12.146   8.600  0.00  0.00    +0.080 A 
ATOM     20  C   UNL     1       9.672  13.198   6.516  0.00  0.00    +0.116 A 
ATOM     21  C   UNL     1       9.721  13.326   7.889  0.00  0.00    +0.048 A 
ATOM     30  H   UNL     1       9.408   9.676   5.032  0.00  0.00    +0.149 HD
ENDROOT
BRANCH   5  12
ATOM      1  O   UNL     1       8.162   6.934   5.310  0.00  0.00    -0.370 OA
ATOM      2  O   UNL     1      10.618   6.434   7.169  0.00  0.00    -0.370 OA
ATOM     10  C   UNL     1      10.309   7.448   6.197  0.00  0.00    +0.171 C 
ATOM     11  C   UNL     1       9.568   6.770   5.061  0.00  0.00    +0.171 C 
ATOM     12  C   UNL     1       9.307   8.427   6.762  0.00  0.00    +0.130 C 
ATOM     13  C   UNL     1       9.958   5.315   5.184  0.00  0.00    +0.131 C 
ATOM     14  C   UNL     1       7.982   7.743   6.482  0.00  0.00    +0.185 C 
ATOM     15  C   UNL     1      10.173   5.161   6.679  0.00  0.00    +0.185 C 
BRANCH  13   6
ATOM      3  O   UNL     1      10.175   4.628   2.389  0.00  0.00    -0.253 OA
ATOM      6  N   UNL     1      11.168   5.035   4.449  0.00  0.00    -0.292 N 
ATOM      7  N   UNL     1      12.478   4.488   2.639  0.00  0.00    -0.300 N 
ATOM     17  C   UNL     1      11.180   4.709   3.094  0.00  0.00    +0.300 C 
ATOM     31  H   UNL     1      12.058   5.142   4.925  0.00  0.00    +0.151 HD
ATOM     32  H   UNL     1      13.248   4.577   3.294  0.00  0.00    +0.150 HD
BRANCH   7  18
ATOM     18  C   UNL     1      12.778   4.134   1.271  0.00  0.00    +0.102 C 
ATOM     23  C   UNL     1      14.131   3.464   1.156  0.00  0.00    +0.024 C 
ENDBRANCH   7  18
ENDBRANCH  13   6
ENDBRANCH   5  12
BRANCH  19  22
ATOM     22  C   UNL     1       9.689  12.141  10.044  0.00  0.00    +0.042 A 
ATOM     24  C   UNL     1      10.897  11.995  10.731  0.00  0.00    +0.129 A 
ATOM     25  C   UNL     1       8.499  12.288  10.763  0.00  0.00    +0.013 A 
ATOM     26  C   UNL     1      10.916  11.993  12.125  0.00  0.00    +0.046 A 
ATOM     27  C   UNL     1       8.518  12.287  12.158  0.00  0.00    +0.001 A 
ATOM     28  C   UNL     1       9.726  12.139  12.838  0.00  0.00    +0.004 A 
BRANCH  24   4
ATOM      4  O   UNL     1      12.076  11.850  10.059  0.00  0.00    -0.494 OA
ATOM     29  C   UNL     1      13.213  12.519  10.597  0.00  0.00    +0.277 C 
ENDBRANCH  24   4
ENDBRANCH  19  22
TORSDOF 5
ENDMDL
