REMARK  Name = 45784002
REMARK  13 active torsions:
REMARK  status: ('A' for Active; 'I' for Inactive)
REMARK    1  A    between atoms: N_2  and  C_13
REMARK    2  A    between atoms: N_2  and  C_19
REMARK    3  A    between atoms: C_6  and  C_10
REMARK    4  A    between atoms: C_7  and  C_13
REMARK    5  A    between atoms: C_9  and  C_14
REMARK    6  A    between atoms: C_10  and  C_15
REMARK    7  A    between atoms: C_10  and  C_16
REMARK    8  A    between atoms: C_11  and  C_17
REMARK    9  A    between atoms: C_14  and  C_18
REMARK   10  A    between atoms: C_19  and  C_20
REMARK   11  A    between atoms: C_21  and  C_22
REMARK   12  A    between atoms: C_22  and  C_25
REMARK   13  A    between atoms: C_25  and  C_27
REMARK                            x       y       z     vdW  Elec       q    Type
REMARK                         _______ _______ _______ _____ _____    ______ ____
ROOT
ATOM      6  C   UNL     1       2.711  -0.389  -0.673  0.00  0.00    +0.000 C 
ATOM      7  C   UNL     1       2.706  -0.477   0.871  0.00  0.00    +0.029 C 
ATOM      8  C   UNL     1       1.682   0.643  -1.156  0.00  0.00    +0.012 C 
ATOM      9  C   UNL     1       1.902   2.051  -0.561  0.00  0.00    +0.024 C 
ATOM     11  C   UNL     1       2.312   2.020   0.904  0.00  0.00    -0.073 C 
ATOM     12  C   UNL     1       2.656   0.879   1.528  0.00  0.00    -0.023 C 
ATOM     17  C   UNL     1       2.381   3.333   1.634  0.00  0.00    +0.039 C 
ENDROOT
BRANCH   6  10
ATOM     10  C   UNL     1       4.112  -0.069  -1.211  0.00  0.00    -0.013 C 
ATOM     15  C   UNL     1       4.104  -0.044  -2.736  0.00  0.00    +0.007 C 
ATOM     16  C   UNL     1       5.125  -1.085  -0.692  0.00  0.00    +0.007 C 
ENDBRANCH   6  10
BRANCH   7  13
ATOM     13  C   UNL     1       1.541  -1.329   1.385  0.00  0.00    +0.089 C 
BRANCH  13   2
ATOM      2  N   UNL     1       1.571  -2.653   0.789  0.00  0.00    -0.311 NA
ATOM     29  H   UNL     1       2.450  -3.108   1.041  0.00  0.00    +0.122 HD
BRANCH   2  19
ATOM     19  C   UNL     1       0.460  -3.469   1.266  0.00  0.00    +0.117 C 
BRANCH  19  20
ATOM      5  N   UNL     1      -2.052  -2.963  -1.521  0.00  0.00    -0.263 NA
ATOM     20  C   UNL     1      -0.825  -3.135   0.555  0.00  0.00    -0.016 A 
ATOM     23  C   UNL     1      -1.943  -2.705   1.260  0.00  0.00    +0.008 A 
ATOM     24  C   UNL     1      -0.930  -3.247  -0.822  0.00  0.00    +0.115 A 
ATOM     26  C   UNL     1      -3.116  -2.404   0.577  0.00  0.00    +0.020 A 
ATOM     28  C   UNL     1      -3.118  -2.547  -0.801  0.00  0.00    +0.111 A 
ENDBRANCH  19  20
ENDBRANCH   2  19
ENDBRANCH  13   2
ENDBRANCH   7  13
BRANCH   9  14
ATOM     14  C   UNL     1       0.642   2.890  -0.810  0.00  0.00    +0.105 C 
BRANCH  14  18
ATOM      1  O   UNL     1      -1.623   1.985  -0.776  0.00  0.00    -0.425 OA
ATOM      3  N   UNL     1      -0.684   2.175   1.245  0.00  0.00    -0.112 NA
ATOM      4  N   UNL     1      -1.954   1.654   1.412  0.00  0.00    -0.112 NA
ATOM     18  C   UNL     1      -0.535   2.352  -0.047  0.00  0.00    +0.218 A 
ATOM     21  C   UNL     1      -2.465   1.560   0.206  0.00  0.00    +0.217 A 
BRANCH  21  22
ATOM     22  C   UNL     1      -3.783   1.070  -0.215  0.00  0.00    +0.097 C 
BRANCH  22  25
ATOM     25  C   UNL     1      -4.765   2.208  -0.569  0.00  0.00    +0.006 C 
ATOM     27  C   UNL     1      -6.115   1.693  -1.043  0.00  0.00    +0.004 C 
ENDBRANCH  22  25
ENDBRANCH  21  22
ENDBRANCH  14  18
ENDBRANCH   9  14
TORSDOF 9
