REMARK  Name = 75536852
REMARK  6 active torsions:
REMARK  status: ('A' for Active; 'I' for Inactive)
REMARK    1  A    between atoms: O_5  and  C_10
REMARK    2  A    between atoms: O_5  and  C_19
REMARK    3  A    between atoms: C_15  and  C_16
REMARK    4  A    between atoms: C_17  and  C_21
REMARK    5  A    between atoms: C_20  and  C_23
REMARK    6  A    between atoms: C_24  and  C_27
REMARK                            x       y       z     vdW  Elec       q    Type
REMARK                         _______ _______ _______ _____ _____    ______ ____
ROOT
ATOM      4  O   UNL     1      -1.547  -2.750  -0.265  0.00  0.00    -0.375 OA
ATOM      7  O   UNL     1       2.846  -1.838   1.517  0.00  0.00    -0.270 OA
ATOM      8  N   UNL     1       0.676  -1.040   1.134  0.00  0.00    -0.292 N 
ATOM     10  C   UNL     1      -1.582  -0.348   0.164  0.00  0.00    +0.218 C 
ATOM     11  C   UNL     1      -0.196   0.050   0.679  0.00  0.00    +0.155 C 
ATOM     12  C   UNL     1       0.057  -2.306   1.530  0.00  0.00    +0.136 C 
ATOM     13  C   UNL     1      -1.538  -1.464  -0.877  0.00  0.00    +0.206 C 
ATOM     14  C   UNL     1      -0.306  -3.144   0.311  0.00  0.00    +0.179 C 
ATOM     15  C   UNL     1       2.077  -0.941   1.174  0.00  0.00    +0.250 C 
ENDROOT
BRANCH  15  16
ATOM      6  O   UNL     1       3.972   1.797  -0.357  0.00  0.00    -0.455 OA
ATOM     16  C   UNL     1       2.698   0.332   0.776  0.00  0.00    +0.087 A 
ATOM     17  C   UNL     1       3.590   0.496  -0.258  0.00  0.00    +0.220 A 
ATOM     18  C   UNL     1       2.520   1.614   1.349  0.00  0.00    +0.058 A 
ATOM     20  C   UNL     1       3.316   2.470   0.625  0.00  0.00    +0.103 A 
ATOM     23  C   UNL     1       3.577   3.914   0.708  0.00  0.00    +0.086 C 
BRANCH  17  21
ATOM      1  F   UNL     1       3.911  -0.118  -2.547  0.00  0.00    -0.163 F 
ATOM      2  F   UNL     1       5.558  -0.496  -1.188  0.00  0.00    -0.163 F 
ATOM      3  F   UNL     1       3.766  -1.724  -1.089  0.00  0.00    -0.163 F 
ATOM     21  C   UNL     1       4.186  -0.426  -1.237  0.00  0.00    +0.451 C 
ENDBRANCH  17  21
ENDBRANCH  15  16
BRANCH  10   5
ATOM      5  O   UNL     1      -2.152   0.820  -0.429  0.00  0.00    -0.469 OA
BRANCH   5  19
ATOM      9  N   UNL     1      -4.233  -0.194  -0.307  0.00  0.00    -0.218 NA
ATOM     19  C   UNL     1      -3.510   0.948  -0.341  0.00  0.00    +0.215 A 
ATOM     22  C   UNL     1      -4.063   2.218  -0.293  0.00  0.00    +0.067 A 
ATOM     24  C   UNL     1      -5.575  -0.053  -0.221  0.00  0.00    +0.042 A 
ATOM     25  C   UNL     1      -5.447   2.322  -0.206  0.00  0.00    +0.007 A 
ATOM     26  C   UNL     1      -6.224   1.170  -0.168  0.00  0.00    +0.023 A 
ATOM     27  C   UNL     1      -6.378  -1.310  -0.186  0.00  0.00    +0.066 C 
ENDBRANCH   5  19
ENDBRANCH  10   5
TORSDOF 4
