REMARK  Name = 40777636
REMARK  9 active torsions:
REMARK  status: ('A' for Active; 'I' for Inactive)
REMARK    1  A    between atoms: O_2  and  C_29
REMARK    2  A    between atoms: O_2  and  C_30
REMARK    3  A    between atoms: N_3  and  C_8
REMARK    4  A    between atoms: N_4  and  C_15
REMARK    5  A    between atoms: C_6  and  C_9
REMARK    6  A    between atoms: C_12  and  C_14
REMARK    7  A    between atoms: C_13  and  C_16
REMARK    8  A    between atoms: C_15  and  C_18
REMARK    9  A    between atoms: C_17  and  C_19
REMARK                            x       y       z     vdW  Elec       q    Type
REMARK                         _______ _______ _______ _____ _____    ______ ____
ROOT
ATOM      6  C   UNL     1      -0.393  -0.235   0.249  0.00  0.00    +0.047 C 
ATOM      7  C   UNL     1       0.452   0.559  -0.768  0.00  0.00    +0.039 C 
ATOM      8  C   UNL     1       1.339   1.494   0.063  0.00  0.00    +0.097 C 
ATOM     10  C   UNL     1      -0.343   0.644   1.465  0.00  0.00    -0.021 C 
ATOM     11  C   UNL     1       0.605   1.582   1.360  0.00  0.00    -0.009 C 
ENDROOT
BRANCH   6   9
ATOM      4  N   UNL     1      -3.830  -0.416  -1.004  0.00  0.00    -0.264 N 
ATOM      5  N   UNL     1      -3.635  -1.738  -0.865  0.00  0.00    -0.176 NA
ATOM      9  C   UNL     1      -1.786  -0.548  -0.246  0.00  0.00    +0.003 A 
ATOM     12  C   UNL     1      -2.753   0.341  -0.647  0.00  0.00    +0.041 A 
ATOM     13  C   UNL     1      -2.384  -1.813  -0.402  0.00  0.00    +0.064 A 
ATOM     14  C   UNL     1      -2.751   1.814  -0.721  0.00  0.00    +0.065 C 
ATOM     16  C   UNL     1      -1.794  -3.133  -0.118  0.00  0.00    +0.068 C 
BRANCH   4  15
ATOM     15  C   UNL     1      -5.102   0.061  -1.496  0.00  0.00    +0.178 C 
BRANCH  15  18
ATOM     18  C   UNL     1      -6.189   0.051  -0.450  0.00  0.00    -0.026 A 
ATOM     20  C   UNL     1      -6.820  -1.146  -0.111  0.00  0.00    +0.005 A 
ATOM     21  C   UNL     1      -6.564   1.239   0.178  0.00  0.00    +0.005 A 
ATOM     24  C   UNL     1      -7.825  -1.155   0.856  0.00  0.00    +0.000 A 
ATOM     25  C   UNL     1      -7.569   1.230   1.145  0.00  0.00    +0.000 A 
ATOM     26  C   UNL     1      -8.200   0.033   1.484  0.00  0.00    +0.000 A 
ENDBRANCH  15  18
ENDBRANCH   4  15
ENDBRANCH   6   9
BRANCH   8   3
ATOM      1  O   UNL     1       3.697   1.965  -1.508  0.00  0.00    -0.270 OA
ATOM      3  N   UNL     1       2.651   0.953   0.298  0.00  0.00    -0.305 N 
ATOM     17  C   UNL     1       3.739   1.238  -0.519  0.00  0.00    +0.245 C 
ATOM     31  H   UNL     1       2.744   0.267   1.041  0.00  0.00    +0.150 HD
BRANCH  17  19
ATOM     19  C   UNL     1       5.020   0.579  -0.157  0.00  0.00    +0.037 A 
ATOM     22  C   UNL     1       5.974   0.321  -1.140  0.00  0.00    +0.016 A 
ATOM     23  C   UNL     1       5.267   0.216   1.167  0.00  0.00    +0.016 A 
ATOM     27  C   UNL     1       7.176  -0.300  -0.800  0.00  0.00    +0.046 A 
ATOM     28  C   UNL     1       6.469  -0.404   1.508  0.00  0.00    +0.046 A 
ATOM     29  C   UNL     1       7.424  -0.662   0.524  0.00  0.00    +0.120 A 
BRANCH  29   2
ATOM      2  O   UNL     1       8.597  -1.268   0.856  0.00  0.00    -0.495 OA
ATOM     30  C   UNL     1       9.528  -1.501  -0.199  0.00  0.00    +0.277 C 
ENDBRANCH  29   2
ENDBRANCH  17  19
ENDBRANCH   8   3
TORSDOF 6
