MODEL 1
REMARK VINA RESULT:      -6.7      0.000      0.000
REMARK  Name = 25338259
REMARK  4 active torsions:
REMARK  status: ('A' for Active; 'I' for Inactive)
REMARK    1  A    between atoms: O_4  and  C_10
REMARK    2  A    between atoms: N_6  and  C_9
REMARK    3  A    between atoms: N_7  and  C_11
REMARK    4  A    between atoms: N_8  and  C_20
REMARK                            x       y       z     vdW  Elec       q    Type
REMARK                         _______ _______ _______ _____ _____    ______ ____
ROOT
ATOM      2  O   UNL     1      13.149   8.935  21.443  0.00  0.00    -0.342 OA
ATOM      3  O   UNL     1      11.738   7.124  21.771  0.00  0.00    -0.347 OA
ATOM      9  C   UNL     1      13.800   6.792  20.549  0.00  0.00    +0.143 C 
ATOM     10  C   UNL     1      13.086   7.110  19.215  0.00  0.00    +0.159 C 
ATOM     11  C   UNL     1      12.512   8.542  19.151  0.00  0.00    +0.136 C 
ATOM     12  C   UNL     1      13.116   7.529  21.716  0.00  0.00    +0.270 C 
ATOM     13  C   UNL     1      12.061   9.078  20.525  0.00  0.00    +0.170 C 
ATOM     14  C   UNL     1      11.009   8.225  21.208  0.00  0.00    +0.196 C 
ENDROOT
BRANCH  11   7
ATOM      5  O   UNL     1      12.473   9.624  16.499  0.00  0.00    -0.252 OA
ATOM      7  N   UNL     1      13.484   9.442  18.569  0.00  0.00    -0.291 N 
ATOM      8  N   UNL     1      14.464  10.770  16.977  0.00  0.00    -0.269 N 
ATOM     19  C   UNL     1      13.388   9.924  17.261  0.00  0.00    +0.304 C 
ATOM     26  H   UNL     1      14.312   9.672  19.110  0.00  0.00    +0.151 HD
ATOM     28  H   UNL     1      15.139  10.914  17.724  0.00  0.00    +0.156 HD
BRANCH   8  20
ATOM      1  F   UNL     1      15.524  13.460  12.247  0.00  0.00    -0.205 F 
ATOM     20  C   UNL     1      14.735  11.456  15.771  0.00  0.00    +0.035 A 
ATOM     21  C   UNL     1      14.353  12.790  15.627  0.00  0.00    +0.026 A 
ATOM     22  C   UNL     1      15.382  10.799  14.724  0.00  0.00    +0.026 A 
ATOM     23  C   UNL     1      14.619  13.466  14.437  0.00  0.00    +0.040 A 
ATOM     24  C   UNL     1      15.649  11.475  13.535  0.00  0.00    +0.040 A 
ATOM     25  C   UNL     1      15.267  12.810  13.390  0.00  0.00    +0.124 A 
ENDBRANCH   8  20
ENDBRANCH  11   7
BRANCH   9   6
ATOM      6  N   UNL     1      15.200   7.183  20.473  0.00  0.00    -0.293 NA
ATOM     15  C   UNL     1      15.921   6.921  21.718  0.00  0.00    +0.085 C 
ATOM     16  C   UNL     1      15.931   6.441  19.447  0.00  0.00    +0.085 C 
ATOM     17  C   UNL     1      17.379   7.025  21.296  0.00  0.00    +0.017 C 
ATOM     18  C   UNL     1      17.386   6.711  19.803  0.00  0.00    +0.017 C 
ENDBRANCH   9   6
BRANCH  10   4
ATOM      4  O   UNL     1      12.009   6.175  19.064  0.00  0.00    -0.388 OA
ATOM     27  H   UNL     1      11.478   6.203  19.878  0.00  0.00    +0.210 HD
ENDBRANCH  10   4
TORSDOF 4
ENDMDL
MODEL 2
REMARK VINA RESULT:      -6.1     12.451     15.171
REMARK  Name = 25338259
REMARK  4 active torsions:
REMARK  status: ('A' for Active; 'I' for Inactive)
REMARK    1  A    between atoms: O_4  and  C_10
REMARK    2  A    between atoms: N_6  and  C_9
REMARK    3  A    between atoms: N_7  and  C_11
REMARK    4  A    between atoms: N_8  and  C_20
REMARK                            x       y       z     vdW  Elec       q    Type
REMARK                         _______ _______ _______ _____ _____    ______ ____
ROOT
ATOM      2  O   UNL     1      10.124   8.295   5.850  0.00  0.00    -0.342 OA
ATOM      3  O   UNL     1       9.591   7.726   8.034  0.00  0.00    -0.347 OA
ATOM      9  C   UNL     1      11.911   7.686   7.351  0.00  0.00    +0.143 C 
ATOM     10  C   UNL     1      11.784   6.203   6.931  0.00  0.00    +0.159 C 
ATOM     11  C   UNL     1      10.765   5.971   5.794  0.00  0.00    +0.136 C 
ATOM     12  C   UNL     1      10.556   8.404   7.212  0.00  0.00    +0.270 C 
ATOM     13  C   UNL     1       9.589   6.969   5.819  0.00  0.00    +0.170 C 
ATOM     14  C   UNL     1       8.798   6.961   7.114  0.00  0.00    +0.196 C 
ENDROOT
BRANCH  11   7
ATOM      5  O   UNL     1      10.542   4.072   3.661  0.00  0.00    -0.252 OA
ATOM      7  N   UNL     1      11.429   6.031   4.509  0.00  0.00    -0.291 N 
ATOM      8  N   UNL     1      12.025   5.378   2.394  0.00  0.00    -0.269 N 
ATOM     19  C   UNL     1      11.263   5.057   3.522  0.00  0.00    +0.304 C 
ATOM     26  H   UNL     1      12.104   6.772   4.350  0.00  0.00    +0.151 HD
ATOM     28  H   UNL     1      12.571   6.235   2.442  0.00  0.00    +0.156 HD
BRANCH   8  20
ATOM      1  F   UNL     1      12.451   2.539  -2.348  0.00  0.00    -0.205 F 
ATOM     20  C   UNL     1      12.134   4.653   1.185  0.00  0.00    +0.035 A 
ATOM     21  C   UNL     1      13.288   3.917   0.914  0.00  0.00    +0.026 A 
ATOM     22  C   UNL     1      11.088   4.676   0.262  0.00  0.00    +0.026 A 
ATOM     23  C   UNL     1      13.394   3.203  -0.280  0.00  0.00    +0.040 A 
ATOM     24  C   UNL     1      11.195   3.961  -0.931  0.00  0.00    +0.040 A 
ATOM     25  C   UNL     1      12.348   3.225  -1.202  0.00  0.00    +0.124 A 
ENDBRANCH   8  20
ENDBRANCH  11   7
BRANCH   9   6
ATOM      6  N   UNL     1      12.909   8.355   6.529  0.00  0.00    -0.293 NA
ATOM     15  C   UNL     1      13.157   9.730   6.964  0.00  0.00    +0.085 C 
ATOM     16  C   UNL     1      14.213   7.696   6.587  0.00  0.00    +0.085 C 
ATOM     17  C   UNL     1      14.458  10.081   6.255  0.00  0.00    +0.017 C 
ATOM     18  C   UNL     1      15.150   8.744   6.005  0.00  0.00    +0.017 C 
ENDBRANCH   9   6
BRANCH  10   4
ATOM      4  O   UNL     1      11.367   5.458   8.082  0.00  0.00    -0.388 OA
ATOM     27  H   UNL     1      10.894   4.668   7.767  0.00  0.00    +0.210 HD
ENDBRANCH  10   4
TORSDOF 4
ENDMDL
MODEL 3
REMARK VINA RESULT:      -6.1     12.672     16.292
REMARK  Name = 25338259
REMARK  4 active torsions:
REMARK  status: ('A' for Active; 'I' for Inactive)
REMARK    1  A    between atoms: O_4  and  C_10
REMARK    2  A    between atoms: N_6  and  C_9
REMARK    3  A    between atoms: N_7  and  C_11
REMARK    4  A    between atoms: N_8  and  C_20
REMARK                            x       y       z     vdW  Elec       q    Type
REMARK                         _______ _______ _______ _____ _____    ______ ____
ROOT
ATOM      2  O   UNL     1      12.414   8.046   1.775  0.00  0.00    -0.342 OA
ATOM      3  O   UNL     1      14.512   8.863   1.222  0.00  0.00    -0.347 OA
ATOM      9  C   UNL     1      14.214   6.473   1.457  0.00  0.00    +0.143 C 
ATOM     10  C   UNL     1      14.575   6.554   2.957  0.00  0.00    +0.159 C 
ATOM     11  C   UNL     1      13.595   7.418   3.781  0.00  0.00    +0.136 C 
ATOM     12  C   UNL     1      13.581   7.794   0.982  0.00  0.00    +0.270 C 
ATOM     13  C   UNL     1      12.985   8.581   2.972  0.00  0.00    +0.170 C 
ATOM     14  C   UNL     1      14.010   9.534   2.387  0.00  0.00    +0.196 C 
ENDROOT
BRANCH  11   7
ATOM      5  O   UNL     1      12.534   7.523   6.439  0.00  0.00    -0.252 OA
ATOM      7  N   UNL     1      12.538   6.592   4.324  0.00  0.00    -0.291 N 
ATOM      8  N   UNL     1      11.059   5.786   5.879  0.00  0.00    -0.269 N 
ATOM     19  C   UNL     1      12.079   6.710   5.638  0.00  0.00    +0.304 C 
ATOM     26  H   UNL     1      12.168   5.842   3.747  0.00  0.00    +0.151 HD
ATOM     28  H   UNL     1      10.799   5.181   5.103  0.00  0.00    +0.156 HD
BRANCH   8  20
ATOM      1  F   UNL     1       8.219   4.996  10.574  0.00  0.00    -0.205 F 
ATOM     20  C   UNL     1      10.335   5.584   7.076  0.00  0.00    +0.035 A 
ATOM     21  C   UNL     1      10.273   4.313   7.649  0.00  0.00    +0.026 A 
ATOM     22  C   UNL     1       9.680   6.656   7.685  0.00  0.00    +0.026 A 
ATOM     23  C   UNL     1       9.558   4.115   8.829  0.00  0.00    +0.040 A 
ATOM     24  C   UNL     1       8.966   6.457   8.866  0.00  0.00    +0.040 A 
ATOM     25  C   UNL     1       8.905   5.186   9.439  0.00  0.00    +0.124 A 
ENDBRANCH   8  20
ENDBRANCH  11   7
BRANCH   9   6
ATOM      6  N   UNL     1      13.291   5.373   1.222  0.00  0.00    -0.293 NA
ATOM     15  C   UNL     1      12.962   5.213  -0.194  0.00  0.00    +0.085 C 
ATOM     16  C   UNL     1      13.844   4.083   1.632  0.00  0.00    +0.085 C 
ATOM     17  C   UNL     1      12.338   3.825  -0.244  0.00  0.00    +0.017 C 
ATOM     18  C   UNL     1      12.916   3.084   0.958  0.00  0.00    +0.017 C 
ENDBRANCH   9   6
BRANCH  10   4
ATOM      4  O   UNL     1      15.888   7.122   3.061  0.00  0.00    -0.388 OA
ATOM     27  H   UNL     1      16.531   6.399   2.957  0.00  0.00    +0.210 HD
ENDBRANCH  10   4
TORSDOF 4
ENDMDL
MODEL 4
REMARK VINA RESULT:      -5.9     12.271     14.840
REMARK  Name = 25338259
REMARK  4 active torsions:
REMARK  status: ('A' for Active; 'I' for Inactive)
REMARK    1  A    between atoms: O_4  and  C_10
REMARK    2  A    between atoms: N_6  and  C_9
REMARK    3  A    between atoms: N_7  and  C_11
REMARK    4  A    between atoms: N_8  and  C_20
REMARK                            x       y       z     vdW  Elec       q    Type
REMARK                         _______ _______ _______ _____ _____    ______ ____
ROOT
ATOM      2  O   UNL     1      11.038   8.812   7.323  0.00  0.00    -0.342 OA
ATOM      3  O   UNL     1       9.048   9.977   7.571  0.00  0.00    -0.347 OA
ATOM      9  C   UNL     1       8.969   7.572   7.318  0.00  0.00    +0.143 C 
ATOM     10  C   UNL     1       8.865   7.716   5.782  0.00  0.00    +0.159 C 
ATOM     11  C   UNL     1      10.093   8.399   5.143  0.00  0.00    +0.136 C 
ATOM     12  C   UNL     1       9.736   8.764   7.920  0.00  0.00    +0.270 C 
ATOM     13  C   UNL     1      10.759   9.439   6.067  0.00  0.00    +0.170 C 
ATOM     14  C   UNL     1       9.832  10.553   6.516  0.00  0.00    +0.196 C 
ENDROOT
BRANCH  11   7
ATOM      5  O   UNL     1      10.470   7.331   2.513  0.00  0.00    -0.252 OA
ATOM      7  N   UNL     1      11.066   7.404   4.745  0.00  0.00    -0.291 N 
ATOM      8  N   UNL     1      12.202   5.985   3.349  0.00  0.00    -0.269 N 
ATOM     19  C   UNL     1      11.182   6.937   3.433  0.00  0.00    +0.304 C 
ATOM     26  H   UNL     1      11.636   6.972   5.466  0.00  0.00    +0.151 HD
ATOM     28  H   UNL     1      12.699   5.771   4.210  0.00  0.00    +0.156 HD
BRANCH   8  20
ATOM      1  F   UNL     1      13.898   3.203  -1.136  0.00  0.00    -0.205 F 
ATOM     20  C   UNL     1      12.634   5.275   2.205  0.00  0.00    +0.035 A 
ATOM     21  C   UNL     1      12.366   3.911   2.087  0.00  0.00    +0.026 A 
ATOM     22  C   UNL     1      13.331   5.939   1.194  0.00  0.00    +0.026 A 
ATOM     23  C   UNL     1      12.793   3.212   0.959  0.00  0.00    +0.040 A 
ATOM     24  C   UNL     1      13.757   5.239   0.065  0.00  0.00    +0.040 A 
ATOM     25  C   UNL     1      13.489   3.875  -0.052  0.00  0.00    +0.124 A 
ENDBRANCH   8  20
ENDBRANCH  11   7
BRANCH   9   6
ATOM      6  N   UNL     1       9.645   6.329   7.660  0.00  0.00    -0.293 NA
ATOM     15  C   UNL     1       9.231   5.810   8.963  0.00  0.00    +0.085 C 
ATOM     16  C   UNL     1       9.350   5.255   6.712  0.00  0.00    +0.085 C 
ATOM     17  C   UNL     1       9.734   4.373   8.933  0.00  0.00    +0.017 C 
ATOM     18  C   UNL     1       9.814   4.010   7.453  0.00  0.00    +0.017 C 
ENDBRANCH   9   6
BRANCH  10   4
ATOM      4  O   UNL     1       7.700   8.501   5.496  0.00  0.00    -0.388 OA
ATOM     27  H   UNL     1       7.876   9.410   5.796  0.00  0.00    +0.210 HD
ENDBRANCH  10   4
TORSDOF 4
ENDMDL
MODEL 5
REMARK VINA RESULT:      -5.9     13.423     16.343
REMARK  Name = 25338259
REMARK  4 active torsions:
REMARK  status: ('A' for Active; 'I' for Inactive)
REMARK    1  A    between atoms: O_4  and  C_10
REMARK    2  A    between atoms: N_6  and  C_9
REMARK    3  A    between atoms: N_7  and  C_11
REMARK    4  A    between atoms: N_8  and  C_20
REMARK                            x       y       z     vdW  Elec       q    Type
REMARK                         _______ _______ _______ _____ _____    ______ ____
ROOT
ATOM      2  O   UNL     1       8.085   6.498   6.365  0.00  0.00    -0.342 OA
ATOM      3  O   UNL     1       8.942   8.052   7.857  0.00  0.00    -0.347 OA
ATOM      9  C   UNL     1       9.189   8.452   5.484  0.00  0.00    +0.143 C 
ATOM     10  C   UNL     1      10.544   7.708   5.477  0.00  0.00    +0.159 C 
ATOM     11  C   UNL     1      10.431   6.221   5.881  0.00  0.00    +0.136 C 
ATOM     12  C   UNL     1       8.275   7.900   6.593  0.00  0.00    +0.270 C 
ATOM     13  C   UNL     1       9.298   5.950   6.891  0.00  0.00    +0.170 C 
ATOM     14  C   UNL     1       9.418   6.737   8.182  0.00  0.00    +0.196 C 
ENDROOT
BRANCH  11   7
ATOM      5  O   UNL     1      12.198   6.018   3.635  0.00  0.00    -0.252 OA
ATOM      7  N   UNL     1      10.244   5.399   4.704  0.00  0.00    -0.291 N 
ATOM      8  N   UNL     1      10.718   4.482   2.657  0.00  0.00    -0.269 N 
ATOM     19  C   UNL     1      11.161   5.360   3.651  0.00  0.00    +0.304 C 
ATOM     26  H   UNL     1       9.372   4.888   4.607  0.00  0.00    +0.151 HD
ATOM     28  H   UNL     1       9.831   4.012   2.826  0.00  0.00    +0.156 HD
BRANCH   8  20
ATOM      1  F   UNL     1      13.207   3.227  -2.134  0.00  0.00    -0.205 F 
ATOM     20  C   UNL     1      11.353   4.162   1.435  0.00  0.00    +0.035 A 
ATOM     21  C   UNL     1      12.584   3.506   1.440  0.00  0.00    +0.026 A 
ATOM     22  C   UNL     1      10.748   4.502   0.224  0.00  0.00    +0.026 A 
ATOM     23  C   UNL     1      13.210   3.191   0.234  0.00  0.00    +0.040 A 
ATOM     24  C   UNL     1      11.374   4.186  -0.981  0.00  0.00    +0.040 A 
ATOM     25  C   UNL     1      12.606   3.531  -0.976  0.00  0.00    +0.124 A 
ENDBRANCH   8  20
ENDBRANCH  11   7
BRANCH   9   6
ATOM      6  N   UNL     1       8.535   8.313   4.192  0.00  0.00    -0.293 NA
ATOM     15  C   UNL     1       7.443   9.269   4.013  0.00  0.00    +0.085 C 
ATOM     16  C   UNL     1       9.445   8.562   3.075  0.00  0.00    +0.085 C 
ATOM     17  C   UNL     1       7.183   9.214   2.514  0.00  0.00    +0.017 C 
ATOM     18  C   UNL     1       8.499   8.747   1.898  0.00  0.00    +0.017 C 
ENDBRANCH   9   6
BRANCH  10   4
ATOM      4  O   UNL     1      11.411   8.372   6.406  0.00  0.00    -0.388 OA
ATOM     27  H   UNL     1      12.268   8.506   5.966  0.00  0.00    +0.210 HD
ENDBRANCH  10   4
TORSDOF 4
ENDMDL
MODEL 6
REMARK VINA RESULT:      -5.8     27.357     29.289
REMARK  Name = 25338259
REMARK  4 active torsions:
REMARK  status: ('A' for Active; 'I' for Inactive)
REMARK    1  A    between atoms: O_4  and  C_10
REMARK    2  A    between atoms: N_6  and  C_9
REMARK    3  A    between atoms: N_7  and  C_11
REMARK    4  A    between atoms: N_8  and  C_20
REMARK                            x       y       z     vdW  Elec       q    Type
REMARK                         _______ _______ _______ _____ _____    ______ ____
ROOT
ATOM      2  O   UNL     1      -4.838 -10.241  18.103  0.00  0.00    -0.342 OA
ATOM      3  O   UNL     1      -4.413 -12.302  19.077  0.00  0.00    -0.347 OA
ATOM      9  C   UNL     1      -4.709 -12.183  16.679  0.00  0.00    +0.143 C 
ATOM     10  C   UNL     1      -6.229 -12.420  16.833  0.00  0.00    +0.159 C 
ATOM     11  C   UNL     1      -6.946 -11.312  17.635  0.00  0.00    +0.136 C 
ATOM     12  C   UNL     1      -4.143 -11.482  17.928  0.00  0.00    +0.270 C 
ATOM     13  C   UNL     1      -6.055 -10.673  18.719  0.00  0.00    +0.170 C 
ATOM     14  C   UNL     1      -5.513 -11.658  19.737  0.00  0.00    +0.196 C 
ENDROOT
BRANCH  11   7
ATOM      5  O   UNL     1      -9.535 -10.088  17.692  0.00  0.00    -0.252 OA
ATOM      7  N   UNL     1      -7.439 -10.289  16.739  0.00  0.00    -0.291 N 
ATOM      8  N   UNL     1      -8.916  -8.781  15.843  0.00  0.00    -0.269 N 
ATOM     19  C   UNL     1      -8.721  -9.744  16.838  0.00  0.00    +0.304 C 
ATOM     26  H   UNL     1      -6.853 -10.010  15.957  0.00  0.00    +0.151 HD
ATOM     28  H   UNL     1      -8.136  -8.614  15.212  0.00  0.00    +0.156 HD
BRANCH   8  20
ATOM      1  F   UNL     1     -13.445  -5.728  14.897  0.00  0.00    -0.205 F 
ATOM     20  C   UNL     1     -10.071  -8.003  15.602  0.00  0.00    +0.035 A 
ATOM     21  C   UNL     1     -10.947  -8.354  14.574  0.00  0.00    +0.026 A 
ATOM     22  C   UNL     1     -10.335  -6.883  16.391  0.00  0.00    +0.026 A 
ATOM     23  C   UNL     1     -12.086  -7.585  14.336  0.00  0.00    +0.040 A 
ATOM     24  C   UNL     1     -11.475  -6.115  16.153  0.00  0.00    +0.040 A 
ATOM     25  C   UNL     1     -12.350  -6.466  15.125  0.00  0.00    +0.124 A 
ENDBRANCH   8  20
ENDBRANCH  11   7
BRANCH   9   6
ATOM      6  N   UNL     1      -4.446 -11.374  15.499  0.00  0.00    -0.293 NA
ATOM     15  C   UNL     1      -3.017 -11.261  15.207  0.00  0.00    +0.085 C 
ATOM     16  C   UNL     1      -5.037 -11.943  14.289  0.00  0.00    +0.085 C 
ATOM     17  C   UNL     1      -3.002 -10.739  13.777  0.00  0.00    +0.017 C 
ATOM     18  C   UNL     1      -4.331 -11.185  13.175  0.00  0.00    +0.017 C 
ENDBRANCH   9   6
BRANCH  10   4
ATOM      4  O   UNL     1      -6.409 -13.670  17.513  0.00  0.00    -0.388 OA
ATOM     27  H   UNL     1      -5.606 -14.201  17.371  0.00  0.00    +0.210 HD
ENDBRANCH  10   4
TORSDOF 4
ENDMDL
MODEL 7
REMARK VINA RESULT:      -5.8     28.346     30.802
REMARK  Name = 25338259
REMARK  4 active torsions:
REMARK  status: ('A' for Active; 'I' for Inactive)
REMARK    1  A    between atoms: O_4  and  C_10
REMARK    2  A    between atoms: N_6  and  C_9
REMARK    3  A    between atoms: N_7  and  C_11
REMARK    4  A    between atoms: N_8  and  C_20
REMARK                            x       y       z     vdW  Elec       q    Type
REMARK                         _______ _______ _______ _____ _____    ______ ____
ROOT
ATOM      2  O   UNL     1     -11.817  -6.365  16.665  0.00  0.00    -0.342 OA
ATOM      3  O   UNL     1     -12.886  -6.466  14.610  0.00  0.00    -0.347 OA
ATOM      9  C   UNL     1     -12.624  -8.502  15.890  0.00  0.00    +0.143 C 
ATOM     10  C   UNL     1     -11.269  -8.785  15.202  0.00  0.00    +0.159 C 
ATOM     11  C   UNL     1     -10.202  -7.701  15.473  0.00  0.00    +0.136 C 
ATOM     12  C   UNL     1     -12.892  -6.986  15.950  0.00  0.00    +0.270 C 
ATOM     13  C   UNL     1     -10.802  -6.293  15.660  0.00  0.00    +0.170 C 
ATOM     14  C   UNL     1     -11.618  -5.805  14.478  0.00  0.00    +0.196 C 
ENDROOT
BRANCH  11   7
ATOM      5  O   UNL     1      -8.121  -9.665  15.596  0.00  0.00    -0.252 OA
ATOM      7  N   UNL     1      -9.416  -8.057  16.635  0.00  0.00    -0.291 N 
ATOM      8  N   UNL     1      -7.829  -9.158  17.869  0.00  0.00    -0.269 N 
ATOM     19  C   UNL     1      -8.415  -9.031  16.606  0.00  0.00    +0.304 C 
ATOM     26  H   UNL     1      -9.655  -7.634  17.527  0.00  0.00    +0.151 HD
ATOM     28  H   UNL     1      -8.191  -8.554  18.603  0.00  0.00    +0.156 HD
BRANCH   8  20
ATOM      1  F   UNL     1      -3.738 -12.574  19.395  0.00  0.00    -0.205 F 
ATOM     20  C   UNL     1      -6.785 -10.029  18.258  0.00  0.00    +0.035 A 
ATOM     21  C   UNL     1      -5.666 -10.186  17.440  0.00  0.00    +0.026 A 
ATOM     22  C   UNL     1      -6.875 -10.733  19.460  0.00  0.00    +0.026 A 
ATOM     23  C   UNL     1      -4.637 -11.046  17.825  0.00  0.00    +0.040 A 
ATOM     24  C   UNL     1      -5.846 -11.592  19.844  0.00  0.00    +0.040 A 
ATOM     25  C   UNL     1      -4.727 -11.749  19.026  0.00  0.00    +0.124 A 
ENDBRANCH   8  20
ENDBRANCH  11   7
BRANCH   9   6
ATOM      6  N   UNL     1     -12.627  -9.056  17.236  0.00  0.00    -0.293 NA
ATOM     15  C   UNL     1     -13.977  -9.174  17.787  0.00  0.00    +0.085 C 
ATOM     16  C   UNL     1     -12.077 -10.409  17.284  0.00  0.00    +0.085 C 
ATOM     17  C   UNL     1     -13.780 -10.103  18.976  0.00  0.00    +0.017 C 
ATOM     18  C   UNL     1     -12.529 -10.912  18.646  0.00  0.00    +0.017 C 
ENDBRANCH   9   6
BRANCH  10   4
ATOM      4  O   UNL     1     -11.503  -8.857  13.789  0.00  0.00    -0.388 OA
ATOM     27  H   UNL     1     -10.837  -8.299  13.351  0.00  0.00    +0.210 HD
ENDBRANCH  10   4
TORSDOF 4
ENDMDL
MODEL 8
REMARK VINA RESULT:      -5.8     26.291     28.079
REMARK  Name = 25338259
REMARK  4 active torsions:
REMARK  status: ('A' for Active; 'I' for Inactive)
REMARK    1  A    between atoms: O_4  and  C_10
REMARK    2  A    between atoms: N_6  and  C_9
REMARK    3  A    between atoms: N_7  and  C_11
REMARK    4  A    between atoms: N_8  and  C_20
REMARK                            x       y       z     vdW  Elec       q    Type
REMARK                         _______ _______ _______ _____ _____    ______ ____
ROOT
ATOM      2  O   UNL     1      -5.235 -10.028  17.721  0.00  0.00    -0.342 OA
ATOM      3  O   UNL     1      -5.226 -12.130  18.700  0.00  0.00    -0.347 OA
ATOM      9  C   UNL     1      -4.041 -11.808  16.616  0.00  0.00    +0.143 C 
ATOM     10  C   UNL     1      -5.307 -12.184  15.813  0.00  0.00    +0.159 C 
ATOM     11  C   UNL     1      -6.492 -11.221  16.045  0.00  0.00    +0.136 C 
ATOM     12  C   UNL     1      -4.426 -11.184  17.970  0.00  0.00    +0.270 C 
ATOM     13  C   UNL     1      -6.513 -10.616  17.463  0.00  0.00    +0.170 C 
ATOM     14  C   UNL     1      -6.572 -11.645  18.576  0.00  0.00    +0.196 C 
ENDROOT
BRANCH  11   7
ATOM      5  O   UNL     1      -6.792 -11.511  13.211  0.00  0.00    -0.252 OA
ATOM      7  N   UNL     1      -6.472 -10.161  15.060  0.00  0.00    -0.291 N 
ATOM      8  N   UNL     1      -6.565  -9.185  12.988  0.00  0.00    -0.269 N 
ATOM     19  C   UNL     1      -6.627 -10.392  13.691  0.00  0.00    +0.304 C 
ATOM     26  H   UNL     1      -6.260  -9.218  15.372  0.00  0.00    +0.151 HD
ATOM     28  H   UNL     1      -6.423  -8.343  13.540  0.00  0.00    +0.156 HD
BRANCH   8  20
ATOM      1  F   UNL     1      -7.001  -8.407   7.517  0.00  0.00    -0.205 F 
ATOM     20  C   UNL     1      -6.676  -8.987  11.592  0.00  0.00    +0.035 A 
ATOM     21  C   UNL     1      -5.549  -8.647  10.844  0.00  0.00    +0.026 A 
ATOM     22  C   UNL     1      -7.913  -9.130  10.964  0.00  0.00    +0.026 A 
ATOM     23  C   UNL     1      -5.659  -8.451   9.468  0.00  0.00    +0.040 A 
ATOM     24  C   UNL     1      -8.023  -8.935   9.587  0.00  0.00    +0.040 A 
ATOM     25  C   UNL     1      -6.896  -8.595   8.839  0.00  0.00    +0.124 A 
ENDBRANCH   8  20
ENDBRANCH  11   7
BRANCH   9   6
ATOM      6  N   UNL     1      -3.226 -10.871  15.856  0.00  0.00    -0.293 NA
ATOM     15  C   UNL     1      -1.859 -10.778  16.368  0.00  0.00    +0.085 C 
ATOM     16  C   UNL     1      -3.082 -11.264  14.456  0.00  0.00    +0.085 C 
ATOM     17  C   UNL     1      -1.117 -10.085  15.234  0.00  0.00    +0.017 C 
ATOM     18  C   UNL     1      -1.923 -10.402  13.978  0.00  0.00    +0.017 C 
ENDBRANCH   9   6
BRANCH  10   4
ATOM      4  O   UNL     1      -5.700 -13.504  16.212  0.00  0.00    -0.388 OA
ATOM     27  H   UNL     1      -6.636 -13.619  15.970  0.00  0.00    +0.210 HD
ENDBRANCH  10   4
TORSDOF 4
ENDMDL
MODEL 9
REMARK VINA RESULT:      -5.7     27.435     29.241
REMARK  Name = 25338259
REMARK  4 active torsions:
REMARK  status: ('A' for Active; 'I' for Inactive)
REMARK    1  A    between atoms: O_4  and  C_10
REMARK    2  A    between atoms: N_6  and  C_9
REMARK    3  A    between atoms: N_7  and  C_11
REMARK    4  A    between atoms: N_8  and  C_20
REMARK                            x       y       z     vdW  Elec       q    Type
REMARK                         _______ _______ _______ _____ _____    ______ ____
ROOT
ATOM      2  O   UNL     1      -8.979 -12.278  17.339  0.00  0.00    -0.342 OA
ATOM      3  O   UNL     1      -8.486 -12.228  19.605  0.00  0.00    -0.347 OA
ATOM      9  C   UNL     1      -9.036 -10.156  18.484  0.00  0.00    +0.143 C 
ATOM     10  C   UNL     1      -7.546  -9.915  18.152  0.00  0.00    +0.159 C 
ATOM     11  C   UNL     1      -6.933 -11.005  17.245  0.00  0.00    +0.136 C 
ATOM     12  C   UNL     1      -9.329 -11.665  18.586  0.00  0.00    +0.270 C 
ATOM     13  C   UNL     1      -7.558 -12.398  17.463  0.00  0.00    +0.170 C 
ATOM     14  C   UNL     1      -7.448 -12.911  18.886  0.00  0.00    +0.196 C 
ENDROOT
BRANCH  11   7
ATOM      5  O   UNL     1      -4.793 -10.498  15.410  0.00  0.00    -0.252 OA
ATOM      7  N   UNL     1      -7.058 -10.624  15.855  0.00  0.00    -0.291 N 
ATOM      8  N   UNL     1      -6.382 -10.044  13.742  0.00  0.00    -0.269 N 
ATOM     19  C   UNL     1      -5.957 -10.396  15.027  0.00  0.00    +0.304 C 
ATOM     26  H   UNL     1      -7.987 -10.441  15.487  0.00  0.00    +0.151 HD
ATOM     28  H   UNL     1      -7.387 -10.005  13.590  0.00  0.00    +0.156 HD
BRANCH   8  20
ATOM      1  F   UNL     1      -3.251  -8.828   9.332  0.00  0.00    -0.205 F 
ATOM     20  C   UNL     1      -5.583  -9.734  12.618  0.00  0.00    +0.035 A 
ATOM     21  C   UNL     1      -6.000  -8.755  11.714  0.00  0.00    +0.026 A 
ATOM     22  C   UNL     1      -4.379 -10.407  12.410  0.00  0.00    +0.026 A 
ATOM     23  C   UNL     1      -5.212  -8.450  10.605  0.00  0.00    +0.040 A 
ATOM     24  C   UNL     1      -3.591 -10.101  11.301  0.00  0.00    +0.040 A 
ATOM     25  C   UNL     1      -4.008  -9.122  10.398  0.00  0.00    +0.124 A 
ENDBRANCH   8  20
ENDBRANCH  11   7
BRANCH   9   6
ATOM      6  N   UNL     1      -9.880  -9.559  17.459  0.00  0.00    -0.293 NA
ATOM     15  C   UNL     1     -11.280  -9.468  17.873  0.00  0.00    +0.085 C 
ATOM     16  C   UNL     1      -9.487  -8.187  17.142  0.00  0.00    +0.085 C 
ATOM     17  C   UNL     1     -11.872  -8.495  16.863  0.00  0.00    +0.017 C 
ATOM     18  C   UNL     1     -10.693  -7.655  16.381  0.00  0.00    +0.017 C 
ENDBRANCH   9   6
BRANCH  10   4
ATOM      4  O   UNL     1      -6.822  -9.885  19.389  0.00  0.00    -0.388 OA
ATOM     27  H   UNL     1      -7.189 -10.582  19.962  0.00  0.00    +0.210 HD
ENDBRANCH  10   4
TORSDOF 4
ENDMDL
MODEL 10
REMARK VINA RESULT:      -5.6     27.909     30.352
REMARK  Name = 25338259
REMARK  4 active torsions:
REMARK  status: ('A' for Active; 'I' for Inactive)
REMARK    1  A    between atoms: O_4  and  C_10
REMARK    2  A    between atoms: N_6  and  C_9
REMARK    3  A    between atoms: N_7  and  C_11
REMARK    4  A    between atoms: N_8  and  C_20
REMARK                            x       y       z     vdW  Elec       q    Type
REMARK                         _______ _______ _______ _____ _____    ______ ____
ROOT
ATOM      2  O   UNL     1     -10.941 -12.040  17.382  0.00  0.00    -0.342 OA
ATOM      3  O   UNL     1     -12.001 -11.995  19.444  0.00  0.00    -0.347 OA
ATOM      9  C   UNL     1     -11.152  -9.926  18.523  0.00  0.00    +0.143 C 
ATOM     10  C   UNL     1      -9.792 -10.146  19.224  0.00  0.00    +0.159 C 
ATOM     11  C   UNL     1      -9.057 -11.420  18.753  0.00  0.00    +0.136 C 
ATOM     12  C   UNL     1     -11.824 -11.276  18.212  0.00  0.00    +0.270 C 
ATOM     13  C   UNL     1     -10.014 -12.557  18.341  0.00  0.00    +0.170 C 
ATOM     14  C   UNL     1     -10.968 -12.992  19.438  0.00  0.00    +0.196 C 
ENDROOT
BRANCH  11   7
ATOM      5  O   UNL     1      -6.302 -12.167  18.509  0.00  0.00    -0.252 OA
ATOM      7  N   UNL     1      -8.169 -11.105  17.654  0.00  0.00    -0.291 N 
ATOM      8  N   UNL     1      -6.226 -11.064  16.438  0.00  0.00    -0.269 N 
ATOM     19  C   UNL     1      -6.833 -11.511  17.615  0.00  0.00    +0.304 C 
ATOM     26  H   UNL     1      -8.513 -10.497  16.917  0.00  0.00    +0.151 HD
ATOM     28  H   UNL     1      -6.810 -10.529  15.799  0.00  0.00    +0.156 HD
BRANCH   8  20
ATOM      1  F   UNL     1      -0.988 -11.843  14.801  0.00  0.00    -0.205 F 
ATOM     20  C   UNL     1      -4.890 -11.262  16.021  0.00  0.00    +0.035 A 
ATOM     21  C   UNL     1      -4.591 -12.260  15.092  0.00  0.00    +0.026 A 
ATOM     22  C   UNL     1      -3.871 -10.463  16.538  0.00  0.00    +0.026 A 
ATOM     23  C   UNL     1      -3.273 -12.456  14.680  0.00  0.00    +0.040 A 
ATOM     24  C   UNL     1      -2.553 -10.659  16.126  0.00  0.00    +0.040 A 
ATOM     25  C   UNL     1      -2.254 -11.656  15.197  0.00  0.00    +0.124 A 
ENDBRANCH   8  20
ENDBRANCH  11   7
BRANCH   9   6
ATOM      6  N   UNL     1     -10.964  -9.174  17.290  0.00  0.00    -0.293 NA
ATOM     15  C   UNL     1     -12.205  -8.561  16.816  0.00  0.00    +0.085 C 
ATOM     16  C   UNL     1     -10.029  -8.063  17.452  0.00  0.00    +0.085 C 
ATOM     17  C   UNL     1     -11.714  -7.546  15.794  0.00  0.00    +0.017 C 
ATOM     18  C   UNL     1     -10.283  -7.221  16.210  0.00  0.00    +0.017 C 
ENDBRANCH   9   6
BRANCH  10   4
ATOM      4  O   UNL     1     -10.040 -10.251  20.632  0.00  0.00    -0.388 OA
ATOM     27  H   UNL     1      -9.298  -9.823  21.095  0.00  0.00    +0.210 HD
ENDBRANCH  10   4
TORSDOF 4
ENDMDL
