REMARK  Name = 26743187
REMARK  9 active torsions:
REMARK  status: ('A' for Active; 'I' for Inactive)
REMARK    1  A    between atoms: O_3  and  C_27
REMARK    2  A    between atoms: O_3  and  C_31
REMARK    3  A    between atoms: C_7  and  C_10
REMARK    4  A    between atoms: C_8  and  C_14
REMARK    5  A    between atoms: C_10  and  C_19
REMARK    6  A    between atoms: C_12  and  C_20
REMARK    7  A    between atoms: C_14  and  C_21
REMARK    8  A    between atoms: C_20  and  C_22
REMARK    9  A    between atoms: C_24  and  C_27
REMARK                            x       y       z     vdW  Elec       q    Type
REMARK                         _______ _______ _______ _____ _____    ______ ____
ROOT
ATOM      5  N   UNL     1       1.615  -3.072   2.192  0.00  0.00    -0.316 NA
ATOM      7  C   UNL     1      -0.156  -2.677  -0.134  0.00  0.00    +0.004 C 
ATOM      8  C   UNL     1       1.171  -1.903   0.047  0.00  0.00    +0.012 C 
ATOM      9  C   UNL     1      -0.079  -3.997   0.651  0.00  0.00    +0.019 C 
ATOM     11  C   UNL     1       1.553  -1.768   1.531  0.00  0.00    +0.085 C 
ATOM     13  C   UNL     1       0.344  -3.788   2.104  0.00  0.00    +0.081 C 
ATOM     37  H   UNL     1       1.862  -2.941   3.173  0.00  0.00    +0.122 HD
ENDROOT
BRANCH   7  10
ATOM     10  C   UNL     1      -1.403  -1.878   0.265  0.00  0.00    +0.100 C 
BRANCH  10  19
ATOM      1  O   UNL     1      -2.494  -3.432  -1.153  0.00  0.00    -0.276 OA
ATOM      4  N   UNL     1      -3.846  -1.861  -0.102  0.00  0.00    -0.301 N 
ATOM     12  C   UNL     1      -6.112  -0.097  -0.511  0.00  0.00    -0.004 C 
ATOM     15  C   UNL     1      -4.788   0.409   0.083  0.00  0.00    +0.023 C 
ATOM     16  C   UNL     1      -5.858  -1.313  -1.415  0.00  0.00    +0.023 C 
ATOM     17  C   UNL     1      -4.033  -0.713   0.792  0.00  0.00    +0.108 C 
ATOM     18  C   UNL     1      -5.082  -2.399  -0.674  0.00  0.00    +0.108 C 
ATOM     19  C   UNL     1      -2.624  -2.466  -0.396  0.00  0.00    +0.216 C 
BRANCH  12  20
ATOM     20  C   UNL     1      -6.822   1.014  -1.282  0.00  0.00    +0.038 C 
BRANCH  20  22
ATOM     22  C   UNL     1      -7.531   1.965  -0.357  0.00  0.00    -0.047 A 
ATOM     25  C   UNL     1      -8.855   1.725   0.009  0.00  0.00    +0.003 A 
ATOM     26  C   UNL     1      -6.864   3.087   0.136  0.00  0.00    +0.003 A 
ATOM     28  C   UNL     1      -9.513   2.607   0.866  0.00  0.00    +0.000 A 
ATOM     29  C   UNL     1      -7.521   3.968   0.994  0.00  0.00    +0.000 A 
ATOM     30  C   UNL     1      -8.846   3.728   1.359  0.00  0.00    +0.000 A 
ENDBRANCH  20  22
ENDBRANCH  12  20
ENDBRANCH  10  19
ENDBRANCH   7  10
BRANCH   8  14
ATOM     14  C   UNL     1       1.164  -0.533  -0.632  0.00  0.00    +0.064 C 
BRANCH  14  21
ATOM      2  O   UNL     1       4.406   0.240  -1.993  0.00  0.00    -0.356 OA
ATOM      6  N   UNL     1       3.151  -0.352  -2.066  0.00  0.00    -0.083 NA
ATOM     21  C   UNL     1       2.559  -0.051  -0.907  0.00  0.00    +0.084 A 
ATOM     23  C   UNL     1       3.384   0.721  -0.071  0.00  0.00    +0.074 A 
ATOM     24  C   UNL     1       4.533   0.875  -0.801  0.00  0.00    +0.175 A 
BRANCH  24  27
ATOM     27  C   UNL     1       5.809   1.560  -0.555  0.00  0.00    +0.306 C 
BRANCH  27   3
ATOM      3  O   UNL     1       6.833   0.608  -0.256  0.00  0.00    -0.484 OA
BRANCH   3  31
ATOM     31  C   UNL     1       8.062   1.115   0.059  0.00  0.00    +0.121 A 
ATOM     32  C   UNL     1       8.264   2.495   0.075  0.00  0.00    +0.045 A 
ATOM     33  C   UNL     1       9.115   0.252   0.363  0.00  0.00    +0.045 A 
ATOM     34  C   UNL     1       9.520   3.012   0.396  0.00  0.00    +0.004 A 
ATOM     35  C   UNL     1      10.370   0.769   0.684  0.00  0.00    +0.004 A 
ATOM     36  C   UNL     1      10.572   2.150   0.700  0.00  0.00    +0.000 A 
ENDBRANCH   3  31
ENDBRANCH  27   3
ENDBRANCH  24  27
ENDBRANCH  14  21
ENDBRANCH   8  14
TORSDOF 9
