MODEL 1
REMARK VINA RESULT:      -7.6      0.000      0.000
REMARK  Name = 40777679
REMARK  10 active torsions:
REMARK  status: ('A' for Active; 'I' for Inactive)
REMARK    1  A    between atoms: O_5  and  C_29
REMARK    2  A    between atoms: N_7  and  C_12
REMARK    3  A    between atoms: N_8  and  C_21
REMARK    4  A    between atoms: C_10  and  C_13
REMARK    5  A    between atoms: C_16  and  C_18
REMARK    6  A    between atoms: C_17  and  C_19
REMARK    7  A    between atoms: C_20  and  C_22
REMARK    8  A    between atoms: C_22  and  C_25
REMARK    9  A    between atoms: C_25  and  C_29
REMARK   10  A    between atoms: C_28  and  C_30
REMARK                            x       y       z     vdW  Elec       q    Type
REMARK                         _______ _______ _______ _____ _____    ______ ____
ROOT
ATOM      8  N   UNL     1      20.292   6.329  21.089  0.00  0.00    -0.236 N 
ATOM      9  N   UNL     1      20.442   7.453  21.810  0.00  0.00    -0.171 NA
ATOM     13  C   UNL     1      18.376   7.348  20.841  0.00  0.00    +0.003 A 
ATOM     16  C   UNL     1      19.072   6.219  20.487  0.00  0.00    +0.046 A 
ATOM     17  C   UNL     1      19.269   8.072  21.655  0.00  0.00    +0.064 A 
ATOM     18  C   UNL     1      18.684   5.070  19.644  0.00  0.00    +0.066 C 
ATOM     19  C   UNL     1      19.042   9.370  22.312  0.00  0.00    +0.068 C 
ENDROOT
BRANCH   8  21
ATOM     21  C   UNL     1      21.338   5.409  21.014  0.00  0.00    +0.066 A 
ATOM     23  C   UNL     1      22.512   5.741  20.338  0.00  0.00    +0.028 A 
ATOM     24  C   UNL     1      21.208   4.155  21.611  0.00  0.00    +0.028 A 
ATOM     26  C   UNL     1      23.557   4.820  20.259  0.00  0.00    +0.014 A 
ATOM     27  C   UNL     1      22.253   3.234  21.532  0.00  0.00    +0.014 A 
ATOM     28  C   UNL     1      23.427   3.566  20.856  0.00  0.00    +0.055 A 
BRANCH  28  30
ATOM      1  F   UNL     1      25.452   2.695  21.785  0.00  0.00    -0.166 F 
ATOM      2  F   UNL     1      25.264   2.702  19.619  0.00  0.00    -0.166 F 
ATOM      3  F   UNL     1      24.129   1.280  20.809  0.00  0.00    -0.166 F 
ATOM     30  C   UNL     1      24.544   2.581  20.771  0.00  0.00    +0.417 C 
ENDBRANCH  28  30
ENDBRANCH   8  21
BRANCH  13  10
ATOM     10  C   UNL     1      16.969   7.729  20.441  0.00  0.00    +0.047 C 
ATOM     11  C   UNL     1      16.327   6.737  19.450  0.00  0.00    +0.039 C 
ATOM     12  C   UNL     1      14.835   6.696  19.805  0.00  0.00    +0.097 C 
ATOM     14  C   UNL     1      15.979   7.744  21.570  0.00  0.00    -0.021 C 
ATOM     15  C   UNL     1      14.817   7.184  21.217  0.00  0.00    -0.009 C 
BRANCH  12   7
ATOM      4  O   UNL     1      12.016   6.467  19.214  0.00  0.00    -0.276 OA
ATOM      7  N   UNL     1      14.045   7.579  18.990  0.00  0.00    -0.309 N 
ATOM     20  C   UNL     1      12.689   7.389  18.761  0.00  0.00    +0.214 C 
ATOM     31  H   UNL     1      14.509   8.358  18.531  0.00  0.00    +0.149 HD
BRANCH  20  22
ATOM     22  C   UNL     1      12.118   8.473  17.865  0.00  0.00    +0.107 C 
BRANCH  22  25
ATOM     25  C   UNL     1      13.197   9.397  17.310  0.00  0.00    +0.129 C 
BRANCH  25  29
ATOM      6  O   UNL     1      13.717   8.379  15.161  0.00  0.00    -0.251 OA
ATOM     29  C   UNL     1      13.282   9.325  15.803  0.00  0.00    +0.305 C 
BRANCH  29   5
ATOM      5  O   UNL     1      12.807  10.459  15.224  0.00  0.00    -0.481 OA
ATOM     32  H   UNL     1      13.196  10.606  14.336  0.00  0.00    +0.295 HD
ENDBRANCH  29   5
ENDBRANCH  25  29
ENDBRANCH  22  25
ENDBRANCH  20  22
ENDBRANCH  12   7
ENDBRANCH  13  10
TORSDOF 8
ENDMDL
MODEL 2
REMARK VINA RESULT:      -7.3      6.470     10.158
REMARK  Name = 40777679
REMARK  10 active torsions:
REMARK  status: ('A' for Active; 'I' for Inactive)
REMARK    1  A    between atoms: O_5  and  C_29
REMARK    2  A    between atoms: N_7  and  C_12
REMARK    3  A    between atoms: N_8  and  C_21
REMARK    4  A    between atoms: C_10  and  C_13
REMARK    5  A    between atoms: C_16  and  C_18
REMARK    6  A    between atoms: C_17  and  C_19
REMARK    7  A    between atoms: C_20  and  C_22
REMARK    8  A    between atoms: C_22  and  C_25
REMARK    9  A    between atoms: C_25  and  C_29
REMARK   10  A    between atoms: C_28  and  C_30
REMARK                            x       y       z     vdW  Elec       q    Type
REMARK                         _______ _______ _______ _____ _____    ______ ____
ROOT
ATOM      8  N   UNL     1      17.168   7.540  20.559  0.00  0.00    -0.236 N 
ATOM      9  N   UNL     1      17.631   8.333  21.541  0.00  0.00    -0.171 NA
ATOM     13  C   UNL     1      19.163   6.743  20.955  0.00  0.00    +0.003 A 
ATOM     16  C   UNL     1      18.047   6.571  20.173  0.00  0.00    +0.046 A 
ATOM     17  C   UNL     1      18.850   7.841  21.779  0.00  0.00    +0.064 A 
ATOM     18  C   UNL     1      17.753   5.585  19.113  0.00  0.00    +0.066 C 
ATOM     19  C   UNL     1      19.691   8.461  22.816  0.00  0.00    +0.068 C 
ENDROOT
BRANCH   8  21
ATOM     21  C   UNL     1      15.892   7.756  20.038  0.00  0.00    +0.066 A 
ATOM     23  C   UNL     1      14.912   6.771  20.160  0.00  0.00    +0.028 A 
ATOM     24  C   UNL     1      15.597   8.957  19.391  0.00  0.00    +0.028 A 
ATOM     26  C   UNL     1      13.637   6.986  19.635  0.00  0.00    +0.014 A 
ATOM     27  C   UNL     1      14.323   9.171  18.866  0.00  0.00    +0.014 A 
ATOM     28  C   UNL     1      13.343   8.186  18.988  0.00  0.00    +0.055 A 
BRANCH  28  30
ATOM      1  F   UNL     1      11.592   7.466  17.526  0.00  0.00    -0.166 F 
ATOM      2  F   UNL     1      11.875   9.607  17.772  0.00  0.00    -0.166 F 
ATOM      3  F   UNL     1      10.996   8.430  19.374  0.00  0.00    -0.166 F 
ATOM     30  C   UNL     1      11.980   8.415  18.427  0.00  0.00    +0.417 C 
ENDBRANCH  28  30
ENDBRANCH   8  21
BRANCH  13  10
ATOM     10  C   UNL     1      20.438   5.931  20.936  0.00  0.00    +0.047 C 
ATOM     11  C   UNL     1      21.648   6.708  20.380  0.00  0.00    +0.039 C 
ATOM     12  C   UNL     1      22.865   6.210  21.170  0.00  0.00    +0.097 C 
ATOM     14  C   UNL     1      20.925   5.499  22.289  0.00  0.00    -0.021 C 
ATOM     15  C   UNL     1      22.249   5.648  22.410  0.00  0.00    -0.009 C 
BRANCH  12   7
ATOM      4  O   UNL     1      25.731   5.908  20.972  0.00  0.00    -0.276 OA
ATOM      7  N   UNL     1      23.583   5.167  20.487  0.00  0.00    -0.309 N 
ATOM     20  C   UNL     1      24.969   5.104  20.445  0.00  0.00    +0.214 C 
ATOM     31  H   UNL     1      23.050   4.466  19.979  0.00  0.00    +0.149 HD
BRANCH  20  22
ATOM     22  C   UNL     1      25.447   3.900  19.653  0.00  0.00    +0.107 C 
BRANCH  22  25
ATOM     25  C   UNL     1      25.782   2.711  20.548  0.00  0.00    +0.129 C 
BRANCH  25  29
ATOM      6  O   UNL     1      24.490   0.987  21.682  0.00  0.00    -0.251 OA
ATOM     29  C   UNL     1      24.570   1.848  20.817  0.00  0.00    +0.305 C 
BRANCH  29   5
ATOM      5  O   UNL     1      23.552   2.143  19.966  0.00  0.00    -0.481 OA
ATOM     32  H   UNL     1      22.679   1.922  20.352  0.00  0.00    +0.295 HD
ENDBRANCH  29   5
ENDBRANCH  25  29
ENDBRANCH  22  25
ENDBRANCH  20  22
ENDBRANCH  12   7
ENDBRANCH  13  10
TORSDOF 8
ENDMDL
MODEL 3
REMARK VINA RESULT:      -6.9      6.590     10.132
REMARK  Name = 40777679
REMARK  10 active torsions:
REMARK  status: ('A' for Active; 'I' for Inactive)
REMARK    1  A    between atoms: O_5  and  C_29
REMARK    2  A    between atoms: N_7  and  C_12
REMARK    3  A    between atoms: N_8  and  C_21
REMARK    4  A    between atoms: C_10  and  C_13
REMARK    5  A    between atoms: C_16  and  C_18
REMARK    6  A    between atoms: C_17  and  C_19
REMARK    7  A    between atoms: C_20  and  C_22
REMARK    8  A    between atoms: C_22  and  C_25
REMARK    9  A    between atoms: C_25  and  C_29
REMARK   10  A    between atoms: C_28  and  C_30
REMARK                            x       y       z     vdW  Elec       q    Type
REMARK                         _______ _______ _______ _____ _____    ______ ____
ROOT
ATOM      8  N   UNL     1      17.238   7.828  21.100  0.00  0.00    -0.236 N 
ATOM      9  N   UNL     1      17.889   8.668  21.923  0.00  0.00    -0.171 NA
ATOM     13  C   UNL     1      19.275   7.039  21.120  0.00  0.00    +0.003 A 
ATOM     16  C   UNL     1      18.023   6.834  20.594  0.00  0.00    +0.046 A 
ATOM     17  C   UNL     1      19.133   8.181  21.932  0.00  0.00    +0.064 A 
ATOM     18  C   UNL     1      17.522   5.797  19.669  0.00  0.00    +0.066 C 
ATOM     19  C   UNL     1      20.167   8.848  22.742  0.00  0.00    +0.068 C 
ENDROOT
BRANCH   8  21
ATOM     21  C   UNL     1      15.881   8.026  20.841  0.00  0.00    +0.066 A 
ATOM     23  C   UNL     1      14.921   7.487  21.696  0.00  0.00    +0.028 A 
ATOM     24  C   UNL     1      15.486   8.760  19.722  0.00  0.00    +0.028 A 
ATOM     26  C   UNL     1      13.565   7.681  21.434  0.00  0.00    +0.014 A 
ATOM     27  C   UNL     1      14.130   8.954  19.460  0.00  0.00    +0.014 A 
ATOM     28  C   UNL     1      13.169   8.415  20.315  0.00  0.00    +0.055 A 
BRANCH  28  30
ATOM      1  F   UNL     1      10.916   7.648  20.557  0.00  0.00    -0.166 F 
ATOM      2  F   UNL     1      11.440   8.651  18.700  0.00  0.00    -0.166 F 
ATOM      3  F   UNL     1      11.228   9.794  20.538  0.00  0.00    -0.166 F 
ATOM     30  C   UNL     1      11.719   8.622  20.036  0.00  0.00    +0.417 C 
ENDBRANCH  28  30
ENDBRANCH   8  21
BRANCH  13  10
ATOM     10  C   UNL     1      20.522   6.218  20.884  0.00  0.00    +0.047 C 
ATOM     11  C   UNL     1      21.242   5.813  22.186  0.00  0.00    +0.039 C 
ATOM     12  C   UNL     1      21.833   4.422  21.922  0.00  0.00    +0.097 C 
ATOM     14  C   UNL     1      20.282   4.892  20.221  0.00  0.00    -0.021 C 
ATOM     15  C   UNL     1      21.003   3.918  20.788  0.00  0.00    -0.009 C 
BRANCH  12   7
ATOM      4  O   UNL     1      24.113   3.352  23.339  0.00  0.00    -0.276 OA
ATOM      7  N   UNL     1      23.211   4.472  21.513  0.00  0.00    -0.309 N 
ATOM     20  C   UNL     1      24.244   3.927  22.262  0.00  0.00    +0.214 C 
ATOM     31  H   UNL     1      23.442   4.962  20.652  0.00  0.00    +0.149 HD
BRANCH  20  22
ATOM     22  C   UNL     1      25.589   4.130  21.587  0.00  0.00    +0.107 C 
BRANCH  22  25
ATOM     25  C   UNL     1      25.970   2.958  20.688  0.00  0.00    +0.129 C 
BRANCH  25  29
ATOM      6  O   UNL     1      26.571   3.685  18.444  0.00  0.00    -0.251 OA
ATOM     29  C   UNL     1      25.732   3.266  19.227  0.00  0.00    +0.305 C 
BRANCH  29   5
ATOM      5  O   UNL     1      24.444   3.017  18.872  0.00  0.00    -0.481 OA
ATOM     32  H   UNL     1      24.188   3.507  18.062  0.00  0.00    +0.295 HD
ENDBRANCH  29   5
ENDBRANCH  25  29
ENDBRANCH  22  25
ENDBRANCH  20  22
ENDBRANCH  12   7
ENDBRANCH  13  10
TORSDOF 8
ENDMDL
MODEL 4
REMARK VINA RESULT:      -6.7      3.139      4.352
REMARK  Name = 40777679
REMARK  10 active torsions:
REMARK  status: ('A' for Active; 'I' for Inactive)
REMARK    1  A    between atoms: O_5  and  C_29
REMARK    2  A    between atoms: N_7  and  C_12
REMARK    3  A    between atoms: N_8  and  C_21
REMARK    4  A    between atoms: C_10  and  C_13
REMARK    5  A    between atoms: C_16  and  C_18
REMARK    6  A    between atoms: C_17  and  C_19
REMARK    7  A    between atoms: C_20  and  C_22
REMARK    8  A    between atoms: C_22  and  C_25
REMARK    9  A    between atoms: C_25  and  C_29
REMARK   10  A    between atoms: C_28  and  C_30
REMARK                            x       y       z     vdW  Elec       q    Type
REMARK                         _______ _______ _______ _____ _____    ______ ____
ROOT
ATOM      8  N   UNL     1      19.438   5.811  20.524  0.00  0.00    -0.236 N 
ATOM      9  N   UNL     1      18.645   5.480  19.492  0.00  0.00    -0.171 NA
ATOM     13  C   UNL     1      17.631   6.984  20.880  0.00  0.00    +0.003 A 
ATOM     16  C   UNL     1      18.877   6.708  21.386  0.00  0.00    +0.046 A 
ATOM     17  C   UNL     1      17.541   6.200  19.714  0.00  0.00    +0.064 A 
ATOM     18  C   UNL     1      19.564   7.214  22.591  0.00  0.00    +0.066 C 
ATOM     19  C   UNL     1      16.412   6.104  18.773  0.00  0.00    +0.068 C 
ENDROOT
BRANCH   8  21
ATOM     21  C   UNL     1      20.708   5.242  20.632  0.00  0.00    +0.066 A 
ATOM     23  C   UNL     1      20.843   3.895  20.970  0.00  0.00    +0.028 A 
ATOM     24  C   UNL     1      21.843   6.022  20.407  0.00  0.00    +0.028 A 
ATOM     26  C   UNL     1      22.112   3.328  21.082  0.00  0.00    +0.014 A 
ATOM     27  C   UNL     1      23.112   5.454  20.519  0.00  0.00    +0.014 A 
ATOM     28  C   UNL     1      23.247   4.107  20.857  0.00  0.00    +0.055 A 
BRANCH  28  30
ATOM      1  F   UNL     1      24.762   2.363  20.237  0.00  0.00    -0.166 F 
ATOM      2  F   UNL     1      24.911   3.148  22.259  0.00  0.00    -0.166 F 
ATOM      3  F   UNL     1      25.611   4.330  20.573  0.00  0.00    -0.166 F 
ATOM     30  C   UNL     1      24.604   3.500  20.976  0.00  0.00    +0.417 C 
ENDBRANCH  28  30
ENDBRANCH   8  21
BRANCH  13  10
ATOM     10  C   UNL     1      16.589   7.918  21.452  0.00  0.00    +0.047 C 
ATOM     11  C   UNL     1      16.115   8.991  20.450  0.00  0.00    +0.039 C 
ATOM     12  C   UNL     1      14.631   9.225  20.757  0.00  0.00    +0.097 C 
ATOM     14  C   UNL     1      15.301   7.255  21.846  0.00  0.00    -0.021 C 
ATOM     15  C   UNL     1      14.238   7.973  21.469  0.00  0.00    -0.009 C 
BRANCH  12   7
ATOM      4  O   UNL     1      12.259  10.866  20.925  0.00  0.00    -0.276 OA
ATOM      7  N   UNL     1      14.414  10.350  21.626  0.00  0.00    -0.309 N 
ATOM     20  C   UNL     1      13.235  11.083  21.637  0.00  0.00    +0.214 C 
ATOM     31  H   UNL     1      15.173  10.646  22.234  0.00  0.00    +0.149 HD
BRANCH  20  22
ATOM     22  C   UNL     1      13.289  12.211  22.652  0.00  0.00    +0.107 C 
BRANCH  22  25
ATOM     25  C   UNL     1      13.070  11.720  24.079  0.00  0.00    +0.129 C 
BRANCH  25  29
ATOM      6  O   UNL     1      10.685  12.157  23.868  0.00  0.00    -0.251 OA
ATOM     29  C   UNL     1      11.603  11.548  24.399  0.00  0.00    +0.305 C 
BRANCH  29   5
ATOM      5  O   UNL     1      11.412  10.614  25.368  0.00  0.00    -0.481 OA
ATOM     32  H   UNL     1      12.256  10.202  25.649  0.00  0.00    +0.295 HD
ENDBRANCH  29   5
ENDBRANCH  25  29
ENDBRANCH  22  25
ENDBRANCH  20  22
ENDBRANCH  12   7
ENDBRANCH  13  10
TORSDOF 8
ENDMDL
MODEL 5
REMARK VINA RESULT:      -6.7     29.143     32.563
REMARK  Name = 40777679
REMARK  10 active torsions:
REMARK  status: ('A' for Active; 'I' for Inactive)
REMARK    1  A    between atoms: O_5  and  C_29
REMARK    2  A    between atoms: N_7  and  C_12
REMARK    3  A    between atoms: N_8  and  C_21
REMARK    4  A    between atoms: C_10  and  C_13
REMARK    5  A    between atoms: C_16  and  C_18
REMARK    6  A    between atoms: C_17  and  C_19
REMARK    7  A    between atoms: C_20  and  C_22
REMARK    8  A    between atoms: C_22  and  C_25
REMARK    9  A    between atoms: C_25  and  C_29
REMARK   10  A    between atoms: C_28  and  C_30
REMARK                            x       y       z     vdW  Elec       q    Type
REMARK                         _______ _______ _______ _____ _____    ______ ____
ROOT
ATOM      8  N   UNL     1      -6.935 -10.273  16.964  0.00  0.00    -0.236 N 
ATOM      9  N   UNL     1      -7.586  -9.112  16.780  0.00  0.00    -0.171 NA
ATOM     13  C   UNL     1      -8.843 -10.600  17.974  0.00  0.00    +0.003 A 
ATOM     16  C   UNL     1      -7.645 -11.198  17.672  0.00  0.00    +0.046 A 
ATOM     17  C   UNL     1      -8.752  -9.318  17.399  0.00  0.00    +0.064 A 
ATOM     18  C   UNL     1      -7.129 -12.544  17.993  0.00  0.00    +0.066 C 
ATOM     19  C   UNL     1      -9.762  -8.246  17.416  0.00  0.00    +0.068 C 
ENDROOT
BRANCH   8  21
ATOM     21  C   UNL     1      -5.650 -10.436  16.444  0.00  0.00    +0.066 A 
ATOM     23  C   UNL     1      -5.459 -10.505  15.064  0.00  0.00    +0.028 A 
ATOM     24  C   UNL     1      -4.557 -10.534  17.305  0.00  0.00    +0.028 A 
ATOM     26  C   UNL     1      -4.175 -10.672  14.544  0.00  0.00    +0.014 A 
ATOM     27  C   UNL     1      -3.273 -10.701  16.785  0.00  0.00    +0.014 A 
ATOM     28  C   UNL     1      -3.082 -10.770  15.405  0.00  0.00    +0.055 A 
BRANCH  28  30
ATOM      1  F   UNL     1      -0.717 -10.619  15.726  0.00  0.00    -0.166 F 
ATOM      2  F   UNL     1      -1.489 -10.184  13.741  0.00  0.00    -0.166 F 
ATOM      3  F   UNL     1      -1.438 -12.232  14.469  0.00  0.00    -0.166 F 
ATOM     30  C   UNL     1      -1.710 -10.949  14.849  0.00  0.00    +0.417 C 
ENDBRANCH  28  30
ENDBRANCH   8  21
BRANCH  13  10
ATOM     10  C   UNL     1     -10.001 -11.190  18.746  0.00  0.00    +0.047 C 
ATOM     11  C   UNL     1     -10.390 -10.365  19.989  0.00  0.00    +0.039 C 
ATOM     12  C   UNL     1     -11.912 -10.495  20.121  0.00  0.00    +0.097 C 
ATOM     14  C   UNL     1     -11.294 -11.255  17.985  0.00  0.00    -0.021 C 
ATOM     15  C   UNL     1     -12.332 -10.880  18.740  0.00  0.00    -0.009 C 
BRANCH  12   7
ATOM      4  O   UNL     1     -14.437 -10.733  21.505  0.00  0.00    -0.276 OA
ATOM      7  N   UNL     1     -12.304 -11.531  21.038  0.00  0.00    -0.309 N 
ATOM     20  C   UNL     1     -13.546 -11.563  21.659  0.00  0.00    +0.214 C 
ATOM     31  H   UNL     1     -11.627 -12.252  21.272  0.00  0.00    +0.149 HD
BRANCH  20  22
ATOM     22  C   UNL     1     -13.680 -12.767  22.574  0.00  0.00    +0.107 C 
BRANCH  22  25
ATOM     25  C   UNL     1     -14.852 -12.635  23.541  0.00  0.00    +0.129 C 
BRANCH  25  29
ATOM      6  O   UNL     1     -13.919 -13.850  25.433  0.00  0.00    -0.251 OA
ATOM     29  C   UNL     1     -14.425 -12.834  24.977  0.00  0.00    +0.305 C 
BRANCH  29   5
ATOM      5  O   UNL     1     -14.671 -11.727  25.726  0.00  0.00    -0.481 OA
ATOM     32  H   UNL     1     -13.850 -11.227  25.919  0.00  0.00    +0.295 HD
ENDBRANCH  29   5
ENDBRANCH  25  29
ENDBRANCH  22  25
ENDBRANCH  20  22
ENDBRANCH  12   7
ENDBRANCH  13  10
TORSDOF 8
ENDMDL
MODEL 6
REMARK VINA RESULT:      -6.6     28.741     30.946
REMARK  Name = 40777679
REMARK  10 active torsions:
REMARK  status: ('A' for Active; 'I' for Inactive)
REMARK    1  A    between atoms: O_5  and  C_29
REMARK    2  A    between atoms: N_7  and  C_12
REMARK    3  A    between atoms: N_8  and  C_21
REMARK    4  A    between atoms: C_10  and  C_13
REMARK    5  A    between atoms: C_16  and  C_18
REMARK    6  A    between atoms: C_17  and  C_19
REMARK    7  A    between atoms: C_20  and  C_22
REMARK    8  A    between atoms: C_22  and  C_25
REMARK    9  A    between atoms: C_25  and  C_29
REMARK   10  A    between atoms: C_28  and  C_30
REMARK                            x       y       z     vdW  Elec       q    Type
REMARK                         _______ _______ _______ _____ _____    ______ ____
ROOT
ATOM      8  N   UNL     1      -4.547 -10.723  14.177  0.00  0.00    -0.236 N 
ATOM      9  N   UNL     1      -3.240 -10.912  13.930  0.00  0.00    -0.171 NA
ATOM     13  C   UNL     1      -4.360 -10.242  12.055  0.00  0.00    +0.003 A 
ATOM     16  C   UNL     1      -5.263 -10.323  13.087  0.00  0.00    +0.046 A 
ATOM     17  C   UNL     1      -3.132 -10.617  12.631  0.00  0.00    +0.064 A 
ATOM     18  C   UNL     1      -6.715 -10.056  13.123  0.00  0.00    +0.066 C 
ATOM     19  C   UNL     1      -1.816 -10.709  11.975  0.00  0.00    +0.068 C 
ENDROOT
BRANCH   8  21
ATOM     21  C   UNL     1      -5.047 -10.940  15.462  0.00  0.00    +0.066 A 
ATOM     23  C   UNL     1      -4.969  -9.931  16.421  0.00  0.00    +0.028 A 
ATOM     24  C   UNL     1      -5.620 -12.170  15.788  0.00  0.00    +0.028 A 
ATOM     26  C   UNL     1      -5.465 -10.149  17.707  0.00  0.00    +0.014 A 
ATOM     27  C   UNL     1      -6.116 -12.388  17.073  0.00  0.00    +0.014 A 
ATOM     28  C   UNL     1      -6.038 -11.379  18.033  0.00  0.00    +0.055 A 
BRANCH  28  30
ATOM      1  F   UNL     1      -7.593 -10.776  19.748  0.00  0.00    -0.166 F 
ATOM      2  F   UNL     1      -5.619 -11.441  20.372  0.00  0.00    -0.166 F 
ATOM      3  F   UNL     1      -7.059 -12.873  19.596  0.00  0.00    -0.166 F 
ATOM     30  C   UNL     1      -6.568 -11.612  19.407  0.00  0.00    +0.417 C 
ENDBRANCH  28  30
ENDBRANCH   8  21
BRANCH  13  10
ATOM     10  C   UNL     1      -4.630  -9.844  10.622  0.00  0.00    +0.047 C 
ATOM     11  C   UNL     1      -5.888 -10.511  10.030  0.00  0.00    +0.039 C 
ATOM     12  C   UNL     1      -6.502  -9.477   9.078  0.00  0.00    +0.097 C 
ATOM     14  C   UNL     1      -4.913  -8.384  10.420  0.00  0.00    -0.021 C 
ATOM     15  C   UNL     1      -5.931  -8.189   9.574  0.00  0.00    -0.009 C 
BRANCH  12   7
ATOM      4  O   UNL     1      -7.731 -11.230   7.138  0.00  0.00    -0.276 OA
ATOM      7  N   UNL     1      -6.103  -9.674   7.710  0.00  0.00    -0.309 N 
ATOM     20  C   UNL     1      -6.757 -10.542   6.847  0.00  0.00    +0.214 C 
ATOM     31  H   UNL     1      -5.280  -9.182   7.371  0.00  0.00    +0.149 HD
BRANCH  20  22
ATOM     22  C   UNL     1      -6.118 -10.547   5.471  0.00  0.00    +0.107 C 
BRANCH  22  25
ATOM     25  C   UNL     1      -7.078 -10.081   4.381  0.00  0.00    +0.129 C 
BRANCH  25  29
ATOM      6  O   UNL     1      -8.877  -8.470   4.684  0.00  0.00    -0.251 OA
ATOM     29  C   UNL     1      -7.683  -8.733   4.701  0.00  0.00    +0.305 C 
BRANCH  29   5
ATOM      5  O   UNL     1      -6.727  -7.822   5.019  0.00  0.00    -0.481 OA
ATOM     32  H   UNL     1      -6.281  -7.467   4.221  0.00  0.00    +0.295 HD
ENDBRANCH  29   5
ENDBRANCH  25  29
ENDBRANCH  22  25
ENDBRANCH  20  22
ENDBRANCH  12   7
ENDBRANCH  13  10
TORSDOF 8
ENDMDL
MODEL 7
REMARK VINA RESULT:      -6.6      4.589      6.044
REMARK  Name = 40777679
REMARK  10 active torsions:
REMARK  status: ('A' for Active; 'I' for Inactive)
REMARK    1  A    between atoms: O_5  and  C_29
REMARK    2  A    between atoms: N_7  and  C_12
REMARK    3  A    between atoms: N_8  and  C_21
REMARK    4  A    between atoms: C_10  and  C_13
REMARK    5  A    between atoms: C_16  and  C_18
REMARK    6  A    between atoms: C_17  and  C_19
REMARK    7  A    between atoms: C_20  and  C_22
REMARK    8  A    between atoms: C_22  and  C_25
REMARK    9  A    between atoms: C_25  and  C_29
REMARK   10  A    between atoms: C_28  and  C_30
REMARK                            x       y       z     vdW  Elec       q    Type
REMARK                         _______ _______ _______ _____ _____    ______ ____
ROOT
ATOM      8  N   UNL     1      16.263   7.224  20.757  0.00  0.00    -0.236 N 
ATOM      9  N   UNL     1      15.176   6.435  20.736  0.00  0.00    -0.171 NA
ATOM     13  C   UNL     1      14.606   8.646  20.778  0.00  0.00    +0.003 A 
ATOM     16  C   UNL     1      15.976   8.558  20.784  0.00  0.00    +0.046 A 
ATOM     17  C   UNL     1      14.166   7.309  20.748  0.00  0.00    +0.064 A 
ATOM     18  C   UNL     1      17.012   9.610  20.813  0.00  0.00    +0.066 C 
ATOM     19  C   UNL     1      12.779   6.814  20.732  0.00  0.00    +0.068 C 
ENDROOT
BRANCH   8  21
ATOM     21  C   UNL     1      17.536   6.651  20.752  0.00  0.00    +0.066 A 
ATOM     23  C   UNL     1      18.437   6.942  21.775  0.00  0.00    +0.028 A 
ATOM     24  C   UNL     1      17.907   5.789  19.720  0.00  0.00    +0.028 A 
ATOM     26  C   UNL     1      19.710   6.372  21.768  0.00  0.00    +0.014 A 
ATOM     27  C   UNL     1      19.180   5.219  19.712  0.00  0.00    +0.014 A 
ATOM     28  C   UNL     1      20.082   5.510  20.735  0.00  0.00    +0.055 A 
BRANCH  28  30
ATOM      1  F   UNL     1      22.206   5.278  19.660  0.00  0.00    -0.166 F 
ATOM      2  F   UNL     1      21.408   3.537  20.690  0.00  0.00    -0.166 F 
ATOM      3  F   UNL     1      22.189   5.217  21.827  0.00  0.00    -0.166 F 
ATOM     30  C   UNL     1      21.443   4.901  20.727  0.00  0.00    +0.417 C 
ENDBRANCH  28  30
ENDBRANCH   8  21
BRANCH  13  10
ATOM     10  C   UNL     1      13.762   9.900  20.801  0.00  0.00    +0.047 C 
ATOM     11  C   UNL     1      13.960  10.745  22.076  0.00  0.00    +0.039 C 
ATOM     12  C   UNL     1      13.821  12.208  21.635  0.00  0.00    +0.097 C 
ATOM     14  C   UNL     1      14.072  10.885  19.710  0.00  0.00    -0.021 C 
ATOM     15  C   UNL     1      14.098  12.141  20.169  0.00  0.00    -0.009 C 
BRANCH  12   7
ATOM      4  O   UNL     1      13.045  14.357  23.404  0.00  0.00    -0.276 OA
ATOM      7  N   UNL     1      12.495  12.727  21.841  0.00  0.00    -0.309 N 
ATOM     20  C   UNL     1      12.216  13.768  22.716  0.00  0.00    +0.214 C 
ATOM     31  H   UNL     1      11.721  12.286  21.351  0.00  0.00    +0.149 HD
BRANCH  20  22
ATOM     22  C   UNL     1      10.736  14.103  22.730  0.00  0.00    +0.107 C 
BRANCH  22  25
ATOM     25  C   UNL     1      10.092  13.842  24.088  0.00  0.00    +0.129 C 
BRANCH  25  29
ATOM      6  O   UNL     1      10.953  12.241  25.707  0.00  0.00    -0.251 OA
ATOM     29  C   UNL     1      10.437  12.471  24.622  0.00  0.00    +0.305 C 
BRANCH  29   5
ATOM      5  O   UNL     1      10.100  11.494  23.739  0.00  0.00    -0.481 OA
ATOM     32  H   UNL     1      10.619  11.558  22.910  0.00  0.00    +0.295 HD
ENDBRANCH  29   5
ENDBRANCH  25  29
ENDBRANCH  22  25
ENDBRANCH  20  22
ENDBRANCH  12   7
ENDBRANCH  13  10
TORSDOF 8
ENDMDL
MODEL 8
REMARK VINA RESULT:      -6.5      2.433      3.065
REMARK  Name = 40777679
REMARK  10 active torsions:
REMARK  status: ('A' for Active; 'I' for Inactive)
REMARK    1  A    between atoms: O_5  and  C_29
REMARK    2  A    between atoms: N_7  and  C_12
REMARK    3  A    between atoms: N_8  and  C_21
REMARK    4  A    between atoms: C_10  and  C_13
REMARK    5  A    between atoms: C_16  and  C_18
REMARK    6  A    between atoms: C_17  and  C_19
REMARK    7  A    between atoms: C_20  and  C_22
REMARK    8  A    between atoms: C_22  and  C_25
REMARK    9  A    between atoms: C_25  and  C_29
REMARK   10  A    between atoms: C_28  and  C_30
REMARK                            x       y       z     vdW  Elec       q    Type
REMARK                         _______ _______ _______ _____ _____    ______ ____
ROOT
ATOM      8  N   UNL     1      20.138   7.154  21.420  0.00  0.00    -0.236 N 
ATOM      9  N   UNL     1      20.370   8.269  22.134  0.00  0.00    -0.171 NA
ATOM     13  C   UNL     1      18.305   8.312  21.160  0.00  0.00    +0.003 A 
ATOM     16  C   UNL     1      18.915   7.132  20.816  0.00  0.00    +0.046 A 
ATOM     17  C   UNL     1      19.247   8.973  21.971  0.00  0.00    +0.064 A 
ATOM     18  C   UNL     1      18.444   6.008  19.980  0.00  0.00    +0.066 C 
ATOM     19  C   UNL     1      19.117  10.289  22.618  0.00  0.00    +0.068 C 
ENDROOT
BRANCH   8  21
ATOM     21  C   UNL     1      21.113   6.158  21.354  0.00  0.00    +0.066 A 
ATOM     23  C   UNL     1      22.154   6.261  20.431  0.00  0.00    +0.028 A 
ATOM     24  C   UNL     1      21.044   5.057  22.208  0.00  0.00    +0.028 A 
ATOM     26  C   UNL     1      23.127   5.263  20.362  0.00  0.00    +0.014 A 
ATOM     27  C   UNL     1      22.017   4.060  22.139  0.00  0.00    +0.014 A 
ATOM     28  C   UNL     1      23.058   4.162  21.216  0.00  0.00    +0.055 A 
BRANCH  28  30
ATOM      1  F   UNL     1      23.837   2.142  20.201  0.00  0.00    -0.166 F 
ATOM      2  F   UNL     1      24.243   2.420  22.319  0.00  0.00    -0.166 F 
ATOM      3  F   UNL     1      25.342   3.568  20.836  0.00  0.00    -0.166 F 
ATOM     30  C   UNL     1      24.098   3.096  21.142  0.00  0.00    +0.417 C 
ENDBRANCH  28  30
ENDBRANCH   8  21
BRANCH  13  10
ATOM     10  C   UNL     1      16.930   8.794  20.754  0.00  0.00    +0.047 C 
ATOM     11  C   UNL     1      15.904   8.752  21.904  0.00  0.00    +0.039 C 
ATOM     12  C   UNL     1      14.978   9.954  21.684  0.00  0.00    +0.097 C 
ATOM     14  C   UNL     1      16.872  10.231  20.322  0.00  0.00    -0.021 C 
ATOM     15  C   UNL     1      15.804  10.857  20.828  0.00  0.00    -0.009 C 
BRANCH  12   7
ATOM      4  O   UNL     1      12.285   9.943  22.731  0.00  0.00    -0.276 OA
ATOM      7  N   UNL     1      13.774   9.607  20.978  0.00  0.00    -0.309 N 
ATOM     20  C   UNL     1      12.517   9.631  21.567  0.00  0.00    +0.214 C 
ATOM     31  H   UNL     1      13.851   9.294  20.014  0.00  0.00    +0.149 HD
BRANCH  20  22
ATOM     22  C   UNL     1      11.435   9.216  20.586  0.00  0.00    +0.107 C 
BRANCH  22  25
ATOM     25  C   UNL     1      11.765   7.909  19.873  0.00  0.00    +0.129 C 
BRANCH  25  29
ATOM      6  O   UNL     1      10.877   6.184  21.343  0.00  0.00    -0.251 OA
ATOM     29  C   UNL     1      11.837   6.745  20.834  0.00  0.00    +0.305 C 
BRANCH  29   5
ATOM      5  O   UNL     1      13.124   6.380  21.076  0.00  0.00    -0.481 OA
ATOM     32  H   UNL     1      13.359   6.476  22.023  0.00  0.00    +0.295 HD
ENDBRANCH  29   5
ENDBRANCH  25  29
ENDBRANCH  22  25
ENDBRANCH  20  22
ENDBRANCH  12   7
ENDBRANCH  13  10
TORSDOF 8
ENDMDL
MODEL 9
REMARK VINA RESULT:      -6.5     29.253     32.652
REMARK  Name = 40777679
REMARK  10 active torsions:
REMARK  status: ('A' for Active; 'I' for Inactive)
REMARK    1  A    between atoms: O_5  and  C_29
REMARK    2  A    between atoms: N_7  and  C_12
REMARK    3  A    between atoms: N_8  and  C_21
REMARK    4  A    between atoms: C_10  and  C_13
REMARK    5  A    between atoms: C_16  and  C_18
REMARK    6  A    between atoms: C_17  and  C_19
REMARK    7  A    between atoms: C_20  and  C_22
REMARK    8  A    between atoms: C_22  and  C_25
REMARK    9  A    between atoms: C_25  and  C_29
REMARK   10  A    between atoms: C_28  and  C_30
REMARK                            x       y       z     vdW  Elec       q    Type
REMARK                         _______ _______ _______ _____ _____    ______ ____
ROOT
ATOM      8  N   UNL     1      -6.416  -8.717   8.582  0.00  0.00    -0.236 N 
ATOM      9  N   UNL     1      -7.234  -7.726   8.974  0.00  0.00    -0.171 NA
ATOM     13  C   UNL     1      -7.734  -8.440   6.863  0.00  0.00    +0.003 A 
ATOM     16  C   UNL     1      -6.673  -9.179   7.324  0.00  0.00    +0.046 A 
ATOM     17  C   UNL     1      -8.037  -7.560   7.919  0.00  0.00    +0.064 A 
ATOM     18  C   UNL     1      -5.901 -10.264   6.685  0.00  0.00    +0.066 C 
ATOM     19  C   UNL     1      -9.094  -6.535   7.968  0.00  0.00    +0.068 C 
ENDROOT
BRANCH   8  21
ATOM     21  C   UNL     1      -5.418  -9.174   9.444  0.00  0.00    +0.066 A 
ATOM     23  C   UNL     1      -4.093  -8.786   9.247  0.00  0.00    +0.028 A 
ATOM     24  C   UNL     1      -5.746 -10.024  10.501  0.00  0.00    +0.028 A 
ATOM     26  C   UNL     1      -3.096  -9.246  10.106  0.00  0.00    +0.014 A 
ATOM     27  C   UNL     1      -4.749 -10.484  11.360  0.00  0.00    +0.014 A 
ATOM     28  C   UNL     1      -3.424 -10.096  11.163  0.00  0.00    +0.055 A 
BRANCH  28  30
ATOM      1  F   UNL     1      -2.622 -10.359  13.402  0.00  0.00    -0.166 F 
ATOM      2  F   UNL     1      -1.148 -10.000  11.844  0.00  0.00    -0.166 F 
ATOM      3  F   UNL     1      -2.135 -11.932  11.991  0.00  0.00    -0.166 F 
ATOM     30  C   UNL     1      -2.357 -10.587  12.082  0.00  0.00    +0.417 C 
ENDBRANCH  28  30
ENDBRANCH   8  21
BRANCH  13  10
ATOM     10  C   UNL     1      -8.419  -8.546   5.519  0.00  0.00    +0.047 C 
ATOM     11  C   UNL     1      -7.487  -8.225   4.332  0.00  0.00    +0.039 C 
ATOM     12  C   UNL     1      -7.934  -9.144   3.188  0.00  0.00    +0.097 C 
ATOM     14  C   UNL     1      -8.917  -9.920   5.176  0.00  0.00    -0.021 C 
ATOM     15  C   UNL     1      -8.655 -10.239   3.904  0.00  0.00    -0.009 C 
BRANCH  12   7
ATOM      4  O   UNL     1      -8.199  -9.624   0.351  0.00  0.00    -0.276 OA
ATOM      7  N   UNL     1      -8.843  -8.497   2.279  0.00  0.00    -0.309 N 
ATOM     20  C   UNL     1      -8.899  -8.795   0.925  0.00  0.00    +0.214 C 
ATOM     31  H   UNL     1      -9.446  -7.762   2.639  0.00  0.00    +0.149 HD
BRANCH  20  22
ATOM     22  C   UNL     1      -9.948  -7.959   0.214  0.00  0.00    +0.107 C 
BRANCH  22  25
ATOM     25  C   UNL     1     -10.479  -6.826   1.087  0.00  0.00    +0.129 C 
BRANCH  25  29
ATOM      6  O   UNL     1     -11.579  -5.931  -0.892  0.00  0.00    -0.251 OA
ATOM     29  C   UNL     1     -11.259  -5.812   0.283  0.00  0.00    +0.305 C 
BRANCH  29   5
ATOM      5  O   UNL     1     -11.575  -4.722   1.031  0.00  0.00    -0.481 OA
ATOM     32  H   UNL     1     -12.525  -4.709   1.273  0.00  0.00    +0.295 HD
ENDBRANCH  29   5
ENDBRANCH  25  29
ENDBRANCH  22  25
ENDBRANCH  20  22
ENDBRANCH  12   7
ENDBRANCH  13  10
TORSDOF 8
ENDMDL
MODEL 10
REMARK VINA RESULT:      -6.4     15.565     18.515
REMARK  Name = 40777679
REMARK  10 active torsions:
REMARK  status: ('A' for Active; 'I' for Inactive)
REMARK    1  A    between atoms: O_5  and  C_29
REMARK    2  A    between atoms: N_7  and  C_12
REMARK    3  A    between atoms: N_8  and  C_21
REMARK    4  A    between atoms: C_10  and  C_13
REMARK    5  A    between atoms: C_16  and  C_18
REMARK    6  A    between atoms: C_17  and  C_19
REMARK    7  A    between atoms: C_20  and  C_22
REMARK    8  A    between atoms: C_22  and  C_25
REMARK    9  A    between atoms: C_25  and  C_29
REMARK   10  A    between atoms: C_28  and  C_30
REMARK                            x       y       z     vdW  Elec       q    Type
REMARK                         _______ _______ _______ _____ _____    ______ ____
ROOT
ATOM      8  N   UNL     1      12.538   5.942   2.671  0.00  0.00    -0.236 N 
ATOM      9  N   UNL     1      13.635   6.698   2.847  0.00  0.00    -0.171 NA
ATOM     13  C   UNL     1      12.174   6.923   4.588  0.00  0.00    +0.003 A 
ATOM     16  C   UNL     1      11.631   6.042   3.685  0.00  0.00    +0.046 A 
ATOM     17  C   UNL     1      13.407   7.296   4.020  0.00  0.00    +0.064 A 
ATOM     18  C   UNL     1      10.353   5.303   3.706  0.00  0.00    +0.066 C 
ATOM     19  C   UNL     1      14.409   8.227   4.565  0.00  0.00    +0.068 C 
ENDROOT
BRANCH   8  21
ATOM     21  C   UNL     1      12.416   5.155   1.525  0.00  0.00    +0.066 A 
ATOM     23  C   UNL     1      13.068   3.924   1.450  0.00  0.00    +0.028 A 
ATOM     24  C   UNL     1      11.644   5.602   0.452  0.00  0.00    +0.028 A 
ATOM     26  C   UNL     1      12.949   3.140   0.303  0.00  0.00    +0.014 A 
ATOM     27  C   UNL     1      11.526   4.818  -0.695  0.00  0.00    +0.014 A 
ATOM     28  C   UNL     1      12.178   3.587  -0.770  0.00  0.00    +0.055 A 
BRANCH  28  30
ATOM      1  F   UNL     1      12.236   1.414  -1.769  0.00  0.00    -0.166 F 
ATOM      2  F   UNL     1      12.957   3.085  -2.960  0.00  0.00    -0.166 F 
ATOM      3  F   UNL     1      10.827   2.840  -2.597  0.00  0.00    -0.166 F 
ATOM     30  C   UNL     1      12.051   2.748  -1.997  0.00  0.00    +0.417 C 
ENDBRANCH  28  30
ENDBRANCH   8  21
BRANCH  13  10
ATOM     10  C   UNL     1      11.576   7.390   5.896  0.00  0.00    +0.047 C 
ATOM     11  C   UNL     1      10.573   8.549   5.730  0.00  0.00    +0.039 C 
ATOM     12  C   UNL     1       9.498   8.329   6.801  0.00  0.00    +0.097 C 
ATOM     14  C   UNL     1      10.759   6.356   6.615  0.00  0.00    -0.021 C 
ATOM     15  C   UNL     1       9.629   6.874   7.111  0.00  0.00    -0.009 C 
BRANCH  12   7
ATOM      4  O   UNL     1       9.127  11.172   7.166  0.00  0.00    -0.276 OA
ATOM      7  N   UNL     1       9.741   9.090   7.997  0.00  0.00    -0.309 N 
ATOM     20  C   UNL     1       9.533  10.460   8.080  0.00  0.00    +0.214 C 
ATOM     31  H   UNL     1      10.118   8.608   8.809  0.00  0.00    +0.149 HD
BRANCH  20  22
ATOM     22  C   UNL     1       9.874  10.993   9.460  0.00  0.00    +0.107 C 
BRANCH  22  25
ATOM     25  C   UNL     1       8.653  11.549  10.186  0.00  0.00    +0.129 C 
BRANCH  25  29
ATOM      6  O   UNL     1      10.068  11.880  12.139  0.00  0.00    -0.251 OA
ATOM     29  C   UNL     1       8.956  11.875  11.631  0.00  0.00    +0.305 C 
BRANCH  29   5
ATOM      5  O   UNL     1       7.824  12.171  12.321  0.00  0.00    -0.481 OA
ATOM     32  H   UNL     1       7.124  12.532  11.737  0.00  0.00    +0.295 HD
ENDBRANCH  29   5
ENDBRANCH  25  29
ENDBRANCH  22  25
ENDBRANCH  20  22
ENDBRANCH  12   7
ENDBRANCH  13  10
TORSDOF 8
ENDMDL
