REMARK  Name = 7143719
REMARK  2 active torsions:
REMARK  status: ('A' for Active; 'I' for Inactive)
REMARK    1  A    between atoms: N_5  and  C_20
REMARK    2  A    between atoms: C_16  and  C_18
REMARK                            x       y       z     vdW  Elec       q    Type
REMARK                         _______ _______ _______ _____ _____    ______ ____
ROOT
ATOM      1  O   UNL     1       0.567  -1.141  -2.005  0.00  0.00    -0.267 OA
ATOM      2  O   UNL     1      -3.050   0.860   2.054  0.00  0.00    -0.252 OA
ATOM      3  N   UNL     1      -1.122  -2.023  -0.659  0.00  0.00    -0.311 N 
ATOM      4  N   UNL     1      -3.779  -0.649   0.458  0.00  0.00    -0.284 N 
ATOM      5  N   UNL     1      -3.549   1.637  -0.074  0.00  0.00    -0.269 N 
ATOM      6  C   UNL     1      -3.542  -2.247  -1.458  0.00  0.00    +0.027 C 
ATOM      7  C   UNL     1      -2.936  -2.965   0.812  0.00  0.00    +0.054 C 
ATOM      8  C   UNL     1      -3.617  -3.412  -0.479  0.00  0.00    +0.018 C 
ATOM      9  C   UNL     1      -2.069  -1.971  -1.781  0.00  0.00    +0.130 C 
ATOM     10  C   UNL     1      -4.250  -1.000  -0.891  0.00  0.00    +0.114 C 
ATOM     11  C   UNL     1      -3.708  -1.771   1.403  0.00  0.00    +0.119 C 
ATOM     12  C   UNL     1      -1.490  -2.574   0.570  0.00  0.00    +0.027 A 
ATOM     13  C   UNL     1      -0.577  -2.723   1.542  0.00  0.00    +0.022 A 
ATOM     14  C   UNL     1       0.195  -1.596  -0.921  0.00  0.00    +0.259 A 
ATOM     15  C   UNL     1      -3.422   0.645   0.897  0.00  0.00    +0.306 C 
ATOM     16  C   UNL     1       1.187  -1.739   0.201  0.00  0.00    +0.047 A 
ATOM     17  C   UNL     1       0.779  -2.293   1.353  0.00  0.00    +0.015 A 
ATOM     34  H   UNL     1      -4.237   1.506  -0.807  0.00  0.00    +0.156 HD
ENDROOT
BRANCH  16  18
ATOM     18  C   UNL     1       2.577  -1.274   0.055  0.00  0.00    -0.012 A 
ATOM     19  C   UNL     1       2.916   0.036   0.397  0.00  0.00    +0.017 A 
ATOM     21  C   UNL     1       3.555  -2.142  -0.424  0.00  0.00    +0.009 A 
ATOM     22  C   UNL     1       4.237   0.494   0.263  0.00  0.00    -0.017 A 
ATOM     23  C   UNL     1       4.872  -1.704  -0.564  0.00  0.00    +0.009 A 
ATOM     24  C   UNL     1       5.230  -0.389  -0.224  0.00  0.00    -0.018 A 
ATOM     27  C   UNL     1       4.595   1.809   0.602  0.00  0.00    +0.008 A 
ATOM     28  C   UNL     1       6.551   0.069  -0.358  0.00  0.00    +0.008 A 
ATOM     31  C   UNL     1       5.912   2.247   0.463  0.00  0.00    +0.001 A 
ATOM     32  C   UNL     1       6.888   1.379  -0.017  0.00  0.00    +0.001 A 
ENDBRANCH  16  18
BRANCH   5  20
ATOM     20  C   UNL     1      -2.847   2.866  -0.139  0.00  0.00    +0.035 A 
ATOM     25  C   UNL     1      -3.162   3.792  -1.130  0.00  0.00    +0.023 A 
ATOM     26  C   UNL     1      -1.846   3.141   0.788  0.00  0.00    +0.023 A 
ATOM     29  C   UNL     1      -2.472   5.002  -1.194  0.00  0.00    +0.002 A 
ATOM     30  C   UNL     1      -1.156   4.352   0.725  0.00  0.00    +0.002 A 
ATOM     33  C   UNL     1      -1.468   5.282  -0.266  0.00  0.00    +0.000 A 
ENDBRANCH   5  20
TORSDOF 2
