MODEL 1
REMARK VINA RESULT:      -7.5      0.000      0.000
REMARK  Name = 45784189
REMARK  4 active torsions:
REMARK  status: ('A' for Active; 'I' for Inactive)
REMARK    1  A    between atoms: N_3  and  C_9
REMARK    2  A    between atoms: C_5  and  C_10
REMARK    3  A    between atoms: C_9  and  C_11
REMARK    4  A    between atoms: C_18  and  C_23
REMARK                            x       y       z     vdW  Elec       q    Type
REMARK                         _______ _______ _______ _____ _____    ______ ____
ROOT
ATOM      3  N   UNL     1      11.943   4.270   1.541  0.00  0.00    -0.297 NA
ATOM      5  C   UNL     1      10.526   5.265   3.124  0.00  0.00    +0.090 C 
ATOM      6  C   UNL     1      11.607   6.272   2.695  0.00  0.00    +0.029 C 
ATOM      7  C   UNL     1      11.051   3.905   2.644  0.00  0.00    +0.097 C 
ATOM      8  C   UNL     1      12.687   5.431   2.028  0.00  0.00    +0.085 C 
ENDROOT
BRANCH   5  10
ATOM      2  O   UNL     1       9.787   6.479   5.103  0.00  0.00    -0.439 OA
ATOM      4  N   UNL     1      10.243   4.288   5.458  0.00  0.00    -0.213 NA
ATOM     10  C   UNL     1      10.192   5.281   4.598  0.00  0.00    +0.201 A 
ATOM     12  C   UNL     1       9.839   4.869   6.636  0.00  0.00    +0.110 A 
ATOM     13  C   UNL     1       9.558   6.211   6.422  0.00  0.00    +0.155 A 
ATOM     16  C   UNL     1       9.680   4.341   7.925  0.00  0.00    +0.035 A 
ATOM     17  C   UNL     1       9.123   7.095   7.401  0.00  0.00    +0.049 A 
ATOM     18  C   UNL     1       9.242   5.203   8.941  0.00  0.00    -0.048 A 
ATOM     19  C   UNL     1       8.970   6.552   8.681  0.00  0.00    +0.007 A 
ATOM     23  C   UNL     1       9.064   4.671  10.325  0.00  0.00    +0.044 C 
ENDBRANCH   5  10
BRANCH   3   9
ATOM      9  C   UNL     1      12.817   3.174   1.149  0.00  0.00    +0.122 C 
BRANCH   9  11
ATOM      1  F   UNL     1      15.530   3.428   1.928  0.00  0.00    -0.205 F 
ATOM     11  C   UNL     1      13.903   3.632   0.211  0.00  0.00    +0.002 A 
ATOM     14  C   UNL     1      15.219   3.735   0.661  0.00  0.00    +0.128 A 
ATOM     15  C   UNL     1      13.590   3.953  -1.109  0.00  0.00    +0.008 A 
ATOM     20  C   UNL     1      16.223   4.159  -0.210  0.00  0.00    +0.038 A 
ATOM     21  C   UNL     1      14.594   4.377  -1.980  0.00  0.00    +0.000 A 
ATOM     22  C   UNL     1      15.910   4.481  -1.531  0.00  0.00    +0.003 A 
ENDBRANCH   9  11
ENDBRANCH   3   9
TORSDOF 3
ENDMDL
MODEL 2
REMARK VINA RESULT:      -7.3     17.352     20.467
REMARK  Name = 45784189
REMARK  4 active torsions:
REMARK  status: ('A' for Active; 'I' for Inactive)
REMARK    1  A    between atoms: N_3  and  C_9
REMARK    2  A    between atoms: C_5  and  C_10
REMARK    3  A    between atoms: C_9  and  C_11
REMARK    4  A    between atoms: C_18  and  C_23
REMARK                            x       y       z     vdW  Elec       q    Type
REMARK                         _______ _______ _______ _____ _____    ______ ____
ROOT
ATOM      3  N   UNL     1      11.425   9.749  22.313  0.00  0.00    -0.297 NA
ATOM      5  C   UNL     1      12.937   8.821  20.778  0.00  0.00    +0.090 C 
ATOM      6  C   UNL     1      11.776   7.839  21.015  0.00  0.00    +0.029 C 
ATOM      7  C   UNL     1      12.838   9.825  21.934  0.00  0.00    +0.097 C 
ATOM      8  C   UNL     1      11.108   8.321  22.296  0.00  0.00    +0.085 C 
ENDROOT
BRANCH   5  10
ATOM      2  O   UNL     1      14.500   7.385  19.582  0.00  0.00    -0.439 OA
ATOM      4  N   UNL     1      15.320   8.283  21.495  0.00  0.00    -0.213 NA
ATOM     10  C   UNL     1      14.300   8.178  20.672  0.00  0.00    +0.201 A 
ATOM     12  C   UNL     1      16.282   7.496  20.909  0.00  0.00    +0.110 A 
ATOM     13  C   UNL     1      15.784   6.945  19.737  0.00  0.00    +0.155 A 
ATOM     16  C   UNL     1      17.596   7.193  21.294  0.00  0.00    +0.035 A 
ATOM     17  C   UNL     1      16.494   6.098  18.895  0.00  0.00    +0.049 A 
ATOM     18  C   UNL     1      18.345   6.341  20.470  0.00  0.00    -0.048 A 
ATOM     19  C   UNL     1      17.803   5.806  19.295  0.00  0.00    +0.007 A 
ATOM     23  C   UNL     1      19.747   6.000  20.854  0.00  0.00    +0.044 C 
ENDBRANCH   5  10
BRANCH   3   9
ATOM      9  C   UNL     1      11.164  10.361  23.607  0.00  0.00    +0.122 C 
BRANCH   9  11
ATOM      1  F   UNL     1      10.636  12.027  25.837  0.00  0.00    -0.205 F 
ATOM     11  C   UNL     1      10.871  11.833  23.483  0.00  0.00    +0.002 A 
ATOM     14  C   UNL     1      10.620  12.595  24.623  0.00  0.00    +0.128 A 
ATOM     15  C   UNL     1      10.853  12.433  22.225  0.00  0.00    +0.008 A 
ATOM     20  C   UNL     1      10.350  13.959  24.505  0.00  0.00    +0.038 A 
ATOM     21  C   UNL     1      10.583  13.797  22.107  0.00  0.00    +0.000 A 
ATOM     22  C   UNL     1      10.331  14.560  23.246  0.00  0.00    +0.003 A 
ENDBRANCH   9  11
ENDBRANCH   3   9
TORSDOF 3
ENDMDL
MODEL 3
REMARK VINA RESULT:      -7.0     22.153     25.379
REMARK  Name = 45784189
REMARK  4 active torsions:
REMARK  status: ('A' for Active; 'I' for Inactive)
REMARK    1  A    between atoms: N_3  and  C_9
REMARK    2  A    between atoms: C_5  and  C_10
REMARK    3  A    between atoms: C_9  and  C_11
REMARK    4  A    between atoms: C_18  and  C_23
REMARK                            x       y       z     vdW  Elec       q    Type
REMARK                         _______ _______ _______ _____ _____    ______ ____
ROOT
ATOM      3  N   UNL     1      -2.037 -10.882  13.812  0.00  0.00    -0.297 NA
ATOM      5  C   UNL     1      -3.236 -10.321  15.749  0.00  0.00    +0.090 C 
ATOM      6  C   UNL     1      -1.854 -10.872  16.141  0.00  0.00    +0.029 C 
ATOM      7  C   UNL     1      -3.417 -10.733  14.282  0.00  0.00    +0.097 C 
ATOM      8  C   UNL     1      -1.346 -11.584  14.894  0.00  0.00    +0.085 C 
ENDROOT
BRANCH   5  10
ATOM      2  O   UNL     1      -5.384  -9.877  16.811  0.00  0.00    -0.439 OA
ATOM      4  N   UNL     1      -4.519 -11.925  17.253  0.00  0.00    -0.213 NA
ATOM     10  C   UNL     1      -4.375 -10.775  16.633  0.00  0.00    +0.201 A 
ATOM     12  C   UNL     1      -5.723 -11.786  17.901  0.00  0.00    +0.110 A 
ATOM     13  C   UNL     1      -6.256 -10.534  17.632  0.00  0.00    +0.155 A 
ATOM     16  C   UNL     1      -6.438 -12.662  18.731  0.00  0.00    +0.035 A 
ATOM     17  C   UNL     1      -7.466 -10.064  18.128  0.00  0.00    +0.049 A 
ATOM     18  C   UNL     1      -7.664 -12.224  19.251  0.00  0.00    -0.048 A 
ATOM     19  C   UNL     1      -8.165 -10.950  18.954  0.00  0.00    +0.007 A 
ATOM     23  C   UNL     1      -8.448 -13.134  20.138  0.00  0.00    +0.044 C 
ENDBRANCH   5  10
BRANCH   3   9
ATOM      9  C   UNL     1      -1.956 -11.595  12.546  0.00  0.00    +0.122 C 
BRANCH   9  11
ATOM      1  F   UNL     1      -1.223  -9.141  11.334  0.00  0.00    -0.205 F 
ATOM     11  C   UNL     1      -2.779 -10.930  11.475  0.00  0.00    +0.002 A 
ATOM     14  C   UNL     1      -2.359  -9.721  10.920  0.00  0.00    +0.128 A 
ATOM     15  C   UNL     1      -3.961 -11.524  11.037  0.00  0.00    +0.008 A 
ATOM     20  C   UNL     1      -3.122  -9.106   9.927  0.00  0.00    +0.038 A 
ATOM     21  C   UNL     1      -4.724 -10.910  10.044  0.00  0.00    +0.000 A 
ATOM     22  C   UNL     1      -4.306  -9.701   9.489  0.00  0.00    +0.003 A 
ENDBRANCH   9  11
ENDBRANCH   3   9
TORSDOF 3
ENDMDL
MODEL 4
REMARK VINA RESULT:      -6.9     22.986     26.390
REMARK  Name = 45784189
REMARK  4 active torsions:
REMARK  status: ('A' for Active; 'I' for Inactive)
REMARK    1  A    between atoms: N_3  and  C_9
REMARK    2  A    between atoms: C_5  and  C_10
REMARK    3  A    between atoms: C_9  and  C_11
REMARK    4  A    between atoms: C_18  and  C_23
REMARK                            x       y       z     vdW  Elec       q    Type
REMARK                         _______ _______ _______ _____ _____    ______ ____
ROOT
ATOM      3  N   UNL     1      -4.283 -10.625  14.644  0.00  0.00    -0.297 NA
ATOM      5  C   UNL     1      -5.603  -9.625  16.305  0.00  0.00    +0.090 C 
ATOM      6  C   UNL     1      -4.457 -10.412  16.963  0.00  0.00    +0.029 C 
ATOM      7  C   UNL     1      -5.648 -10.141  14.860  0.00  0.00    +0.097 C 
ATOM      8  C   UNL     1      -3.939 -11.341  15.873  0.00  0.00    +0.085 C 
ENDROOT
BRANCH   5  10
ATOM      2  O   UNL     1      -6.989 -10.619  18.045  0.00  0.00    -0.439 OA
ATOM      4  N   UNL     1      -8.051  -9.088  16.756  0.00  0.00    -0.213 NA
ATOM     10  C   UNL     1      -6.936  -9.735  17.011  0.00  0.00    +0.201 A 
ATOM     12  C   UNL     1      -8.923  -9.579  17.697  0.00  0.00    +0.110 A 
ATOM     13  C   UNL     1      -8.277 -10.517  18.489  0.00  0.00    +0.155 A 
ATOM     16  C   UNL     1     -10.272  -9.290  17.954  0.00  0.00    +0.035 A 
ATOM     17  C   UNL     1      -8.867 -11.209  19.539  0.00  0.00    +0.049 A 
ATOM     18  C   UNL     1     -10.903  -9.970  19.006  0.00  0.00    -0.048 A 
ATOM     19  C   UNL     1     -10.212 -10.910  19.781  0.00  0.00    +0.007 A 
ATOM     23  C   UNL     1     -12.338  -9.685  19.304  0.00  0.00    +0.044 C 
ENDBRANCH   5  10
BRANCH   3   9
ATOM      9  C   UNL     1      -4.174 -11.468  13.462  0.00  0.00    +0.122 C 
BRANCH   9  11
ATOM      1  F   UNL     1      -1.614 -10.534  12.687  0.00  0.00    -0.205 F 
ATOM     11  C   UNL     1      -3.938 -10.656  12.215  0.00  0.00    +0.002 A 
ATOM     14  C   UNL     1      -2.650 -10.228  11.893  0.00  0.00    +0.128 A 
ATOM     15  C   UNL     1      -5.008 -10.333  11.383  0.00  0.00    +0.008 A 
ATOM     20  C   UNL     1      -2.433  -9.477  10.738  0.00  0.00    +0.038 A 
ATOM     21  C   UNL     1      -4.792  -9.582  10.228  0.00  0.00    +0.000 A 
ATOM     22  C   UNL     1      -3.504  -9.154   9.905  0.00  0.00    +0.003 A 
ENDBRANCH   9  11
ENDBRANCH   3   9
TORSDOF 3
ENDMDL
MODEL 5
REMARK VINA RESULT:      -6.8     16.402     18.712
REMARK  Name = 45784189
REMARK  4 active torsions:
REMARK  status: ('A' for Active; 'I' for Inactive)
REMARK    1  A    between atoms: N_3  and  C_9
REMARK    2  A    between atoms: C_5  and  C_10
REMARK    3  A    between atoms: C_9  and  C_11
REMARK    4  A    between atoms: C_18  and  C_23
REMARK                            x       y       z     vdW  Elec       q    Type
REMARK                         _______ _______ _______ _____ _____    ______ ____
ROOT
ATOM      3  N   UNL     1      13.432   7.642  19.881  0.00  0.00    -0.297 NA
ATOM      5  C   UNL     1      12.119   8.658  21.538  0.00  0.00    +0.090 C 
ATOM      6  C   UNL     1      11.206   8.060  20.452  0.00  0.00    +0.029 C 
ATOM      7  C   UNL     1      13.512   8.695  20.896  0.00  0.00    +0.097 C 
ATOM      8  C   UNL     1      12.121   7.819  19.258  0.00  0.00    +0.085 C 
ENDROOT
BRANCH   5  10
ATOM      2  O   UNL     1      11.524  10.091  23.417  0.00  0.00    -0.439 OA
ATOM      4  N   UNL     1      11.422  11.103  21.392  0.00  0.00    -0.213 NA
ATOM     10  C   UNL     1      11.678  10.004  22.066  0.00  0.00    +0.201 A 
ATOM     12  C   UNL     1      11.068  12.000  22.370  0.00  0.00    +0.110 A 
ATOM     13  C   UNL     1      11.130  11.385  23.612  0.00  0.00    +0.155 A 
ATOM     16  C   UNL     1      10.684  13.347  22.301  0.00  0.00    +0.035 A 
ATOM     17  C   UNL     1      10.836  12.005  24.820  0.00  0.00    +0.049 A 
ATOM     18  C   UNL     1      10.378  14.008  23.499  0.00  0.00    -0.048 A 
ATOM     19  C   UNL     1      10.454  13.348  24.732  0.00  0.00    +0.007 A 
ATOM     23  C   UNL     1       9.965  15.442  23.458  0.00  0.00    +0.044 C 
ENDBRANCH   5  10
BRANCH   3   9
ATOM      9  C   UNL     1      14.520   7.717  18.917  0.00  0.00    +0.122 C 
BRANCH   9  11
ATOM      1  F   UNL     1      16.131   5.784  17.615  0.00  0.00    -0.205 F 
ATOM     11  C   UNL     1      15.814   7.205  19.491  0.00  0.00    +0.002 A 
ATOM     14  C   UNL     1      16.559   6.252  18.797  0.00  0.00    +0.128 A 
ATOM     15  C   UNL     1      16.268   7.685  20.719  0.00  0.00    +0.008 A 
ATOM     20  C   UNL     1      17.758   5.779  19.330  0.00  0.00    +0.038 A 
ATOM     21  C   UNL     1      17.467   7.212  21.253  0.00  0.00    +0.000 A 
ATOM     22  C   UNL     1      18.212   6.259  20.559  0.00  0.00    +0.003 A 
ENDBRANCH   9  11
ENDBRANCH   3   9
TORSDOF 3
ENDMDL
MODEL 6
REMARK VINA RESULT:      -6.7      2.600      8.717
REMARK  Name = 45784189
REMARK  4 active torsions:
REMARK  status: ('A' for Active; 'I' for Inactive)
REMARK    1  A    between atoms: N_3  and  C_9
REMARK    2  A    between atoms: C_5  and  C_10
REMARK    3  A    between atoms: C_9  and  C_11
REMARK    4  A    between atoms: C_18  and  C_23
REMARK                            x       y       z     vdW  Elec       q    Type
REMARK                         _______ _______ _______ _____ _____    ______ ____
ROOT
ATOM      3  N   UNL     1      10.696   5.340   4.188  0.00  0.00    -0.297 NA
ATOM      5  C   UNL     1      11.963   4.545   2.382  0.00  0.00    +0.090 C 
ATOM      6  C   UNL     1      12.428   5.964   2.751  0.00  0.00    +0.029 C 
ATOM      7  C   UNL     1      10.605   4.387   3.079  0.00  0.00    +0.097 C 
ATOM      8  C   UNL     1      11.306   6.536   3.607  0.00  0.00    +0.085 C 
ENDROOT
BRANCH   5  10
ATOM      2  O   UNL     1      13.091   4.274   0.238  0.00  0.00    -0.439 OA
ATOM      4  N   UNL     1      10.841   4.013   0.158  0.00  0.00    -0.213 NA
ATOM     10  C   UNL     1      11.899   4.264   0.897  0.00  0.00    +0.201 A 
ATOM     12  C   UNL     1      11.368   3.840  -1.099  0.00  0.00    +0.110 A 
ATOM     13  C   UNL     1      12.745   3.998  -1.054  0.00  0.00    +0.155 A 
ATOM     16  C   UNL     1      10.759   3.547  -2.328  0.00  0.00    +0.035 A 
ATOM     17  C   UNL     1      13.591   3.888  -2.150  0.00  0.00    +0.049 A 
ATOM     18  C   UNL     1      11.581   3.429  -3.458  0.00  0.00    -0.048 A 
ATOM     19  C   UNL     1      12.968   3.597  -3.368  0.00  0.00    +0.007 A 
ATOM     23  C   UNL     1      10.963   3.118  -4.782  0.00  0.00    +0.044 C 
ENDBRANCH   5  10
BRANCH   3   9
ATOM      9  C   UNL     1       9.400   5.615   4.790  0.00  0.00    +0.122 C 
BRANCH   9  11
ATOM      1  F   UNL     1       9.942   3.191   6.154  0.00  0.00    -0.205 F 
ATOM     11  C   UNL     1       9.446   5.509   6.292  0.00  0.00    +0.002 A 
ATOM     14  C   UNL     1       9.719   4.283   6.899  0.00  0.00    +0.128 A 
ATOM     15  C   UNL     1       9.217   6.639   7.075  0.00  0.00    +0.008 A 
ATOM     20  C   UNL     1       9.762   4.187   8.289  0.00  0.00    +0.038 A 
ATOM     21  C   UNL     1       9.259   6.543   8.466  0.00  0.00    +0.000 A 
ATOM     22  C   UNL     1       9.532   5.318   9.074  0.00  0.00    +0.003 A 
ENDBRANCH   9  11
ENDBRANCH   3   9
TORSDOF 3
ENDMDL
MODEL 7
REMARK VINA RESULT:      -6.6     27.633     32.039
REMARK  Name = 45784189
REMARK  4 active torsions:
REMARK  status: ('A' for Active; 'I' for Inactive)
REMARK    1  A    between atoms: N_3  and  C_9
REMARK    2  A    between atoms: C_5  and  C_10
REMARK    3  A    between atoms: C_9  and  C_11
REMARK    4  A    between atoms: C_18  and  C_23
REMARK                            x       y       z     vdW  Elec       q    Type
REMARK                         _______ _______ _______ _____ _____    ______ ____
ROOT
ATOM      3  N   UNL     1     -13.537   7.266  20.794  0.00  0.00    -0.297 NA
ATOM      5  C   UNL     1     -14.866   5.439  21.422  0.00  0.00    +0.090 C 
ATOM      6  C   UNL     1     -15.770   6.609  20.995  0.00  0.00    +0.029 C 
ATOM      7  C   UNL     1     -13.487   6.074  21.643  0.00  0.00    +0.097 C 
ATOM      8  C   UNL     1     -14.866   7.834  21.023  0.00  0.00    +0.085 C 
ENDROOT
BRANCH   5  10
ATOM      2  O   UNL     1     -16.281   3.696  22.372  0.00  0.00    -0.439 OA
ATOM      4  N   UNL     1     -15.009   4.805  23.885  0.00  0.00    -0.213 NA
ATOM     10  C   UNL     1     -15.357   4.665  22.625  0.00  0.00    +0.201 A 
ATOM     12  C   UNL     1     -15.761   3.853  24.529  0.00  0.00    +0.110 A 
ATOM     13  C   UNL     1     -16.541   3.171  23.606  0.00  0.00    +0.155 A 
ATOM     16  C   UNL     1     -15.847   3.497  25.882  0.00  0.00    +0.035 A 
ATOM     17  C   UNL     1     -17.420   2.142  23.918  0.00  0.00    +0.049 A 
ATOM     18  C   UNL     1     -16.725   2.462  26.237  0.00  0.00    -0.048 A 
ATOM     19  C   UNL     1     -17.494   1.799  25.272  0.00  0.00    +0.007 A 
ATOM     23  C   UNL     1     -16.839   2.059  27.671  0.00  0.00    +0.044 C 
ENDBRANCH   5  10
BRANCH   3   9
ATOM      9  C   UNL     1     -12.471   8.209  21.098  0.00  0.00    +0.122 C 
BRANCH   9  11
ATOM      1  F   UNL     1     -11.157  10.696  20.752  0.00  0.00    -0.205 F 
ATOM     11  C   UNL     1     -11.656   8.546  19.876  0.00  0.00    +0.002 A 
ATOM     14  C   UNL     1     -11.036   9.791  19.771  0.00  0.00    +0.128 A 
ATOM     15  C   UNL     1     -11.523   7.612  18.851  0.00  0.00    +0.008 A 
ATOM     20  C   UNL     1     -10.282  10.101  18.639  0.00  0.00    +0.038 A 
ATOM     21  C   UNL     1     -10.769   7.921  17.719  0.00  0.00    +0.000 A 
ATOM     22  C   UNL     1     -10.149   9.166  17.612  0.00  0.00    +0.003 A 
ENDBRANCH   9  11
ENDBRANCH   3   9
TORSDOF 3
ENDMDL
MODEL 8
REMARK VINA RESULT:      -6.6     28.997     33.297
REMARK  Name = 45784189
REMARK  4 active torsions:
REMARK  status: ('A' for Active; 'I' for Inactive)
REMARK    1  A    between atoms: N_3  and  C_9
REMARK    2  A    between atoms: C_5  and  C_10
REMARK    3  A    between atoms: C_9  and  C_11
REMARK    4  A    between atoms: C_18  and  C_23
REMARK                            x       y       z     vdW  Elec       q    Type
REMARK                         _______ _______ _______ _____ _____    ______ ____
ROOT
ATOM      3  N   UNL     1     -15.030   6.199  21.484  0.00  0.00    -0.297 NA
ATOM      5  C   UNL     1     -15.729   4.272  22.623  0.00  0.00    +0.090 C 
ATOM      6  C   UNL     1     -16.951   4.981  22.012  0.00  0.00    +0.029 C 
ATOM      7  C   UNL     1     -14.610   5.320  22.578  0.00  0.00    +0.097 C 
ATOM      8  C   UNL     1     -16.467   6.387  21.683  0.00  0.00    +0.085 C 
ENDROOT
BRANCH   5  10
ATOM      2  O   UNL     1     -16.215   2.371  24.068  0.00  0.00    -0.439 OA
ATOM      4  N   UNL     1     -15.923   4.334  25.161  0.00  0.00    -0.213 NA
ATOM     10  C   UNL     1     -15.951   3.706  24.007  0.00  0.00    +0.201 A 
ATOM     12  C   UNL     1     -16.190   3.339  26.070  0.00  0.00    +0.110 A 
ATOM     13  C   UNL     1     -16.369   2.135  25.405  0.00  0.00    +0.155 A 
ATOM     16  C   UNL     1     -16.299   3.363  27.468  0.00  0.00    +0.035 A 
ATOM     17  C   UNL     1     -16.654   0.924  26.022  0.00  0.00    +0.049 A 
ATOM     18  C   UNL     1     -16.586   2.160  28.128  0.00  0.00    -0.048 A 
ATOM     19  C   UNL     1     -16.759   0.965  27.416  0.00  0.00    +0.007 A 
ATOM     23  C   UNL     1     -16.708   2.153  29.616  0.00  0.00    +0.044 C 
ENDBRANCH   5  10
BRANCH   3   9
ATOM      9  C   UNL     1     -14.302   7.459  21.475  0.00  0.00    +0.122 C 
BRANCH   9  11
ATOM      1  F   UNL     1     -11.590   6.650  21.317  0.00  0.00    -0.205 F 
ATOM     11  C   UNL     1     -13.468   7.616  20.230  0.00  0.00    +0.002 A 
ATOM     14  C   UNL     1     -12.138   7.195  20.221  0.00  0.00    +0.128 A 
ATOM     15  C   UNL     1     -14.028   8.181  19.085  0.00  0.00    +0.008 A 
ATOM     20  C   UNL     1     -11.368   7.340  19.067  0.00  0.00    +0.038 A 
ATOM     21  C   UNL     1     -13.259   8.326  17.931  0.00  0.00    +0.000 A 
ATOM     22  C   UNL     1     -11.929   7.906  17.921  0.00  0.00    +0.003 A 
ENDBRANCH   9  11
ENDBRANCH   3   9
TORSDOF 3
ENDMDL
MODEL 9
REMARK VINA RESULT:      -6.4     26.913     28.814
REMARK  Name = 45784189
REMARK  4 active torsions:
REMARK  status: ('A' for Active; 'I' for Inactive)
REMARK    1  A    between atoms: N_3  and  C_9
REMARK    2  A    between atoms: C_5  and  C_10
REMARK    3  A    between atoms: C_9  and  C_11
REMARK    4  A    between atoms: C_18  and  C_23
REMARK                            x       y       z     vdW  Elec       q    Type
REMARK                         _______ _______ _______ _____ _____    ______ ____
ROOT
ATOM      3  N   UNL     1      -8.933  -9.838  17.288  0.00  0.00    -0.297 NA
ATOM      5  C   UNL     1     -10.227  -7.888  17.136  0.00  0.00    +0.090 C 
ATOM      6  C   UNL     1     -10.971  -8.936  17.983  0.00  0.00    +0.029 C 
ATOM      7  C   UNL     1      -9.133  -8.682  16.411  0.00  0.00    +0.097 C 
ATOM      8  C   UNL     1     -10.281 -10.257  17.672  0.00  0.00    +0.085 C 
ENDROOT
BRANCH   5  10
ATOM      2  O   UNL     1     -12.422  -7.442  16.175  0.00  0.00    -0.439 OA
ATOM      4  N   UNL     1     -10.761  -6.118  15.385  0.00  0.00    -0.213 NA
ATOM     10  C   UNL     1     -11.104  -7.096  16.193  0.00  0.00    +0.201 A 
ATOM     12  C   UNL     1     -11.945  -5.779  14.777  0.00  0.00    +0.110 A 
ATOM     13  C   UNL     1     -12.965  -6.587  15.258  0.00  0.00    +0.155 A 
ATOM     16  C   UNL     1     -12.249  -4.807  13.813  0.00  0.00    +0.035 A 
ATOM     17  C   UNL     1     -14.292  -6.512  14.856  0.00  0.00    +0.049 A 
ATOM     18  C   UNL     1     -13.579  -4.701  13.380  0.00  0.00    -0.048 A 
ATOM     19  C   UNL     1     -14.578  -5.538  13.893  0.00  0.00    +0.007 A 
ATOM     23  C   UNL     1     -13.934  -3.676  12.354  0.00  0.00    +0.044 C 
ENDBRANCH   5  10
BRANCH   3   9
ATOM      9  C   UNL     1      -8.184 -10.904  16.638  0.00  0.00    +0.122 C 
BRANCH   9  11
ATOM      1  F   UNL     1      -5.906  -9.386  15.908  0.00  0.00    -0.205 F 
ATOM     11  C   UNL     1      -6.829 -11.101  17.266  0.00  0.00    +0.002 A 
ATOM     14  C   UNL     1      -5.749 -10.317  16.859  0.00  0.00    +0.128 A 
ATOM     15  C   UNL     1      -6.656 -12.066  18.257  0.00  0.00    +0.008 A 
ATOM     20  C   UNL     1      -4.496 -10.501  17.442  0.00  0.00    +0.038 A 
ATOM     21  C   UNL     1      -5.403 -12.250  18.840  0.00  0.00    +0.000 A 
ATOM     22  C   UNL     1      -4.322 -11.468  18.433  0.00  0.00    +0.003 A 
ENDBRANCH   9  11
ENDBRANCH   3   9
TORSDOF 3
ENDMDL
MODEL 10
REMARK VINA RESULT:      -6.4     13.421     15.174
REMARK  Name = 45784189
REMARK  4 active torsions:
REMARK  status: ('A' for Active; 'I' for Inactive)
REMARK    1  A    between atoms: N_3  and  C_9
REMARK    2  A    between atoms: C_5  and  C_10
REMARK    3  A    between atoms: C_9  and  C_11
REMARK    4  A    between atoms: C_18  and  C_23
REMARK                            x       y       z     vdW  Elec       q    Type
REMARK                         _______ _______ _______ _____ _____    ______ ____
ROOT
ATOM      3  N   UNL     1       0.435   2.577  -6.988  0.00  0.00    -0.297 NA
ATOM      5  C   UNL     1       1.424   4.311  -5.755  0.00  0.00    +0.090 C 
ATOM      6  C   UNL     1       0.924   4.858  -7.104  0.00  0.00    +0.029 C 
ATOM      7  C   UNL     1       1.430   2.786  -5.933  0.00  0.00    +0.097 C 
ATOM      8  C   UNL     1       0.704   3.625  -7.972  0.00  0.00    +0.085 C 
ENDROOT
BRANCH   5  10
ATOM      2  O   UNL     1       2.749   5.569  -4.143  0.00  0.00    -0.439 OA
ATOM      4  N   UNL     1       3.931   4.734  -5.888  0.00  0.00    -0.213 NA
ATOM     10  C   UNL     1       2.759   4.856  -5.305  0.00  0.00    +0.201 A 
ATOM     12  C   UNL     1       4.775   5.421  -5.049  0.00  0.00    +0.110 A 
ATOM     13  C   UNL     1       4.055   5.932  -3.979  0.00  0.00    +0.155 A 
ATOM     16  C   UNL     1       6.156   5.660  -5.112  0.00  0.00    +0.035 A 
ATOM     17  C   UNL     1       4.600   6.679  -2.942  0.00  0.00    +0.049 A 
ATOM     18  C   UNL     1       6.743   6.411  -4.084  0.00  0.00    -0.048 A 
ATOM     19  C   UNL     1       5.978   6.909  -3.021  0.00  0.00    +0.007 A 
ATOM     23  C   UNL     1       8.210   6.682  -4.123  0.00  0.00    +0.044 C 
ENDBRANCH   5  10
BRANCH   3   9
ATOM      9  C   UNL     1       0.511   1.243  -7.564  0.00  0.00    +0.122 C 
BRANCH   9  11
ATOM      1  F   UNL     1      -0.086  -0.909  -5.819  0.00  0.00    -0.205 F 
ATOM     11  C   UNL     1      -0.825   0.547  -7.544  0.00  0.00    +0.002 A 
ATOM     14  C   UNL     1      -1.052  -0.506  -6.658  0.00  0.00    +0.128 A 
ATOM     15  C   UNL     1      -1.836   0.958  -8.411  0.00  0.00    +0.008 A 
ATOM     20  C   UNL     1      -2.290  -1.149  -6.640  0.00  0.00    +0.038 A 
ATOM     21  C   UNL     1      -3.074   0.316  -8.394  0.00  0.00    +0.000 A 
ATOM     22  C   UNL     1      -3.301  -0.737  -7.509  0.00  0.00    +0.003 A 
ENDBRANCH   9  11
ENDBRANCH   3   9
TORSDOF 3
ENDMDL
