REMARK  Name = 38028418
REMARK  14 active torsions:
REMARK  status: ('A' for Active; 'I' for Inactive)
REMARK    1  A    between atoms: S_1  and  N_6
REMARK    2  A    between atoms: S_1  and  C_22
REMARK    3  A    between atoms: O_5  and  C_29
REMARK    4  A    between atoms: O_5  and  C_34
REMARK    5  A    between atoms: N_6  and  C_16
REMARK    6  A    between atoms: N_7  and  C_23
REMARK    7  A    between atoms: C_9  and  C_13
REMARK    8  A    between atoms: C_10  and  C_16
REMARK    9  A    between atoms: C_12  and  C_17
REMARK   10  A    between atoms: C_13  and  C_18
REMARK   11  A    between atoms: C_13  and  C_19
REMARK   12  A    between atoms: C_14  and  C_20
REMARK   13  A    between atoms: C_17  and  C_21
REMARK   14  A    between atoms: C_23  and  C_26
REMARK                            x       y       z     vdW  Elec       q    Type
REMARK                         _______ _______ _______ _____ _____    ______ ____
ROOT
ATOM      9  C   UNL     1       1.309   1.104  -1.293  0.00  0.00    +0.000 C 
ATOM     10  C   UNL     1       2.748   1.677  -1.297  0.00  0.00    +0.030 C 
ATOM     11  C   UNL     1       0.279   2.243  -1.310  0.00  0.00    +0.012 C 
ATOM     12  C   UNL     1       0.432   3.185  -0.101  0.00  0.00    +0.023 C 
ATOM     14  C   UNL     1       1.877   3.583   0.123  0.00  0.00    -0.073 C 
ATOM     15  C   UNL     1       2.898   2.905  -0.431  0.00  0.00    -0.023 C 
ATOM     20  C   UNL     1       2.121   4.807   0.961  0.00  0.00    +0.039 C 
ENDROOT
BRANCH   9  13
ATOM     13  C   UNL     1       1.066   0.167  -2.481  0.00  0.00    -0.013 C 
ATOM     18  C   UNL     1      -0.321  -0.461  -2.388  0.00  0.00    +0.007 C 
ATOM     19  C   UNL     1       1.231   0.922  -3.796  0.00  0.00    +0.007 C 
ENDBRANCH   9  13
BRANCH  10  16
ATOM     16  C   UNL     1       3.767   0.617  -0.861  0.00  0.00    +0.113 C 
BRANCH  16   6
ATOM      6  N   UNL     1       3.521   0.264   0.546  0.00  0.00    -0.189 NA
ATOM     35  H   UNL     1       3.535   1.034   1.226  0.00  0.00    +0.148 HD
BRANCH   6   1
ATOM      1  S   UNL     1       3.884  -1.301   1.113  0.00  0.00    +0.058 S 
ATOM      3  O   UNL     1       4.103  -1.252   2.546  0.00  0.00    -0.153 OA
ATOM      4  O   UNL     1       4.877  -1.903   0.244  0.00  0.00    -0.153 OA
BRANCH   1  22
ATOM     22  C   UNL     1       2.362  -2.151   0.823  0.00  0.00    +0.105 A 
ATOM     24  C   UNL     1       2.144  -2.797  -0.394  0.00  0.00    +0.032 A 
ATOM     25  C   UNL     1       1.377  -2.175   1.811  0.00  0.00    +0.032 A 
ATOM     27  C   UNL     1       0.943  -3.467  -0.623  0.00  0.00    +0.047 A 
ATOM     28  C   UNL     1       0.176  -2.846   1.582  0.00  0.00    +0.047 A 
ATOM     29  C   UNL     1      -0.042  -3.492   0.365  0.00  0.00    +0.120 A 
BRANCH  29   5
ATOM      5  O   UNL     1      -1.214  -4.145   0.141  0.00  0.00    -0.495 OA
ATOM     34  C   UNL     1      -1.370  -4.783  -1.125  0.00  0.00    +0.277 C 
ENDBRANCH  29   5
ENDBRANCH   1  22
ENDBRANCH   6   1
ENDBRANCH  16   6
ENDBRANCH  10  16
BRANCH  12  17
ATOM     17  C   UNL     1      -0.168   2.563   1.165  0.00  0.00    +0.103 C 
BRANCH  17  21
ATOM      2  O   UNL     1      -2.342   3.449   0.583  0.00  0.00    -0.276 OA
ATOM      7  N   UNL     1      -2.200   1.503   1.845  0.00  0.00    -0.311 N 
ATOM     21  C   UNL     1      -1.679   2.582   1.146  0.00  0.00    +0.214 C 
ATOM     36  H   UNL     1      -1.569   0.834   2.276  0.00  0.00    +0.149 HD
BRANCH   7  23
ATOM     23  C   UNL     1      -3.618   1.269   1.994  0.00  0.00    +0.141 C 
BRANCH  23  26
ATOM      8  N   UNL     1      -5.713   0.177  -0.959  0.00  0.00    -0.263 NA
ATOM     26  C   UNL     1      -4.167   0.420   0.884  0.00  0.00    -0.012 A 
ATOM     30  C   UNL     1      -3.682  -0.863   0.656  0.00  0.00    +0.008 A 
ATOM     31  C   UNL     1      -5.174   0.890   0.056  0.00  0.00    +0.115 A 
ATOM     32  C   UNL     1      -4.211  -1.626  -0.379  0.00  0.00    +0.020 A 
ATOM     33  C   UNL     1      -5.216  -1.065  -1.150  0.00  0.00    +0.111 A 
ENDBRANCH  23  26
ENDBRANCH   7  23
ENDBRANCH  17  21
ENDBRANCH  12  17
TORSDOF 10
