REMARK  Name = 26743306
REMARK  10 active torsions:
REMARK  status: ('A' for Active; 'I' for Inactive)
REMARK    1  A    between atoms: N_5  and  C_22
REMARK    2  A    between atoms: C_7  and  C_11
REMARK    3  A    between atoms: C_8  and  C_13
REMARK    4  A    between atoms: C_11  and  C_14
REMARK    5  A    between atoms: C_13  and  C_15
REMARK    6  A    between atoms: C_21  and  C_23
REMARK    7  A    between atoms: C_24  and  C_27
REMARK    8  A    between atoms: C_24  and  C_34
REMARK    9  A    between atoms: C_24  and  C_35
REMARK   10  A    between atoms: C_24  and  C_36
REMARK                            x       y       z     vdW  Elec       q    Type
REMARK                         _______ _______ _______ _____ _____    ______ ____
ROOT
ATOM      3  N   UNL     1      -0.423   3.003   2.325  0.00  0.00    -0.316 NA
ATOM      7  C   UNL     1       1.055   2.462  -0.171  0.00  0.00    +0.004 C 
ATOM      8  C   UNL     1      -0.389   1.960   0.072  0.00  0.00    +0.012 C 
ATOM      9  C   UNL     1       1.312   3.696   0.709  0.00  0.00    +0.019 C 
ATOM     10  C   UNL     1      -0.682   1.776   1.571  0.00  0.00    +0.085 C 
ATOM     12  C   UNL     1       0.960   3.451   2.176  0.00  0.00    +0.081 C 
ATOM     38  H   UNL     1      -0.619   2.840   3.312  0.00  0.00    +0.122 HD
ENDROOT
BRANCH   7  11
ATOM     11  C   UNL     1       2.132   1.395   0.058  0.00  0.00    +0.100 C 
BRANCH  11  14
ATOM      1  O   UNL     1       3.434   2.816  -1.329  0.00  0.00    -0.276 OA
ATOM      4  N   UNL     1       4.476   0.898  -0.530  0.00  0.00    -0.298 N 
ATOM      5  N   UNL     1       6.832  -0.738  -0.143  0.00  0.00    -0.327 N 
ATOM     14  C   UNL     1       3.400   1.777  -0.665  0.00  0.00    +0.216 C 
ATOM     16  C   UNL     1       5.737   1.195  -1.204  0.00  0.00    +0.126 C 
ATOM     17  C   UNL     1       4.437  -0.329   0.268  0.00  0.00    +0.126 C 
ATOM     18  C   UNL     1       6.941   0.700  -0.406  0.00  0.00    +0.124 C 
ATOM     19  C   UNL     1       5.499  -1.345  -0.155  0.00  0.00    +0.124 C 
BRANCH   5  22
ATOM     22  C   UNL     1       7.971  -1.509   0.076  0.00  0.00    +0.030 A 
ATOM     25  C   UNL     1       9.101  -0.935   0.658  0.00  0.00    +0.023 A 
ATOM     26  C   UNL     1       7.980  -2.857  -0.283  0.00  0.00    +0.023 A 
ATOM     32  C   UNL     1      10.241  -1.708   0.880  0.00  0.00    +0.002 A 
ATOM     33  C   UNL     1       9.120  -3.631  -0.060  0.00  0.00    +0.002 A 
ATOM     37  C   UNL     1      10.250  -3.056   0.521  0.00  0.00    +0.000 A 
ENDBRANCH   5  22
ENDBRANCH  11  14
ENDBRANCH   7  11
BRANCH   8  13
ATOM     13  C   UNL     1      -0.717   0.682  -0.700  0.00  0.00    +0.064 C 
BRANCH  13  15
ATOM      2  O   UNL     1      -4.140   0.705  -1.817  0.00  0.00    -0.354 OA
ATOM      6  N   UNL     1      -2.797   1.033  -1.961  0.00  0.00    -0.083 NA
ATOM     15  C   UNL     1      -2.198   0.518  -0.883  0.00  0.00    +0.085 A 
ATOM     20  C   UNL     1      -3.104  -0.139  -0.032  0.00  0.00    +0.076 A 
ATOM     21  C   UNL     1      -4.310   0.008  -0.665  0.00  0.00    +0.167 A 
BRANCH  21  23
ATOM     23  C   UNL     1      -5.654  -0.402  -0.379  0.00  0.00    +0.020 A 
ATOM     27  C   UNL     1      -8.270  -1.198   0.177  0.00  0.00    -0.042 A 
ATOM     28  C   UNL     1      -5.932  -1.124   0.782  0.00  0.00    +0.012 A 
ATOM     29  C   UNL     1      -6.685  -0.078  -1.262  0.00  0.00    +0.012 A 
ATOM     30  C   UNL     1      -7.239  -1.522   1.060  0.00  0.00    +0.005 A 
ATOM     31  C   UNL     1      -7.992  -0.476  -0.984  0.00  0.00    +0.005 A 
BRANCH  27  24
ATOM     24  C   UNL     1      -9.668  -1.624   0.475  0.00  0.00    -0.013 C 
ATOM     34  C   UNL     1     -10.166  -1.024   1.826  0.00  0.00    +0.015 C 
ATOM     35  C   UNL     1      -9.775  -3.177   0.582  0.00  0.00    +0.015 C 
ATOM     36  C   UNL     1     -10.738  -1.204  -0.587  0.00  0.00    +0.015 C 
ENDBRANCH  27  24
ENDBRANCH  21  23
ENDBRANCH  13  15
ENDBRANCH   8  13
TORSDOF 7
