MODEL 1
REMARK VINA RESULT:      -7.0      0.000      0.000
REMARK  Name = 45783594
REMARK  4 active torsions:
REMARK  status: ('A' for Active; 'I' for Inactive)
REMARK    1  A    between atoms: O_1  and  C_7
REMARK    2  A    between atoms: O_1  and  C_18
REMARK    3  A    between atoms: C_13  and  C_17
REMARK    4  A    between atoms: C_19  and  C_20
REMARK                            x       y       z     vdW  Elec       q    Type
REMARK                         _______ _______ _______ _____ _____    ______ ____
ROOT
ATOM      6  N   UNL     1      18.895   7.315  21.753  0.00  0.00    -0.221 NA
ATOM     18  C   UNL     1      19.687   6.406  21.141  0.00  0.00    +0.215 A 
ATOM     20  C   UNL     1      17.127   6.674  20.234  0.00  0.00    +0.041 A 
ATOM     21  C   UNL     1      19.277   5.607  20.085  0.00  0.00    +0.068 A 
ATOM     22  C   UNL     1      17.972   5.749  19.629  0.00  0.00    +0.018 A 
ATOM     23  C   UNL     1      17.632   7.425  21.282  0.00  0.00    +0.126 A 
ENDROOT
BRANCH  20  19
ATOM      2  O   UNL     1      14.075   7.277  18.568  0.00  0.00    -0.336 OA
ATOM      4  N   UNL     1      14.713   6.581  20.599  0.00  0.00    -0.190 NA
ATOM      5  N   UNL     1      15.475   7.265  18.553  0.00  0.00    -0.056 NA
ATOM     17  C   UNL     1      13.708   6.863  19.808  0.00  0.00    +0.245 A 
ATOM     19  C   UNL     1      15.777   6.843  19.785  0.00  0.00    +0.204 A 
BRANCH  17  13
ATOM      3  N   UNL     1      11.938   6.194  21.398  0.00  0.00    -0.305 NA
ATOM     13  C   UNL     1      12.224   6.789  20.083  0.00  0.00    +0.143 C 
ATOM     14  C   UNL     1      11.523   8.155  20.091  0.00  0.00    +0.029 C 
ATOM     15  C   UNL     1      10.821   8.227  21.439  0.00  0.00    +0.017 C 
ATOM     16  C   UNL     1      10.676   6.776  21.845  0.00  0.00    +0.081 C 
ATOM     24  H   UNL     1      12.665   6.480  22.056  0.00  0.00    +0.123 HD
ENDBRANCH  17  13
ENDBRANCH  20  19
BRANCH  18   1
ATOM      1  O   UNL     1      20.968   6.285  21.608  0.00  0.00    -0.473 OA
BRANCH   1   7
ATOM      7  C   UNL     1      21.732   5.193  21.106  0.00  0.00    +0.175 C 
ATOM      8  C   UNL     1      21.859   4.119  22.184  0.00  0.00    +0.044 C 
ATOM      9  C   UNL     1      23.101   5.693  20.645  0.00  0.00    +0.044 C 
ATOM     10  C   UNL     1      22.752   2.969  21.728  0.00  0.00    +0.004 C 
ATOM     11  C   UNL     1      23.994   4.545  20.189  0.00  0.00    +0.004 C 
ATOM     12  C   UNL     1      24.119   3.469  21.266  0.00  0.00    +0.000 C 
ENDBRANCH   1   7
ENDBRANCH  18   1
TORSDOF 4
ENDMDL
MODEL 2
REMARK VINA RESULT:      -6.7      1.706      9.118
REMARK  Name = 45783594
REMARK  4 active torsions:
REMARK  status: ('A' for Active; 'I' for Inactive)
REMARK    1  A    between atoms: O_1  and  C_7
REMARK    2  A    between atoms: O_1  and  C_18
REMARK    3  A    between atoms: C_13  and  C_17
REMARK    4  A    between atoms: C_19  and  C_20
REMARK                            x       y       z     vdW  Elec       q    Type
REMARK                         _______ _______ _______ _____ _____    ______ ____
ROOT
ATOM      6  N   UNL     1      16.253   7.292  20.619  0.00  0.00    -0.221 NA
ATOM     18  C   UNL     1      15.929   6.705  19.446  0.00  0.00    +0.215 A 
ATOM     20  C   UNL     1      18.433   6.265  20.436  0.00  0.00    +0.041 A 
ATOM     21  C   UNL     1      16.789   5.896  18.720  0.00  0.00    +0.068 A 
ATOM     22  C   UNL     1      18.063   5.677  19.231  0.00  0.00    +0.018 A 
ATOM     23  C   UNL     1      17.500   7.057  21.085  0.00  0.00    +0.126 A 
ENDROOT
BRANCH  20  19
ATOM      2  O   UNL     1      21.537   6.310  22.115  0.00  0.00    -0.336 OA
ATOM      4  N   UNL     1      20.495   4.971  20.652  0.00  0.00    -0.190 NA
ATOM      5  N   UNL     1      20.296   6.905  21.859  0.00  0.00    -0.056 NA
ATOM     17  C   UNL     1      21.575   5.178  21.364  0.00  0.00    +0.245 A 
ATOM     19  C   UNL     1      19.739   6.057  20.989  0.00  0.00    +0.204 A 
BRANCH  17  13
ATOM      3  N   UNL     1      22.687   3.051  20.773  0.00  0.00    -0.305 NA
ATOM     13  C   UNL     1      22.830   4.344  21.464  0.00  0.00    +0.143 C 
ATOM     14  C   UNL     1      24.068   5.005  20.840  0.00  0.00    +0.029 C 
ATOM     15  C   UNL     1      24.592   3.987  19.837  0.00  0.00    +0.017 C 
ATOM     16  C   UNL     1      24.025   2.674  20.330  0.00  0.00    +0.081 C 
ATOM     24  H   UNL     1      22.107   3.182  19.943  0.00  0.00    +0.123 HD
ENDBRANCH  17  13
ENDBRANCH  20  19
BRANCH  18   1
ATOM      1  O   UNL     1      14.668   6.935  18.964  0.00  0.00    -0.473 OA
BRANCH   1   7
ATOM      7  C   UNL     1      13.746   7.557  19.853  0.00  0.00    +0.175 C 
ATOM      8  C   UNL     1      12.586   6.605  20.136  0.00  0.00    +0.044 C 
ATOM      9  C   UNL     1      13.259   8.874  19.249  0.00  0.00    +0.044 C 
ATOM     10  C   UNL     1      11.520   7.262  21.009  0.00  0.00    +0.004 C 
ATOM     11  C   UNL     1      12.195   9.531  20.121  0.00  0.00    +0.004 C 
ATOM     12  C   UNL     1      11.035   8.578  20.406  0.00  0.00    +0.000 C 
ENDBRANCH   1   7
ENDBRANCH  18   1
TORSDOF 4
ENDMDL
MODEL 3
REMARK VINA RESULT:      -6.6     13.902     15.233
REMARK  Name = 45783594
REMARK  4 active torsions:
REMARK  status: ('A' for Active; 'I' for Inactive)
REMARK    1  A    between atoms: O_1  and  C_7
REMARK    2  A    between atoms: O_1  and  C_18
REMARK    3  A    between atoms: C_13  and  C_17
REMARK    4  A    between atoms: C_19  and  C_20
REMARK                            x       y       z     vdW  Elec       q    Type
REMARK                         _______ _______ _______ _____ _____    ______ ____
ROOT
ATOM      6  N   UNL     1      15.498   8.154   3.824  0.00  0.00    -0.221 NA
ATOM     18  C   UNL     1      16.244   8.394   4.925  0.00  0.00    +0.215 A 
ATOM     20  C   UNL     1      13.740   7.373   5.288  0.00  0.00    +0.041 A 
ATOM     21  C   UNL     1      15.815   8.155   6.220  0.00  0.00    +0.068 A 
ATOM     22  C   UNL     1      14.538   7.635   6.397  0.00  0.00    +0.018 A 
ATOM     23  C   UNL     1      14.262   7.648   4.035  0.00  0.00    +0.126 A 
ENDROOT
BRANCH  20  19
ATOM      2  O   UNL     1      10.419   6.207   5.031  0.00  0.00    -0.336 OA
ATOM      4  N   UNL     1      11.983   6.332   6.629  0.00  0.00    -0.190 NA
ATOM      5  N   UNL     1      11.540   6.798   4.434  0.00  0.00    -0.056 NA
ATOM     17  C   UNL     1      10.764   5.966   6.323  0.00  0.00    +0.245 A 
ATOM     19  C   UNL     1      12.420   6.837   5.439  0.00  0.00    +0.204 A 
BRANCH  17  13
ATOM      3  N   UNL     1      10.201   4.089   7.828  0.00  0.00    -0.305 NA
ATOM     13  C   UNL     1       9.710   5.322   7.193  0.00  0.00    +0.143 C 
ATOM     14  C   UNL     1       9.227   6.212   8.348  0.00  0.00    +0.029 C 
ATOM     15  C   UNL     1       9.438   5.376   9.601  0.00  0.00    +0.017 C 
ATOM     16  C   UNL     1       9.467   3.954   9.082  0.00  0.00    +0.081 C 
ATOM     24  H   UNL     1      11.190   4.204   8.054  0.00  0.00    +0.123 HD
ENDBRANCH  17  13
ENDBRANCH  20  19
BRANCH  18   1
ATOM      1  O   UNL     1      17.499   8.906   4.724  0.00  0.00    -0.473 OA
BRANCH   1   7
ATOM      7  C   UNL     1      18.585   8.173   5.281  0.00  0.00    +0.175 C 
ATOM      8  C   UNL     1      19.295   9.027   6.329  0.00  0.00    +0.044 C 
ATOM      9  C   UNL     1      19.538   7.742   4.167  0.00  0.00    +0.044 C 
ATOM     10  C   UNL     1      20.528   8.322   6.887  0.00  0.00    +0.004 C 
ATOM     11  C   UNL     1      20.770   7.037   4.723  0.00  0.00    +0.004 C 
ATOM     12  C   UNL     1      21.479   7.890   5.773  0.00  0.00    +0.000 C 
ENDBRANCH   1   7
ENDBRANCH  18   1
TORSDOF 4
ENDMDL
MODEL 4
REMARK VINA RESULT:      -6.5     28.830     31.404
REMARK  Name = 45783594
REMARK  4 active torsions:
REMARK  status: ('A' for Active; 'I' for Inactive)
REMARK    1  A    between atoms: O_1  and  C_7
REMARK    2  A    between atoms: O_1  and  C_18
REMARK    3  A    between atoms: C_13  and  C_17
REMARK    4  A    between atoms: C_19  and  C_20
REMARK                            x       y       z     vdW  Elec       q    Type
REMARK                         _______ _______ _______ _____ _____    ______ ____
ROOT
ATOM      6  N   UNL     1     -13.142   8.828  20.787  0.00  0.00    -0.221 NA
ATOM     18  C   UNL     1     -11.878   8.476  20.464  0.00  0.00    +0.215 A 
ATOM     20  C   UNL     1     -13.491   6.561  21.548  0.00  0.00    +0.041 A 
ATOM     21  C   UNL     1     -11.355   7.207  20.651  0.00  0.00    +0.068 A 
ATOM     22  C   UNL     1     -12.183   6.236  21.204  0.00  0.00    +0.018 A 
ATOM     23  C   UNL     1     -13.918   7.859  21.322  0.00  0.00    +0.126 A 
ENDROOT
BRANCH  20  19
ATOM      2  O   UNL     1     -15.931   4.147  22.368  0.00  0.00    -0.336 OA
ATOM      4  N   UNL     1     -14.237   5.170  23.415  0.00  0.00    -0.190 NA
ATOM      5  N   UNL     1     -15.361   5.014  21.428  0.00  0.00    -0.056 NA
ATOM     17  C   UNL     1     -15.212   4.302  23.509  0.00  0.00    +0.245 A 
ATOM     19  C   UNL     1     -14.368   5.581  22.120  0.00  0.00    +0.204 A 
BRANCH  17  13
ATOM      3  N   UNL     1     -16.048   4.293  25.835  0.00  0.00    -0.305 NA
ATOM     13  C   UNL     1     -15.635   3.463  24.692  0.00  0.00    +0.143 C 
ATOM     14  C   UNL     1     -16.829   2.540  24.406  0.00  0.00    +0.029 C 
ATOM     15  C   UNL     1     -17.856   2.886  25.473  0.00  0.00    +0.017 C 
ATOM     16  C   UNL     1     -17.030   3.509  26.577  0.00  0.00    +0.081 C 
ATOM     24  H   UNL     1     -16.515   5.131  25.484  0.00  0.00    +0.123 HD
ENDBRANCH  17  13
ENDBRANCH  20  19
BRANCH  18   1
ATOM      1  O   UNL     1     -11.082   9.449  19.921  0.00  0.00    -0.473 OA
BRANCH   1   7
ATOM      7  C   UNL     1     -11.305   9.767  18.551  0.00  0.00    +0.175 C 
ATOM      8  C   UNL     1     -10.226   9.111  17.691  0.00  0.00    +0.044 C 
ATOM      9  C   UNL     1     -11.321  11.285  18.372  0.00  0.00    +0.044 C 
ATOM     10  C   UNL     1     -10.364   9.501  16.223  0.00  0.00    +0.004 C 
ATOM     11  C   UNL     1     -11.459  11.675  16.905  0.00  0.00    +0.004 C 
ATOM     12  C   UNL     1     -10.382  11.018  16.044  0.00  0.00    +0.000 C 
ENDBRANCH   1   7
ENDBRANCH  18   1
TORSDOF 4
ENDMDL
MODEL 5
REMARK VINA RESULT:      -6.5     32.255     33.652
REMARK  Name = 45783594
REMARK  4 active torsions:
REMARK  status: ('A' for Active; 'I' for Inactive)
REMARK    1  A    between atoms: O_1  and  C_7
REMARK    2  A    between atoms: O_1  and  C_18
REMARK    3  A    between atoms: C_13  and  C_17
REMARK    4  A    between atoms: C_19  and  C_20
REMARK                            x       y       z     vdW  Elec       q    Type
REMARK                         _______ _______ _______ _____ _____    ______ ____
ROOT
ATOM      6  N   UNL     1     -13.228   7.525  33.956  0.00  0.00    -0.221 NA
ATOM     18  C   UNL     1     -13.314   6.975  35.188  0.00  0.00    +0.215 A 
ATOM     20  C   UNL     1     -14.119   5.462  33.064  0.00  0.00    +0.041 A 
ATOM     21  C   UNL     1     -13.784   5.695  35.435  0.00  0.00    +0.068 A 
ATOM     22  C   UNL     1     -14.193   4.931  34.348  0.00  0.00    +0.018 A 
ATOM     23  C   UNL     1     -13.634   6.752  32.924  0.00  0.00    +0.126 A 
ENDROOT
BRANCH  20  19
ATOM      2  O   UNL     1     -15.503   4.102  30.116  0.00  0.00    -0.336 OA
ATOM      4  N   UNL     1     -14.055   3.441  31.692  0.00  0.00    -0.190 NA
ATOM      5  N   UNL     1     -15.405   5.164  31.025  0.00  0.00    -0.056 NA
ATOM     17  C   UNL     1     -14.679   3.129  30.584  0.00  0.00    +0.245 A 
ATOM     19  C   UNL     1     -14.533   4.698  31.924  0.00  0.00    +0.204 A 
BRANCH  17  13
ATOM      3  N   UNL     1     -13.315   1.171  29.941  0.00  0.00    -0.305 NA
ATOM     13  C   UNL     1     -14.605   1.859  29.769  0.00  0.00    +0.143 C 
ATOM     14  C   UNL     1     -15.674   0.819  30.138  0.00  0.00    +0.029 C 
ATOM     15  C   UNL     1     -14.895  -0.448  30.458  0.00  0.00    +0.017 C 
ATOM     16  C   UNL     1     -13.579  -0.250  29.737  0.00  0.00    +0.081 C 
ATOM     24  H   UNL     1     -12.998   1.296  30.904  0.00  0.00    +0.123 HD
ENDBRANCH  17  13
ENDBRANCH  20  19
BRANCH  18   1
ATOM      1  O   UNL     1     -12.904   7.747  36.242  0.00  0.00    -0.473 OA
BRANCH   1   7
ATOM      7  C   UNL     1     -11.563   8.224  36.204  0.00  0.00    +0.175 C 
ATOM      8  C   UNL     1     -10.748   7.551  37.305  0.00  0.00    +0.044 C 
ATOM      9  C   UNL     1     -11.556   9.746  36.348  0.00  0.00    +0.044 C 
ATOM     10  C   UNL     1      -9.326   8.101  37.369  0.00  0.00    +0.004 C 
ATOM     11  C   UNL     1     -10.136  10.296  36.410  0.00  0.00    +0.004 C 
ATOM     12  C   UNL     1      -9.319   9.622  37.511  0.00  0.00    +0.000 C 
ENDBRANCH   1   7
ENDBRANCH  18   1
TORSDOF 4
ENDMDL
MODEL 6
REMARK VINA RESULT:      -6.5     29.323     32.331
REMARK  Name = 45783594
REMARK  4 active torsions:
REMARK  status: ('A' for Active; 'I' for Inactive)
REMARK    1  A    between atoms: O_1  and  C_7
REMARK    2  A    between atoms: O_1  and  C_18
REMARK    3  A    between atoms: C_13  and  C_17
REMARK    4  A    between atoms: C_19  and  C_20
REMARK                            x       y       z     vdW  Elec       q    Type
REMARK                         _______ _______ _______ _____ _____    ______ ____
ROOT
ATOM      6  N   UNL     1     -15.470   7.070  20.943  0.00  0.00    -0.221 NA
ATOM     18  C   UNL     1     -14.141   7.133  20.703  0.00  0.00    +0.215 A 
ATOM     20  C   UNL     1     -15.030   5.201  22.412  0.00  0.00    +0.041 A 
ATOM     21  C   UNL     1     -13.209   6.280  21.271  0.00  0.00    +0.068 A 
ATOM     22  C   UNL     1     -13.670   5.298  22.140  0.00  0.00    +0.018 A 
ATOM     23  C   UNL     1     -15.881   6.103  21.793  0.00  0.00    +0.126 A 
ENDROOT
BRANCH  20  19
ATOM      2  O   UNL     1     -16.378   2.390  24.065  0.00  0.00    -0.336 OA
ATOM      4  N   UNL     1     -15.562   4.390  24.655  0.00  0.00    -0.190 NA
ATOM      5  N   UNL     1     -16.008   3.026  22.874  0.00  0.00    -0.056 NA
ATOM     17  C   UNL     1     -16.084   3.262  25.065  0.00  0.00    +0.245 A 
ATOM     19  C   UNL     1     -15.535   4.199  23.304  0.00  0.00    +0.204 A 
BRANCH  17  13
ATOM      3  N   UNL     1     -15.435   3.346  27.448  0.00  0.00    -0.305 NA
ATOM     13  C   UNL     1     -16.394   2.805  26.471  0.00  0.00    +0.143 C 
ATOM     14  C   UNL     1     -17.778   3.239  26.976  0.00  0.00    +0.029 C 
ATOM     15  C   UNL     1     -17.507   3.980  28.276  0.00  0.00    +0.017 C 
ATOM     16  C   UNL     1     -16.156   3.456  28.712  0.00  0.00    +0.081 C 
ATOM     24  H   UNL     1     -15.163   4.287  27.159  0.00  0.00    +0.123 HD
ENDBRANCH  17  13
ENDBRANCH  20  19
BRANCH  18   1
ATOM      1  O   UNL     1     -13.712   8.108  19.842  0.00  0.00    -0.473 OA
BRANCH   1   7
ATOM      7  C   UNL     1     -12.331   8.096  19.498  0.00  0.00    +0.175 C 
ATOM      8  C   UNL     1     -11.670   9.385  19.981  0.00  0.00    +0.044 C 
ATOM      9  C   UNL     1     -12.180   7.918  17.987  0.00  0.00    +0.044 C 
ATOM     10  C   UNL     1     -10.208   9.463  19.550  0.00  0.00    +0.004 C 
ATOM     11  C   UNL     1     -10.720   7.995  17.556  0.00  0.00    +0.004 C 
ATOM     12  C   UNL     1     -10.058   9.284  18.041  0.00  0.00    +0.000 C 
ENDBRANCH   1   7
ENDBRANCH  18   1
TORSDOF 4
ENDMDL
MODEL 7
REMARK VINA RESULT:      -6.4     27.631     29.838
REMARK  Name = 45783594
REMARK  4 active torsions:
REMARK  status: ('A' for Active; 'I' for Inactive)
REMARK    1  A    between atoms: O_1  and  C_7
REMARK    2  A    between atoms: O_1  and  C_18
REMARK    3  A    between atoms: C_13  and  C_17
REMARK    4  A    between atoms: C_19  and  C_20
REMARK                            x       y       z     vdW  Elec       q    Type
REMARK                         _______ _______ _______ _____ _____    ______ ____
ROOT
ATOM      6  N   UNL     1      -5.339 -12.180  14.702  0.00  0.00    -0.221 NA
ATOM     18  C   UNL     1      -4.178 -11.488  14.683  0.00  0.00    +0.215 A 
ATOM     20  C   UNL     1      -5.729 -11.304  16.920  0.00  0.00    +0.041 A 
ATOM     21  C   UNL     1      -3.732 -10.695  15.728  0.00  0.00    +0.068 A 
ATOM     22  C   UNL     1      -4.527 -10.606  16.864  0.00  0.00    +0.018 A 
ATOM     23  C   UNL     1      -6.086 -12.070  15.823  0.00  0.00    +0.126 A 
ENDROOT
BRANCH  20  19
ATOM      2  O   UNL     1      -7.251 -10.976  20.088  0.00  0.00    -0.336 OA
ATOM      4  N   UNL     1      -7.912 -11.471  18.006  0.00  0.00    -0.190 NA
ATOM      5  N   UNL     1      -6.099 -10.930  19.292  0.00  0.00    -0.056 NA
ATOM     17  C   UNL     1      -8.272 -11.303  19.253  0.00  0.00    +0.245 A 
ATOM     19  C   UNL     1      -6.570 -11.232  18.079  0.00  0.00    +0.204 A 
BRANCH  17  13
ATOM      3  N   UNL     1     -10.085 -10.144  20.469  0.00  0.00    -0.305 NA
ATOM     13  C   UNL     1      -9.643 -11.417  19.878  0.00  0.00    +0.143 C 
ATOM     14  C   UNL     1     -10.748 -11.813  18.887  0.00  0.00    +0.029 C 
ATOM     15  C   UNL     1     -11.803 -10.725  19.023  0.00  0.00    +0.017 C 
ATOM     16  C   UNL     1     -11.543 -10.143  20.395  0.00  0.00    +0.081 C 
ATOM     24  H   UNL     1      -9.741  -9.374  19.893  0.00  0.00    +0.123 HD
ENDBRANCH  17  13
ENDBRANCH  20  19
BRANCH  18   1
ATOM      1  O   UNL     1      -3.412 -11.593  13.553  0.00  0.00    -0.473 OA
BRANCH   1   7
ATOM      7  C   UNL     1      -3.335 -10.438  12.723  0.00  0.00    +0.175 C 
ATOM      8  C   UNL     1      -4.600 -10.332  11.874  0.00  0.00    +0.044 C 
ATOM      9  C   UNL     1      -2.079 -10.513  11.855  0.00  0.00    +0.044 C 
ATOM     10  C   UNL     1      -4.524  -9.164  10.896  0.00  0.00    +0.004 C 
ATOM     11  C   UNL     1      -2.002  -9.346  10.877  0.00  0.00    +0.004 C 
ATOM     12  C   UNL     1      -3.268  -9.238  10.030  0.00  0.00    +0.000 C 
ENDBRANCH   1   7
ENDBRANCH  18   1
TORSDOF 4
ENDMDL
MODEL 8
REMARK VINA RESULT:      -6.1     21.835     25.710
REMARK  Name = 45783594
REMARK  4 active torsions:
REMARK  status: ('A' for Active; 'I' for Inactive)
REMARK    1  A    between atoms: O_1  and  C_7
REMARK    2  A    between atoms: O_1  and  C_18
REMARK    3  A    between atoms: C_13  and  C_17
REMARK    4  A    between atoms: C_19  and  C_20
REMARK                            x       y       z     vdW  Elec       q    Type
REMARK                         _______ _______ _______ _____ _____    ______ ____
ROOT
ATOM      6  N   UNL     1      -0.498   7.878  37.815  0.00  0.00    -0.221 NA
ATOM     18  C   UNL     1      -1.752   7.403  37.981  0.00  0.00    +0.215 A 
ATOM     20  C   UNL     1      -1.447   9.714  36.563  0.00  0.00    +0.041 A 
ATOM     21  C   UNL     1      -2.887   8.018  37.477  0.00  0.00    +0.068 A 
ATOM     22  C   UNL     1      -2.723   9.195  36.755  0.00  0.00    +0.018 A 
ATOM     23  C   UNL     1      -0.378   9.024  37.108  0.00  0.00    +0.126 A 
ENDROOT
BRANCH  20  19
ATOM      2  O   UNL     1      -1.580  12.814  34.881  0.00  0.00    -0.336 OA
ATOM      4  N   UNL     1      -0.043  11.229  35.257  0.00  0.00    -0.190 NA
ATOM      5  N   UNL     1      -2.218  11.826  35.641  0.00  0.00    -0.056 NA
ATOM     17  C   UNL     1      -0.304  12.384  34.699  0.00  0.00    +0.245 A 
ATOM     19  C   UNL     1      -1.247  10.925  35.823  0.00  0.00    +0.204 A 
BRANCH  17  13
ATOM      3  N   UNL     1       1.070  12.640  32.660  0.00  0.00    -0.305 NA
ATOM     13  C   UNL     1       0.604  13.287  33.897  0.00  0.00    +0.143 C 
ATOM     14  C   UNL     1      -0.060  14.597  33.447  0.00  0.00    +0.029 C 
ATOM     15  C   UNL     1       0.123  14.631  31.937  0.00  0.00    +0.017 C 
ATOM     16  C   UNL     1       1.303  13.713  31.699  0.00  0.00    +0.081 C 
ATOM     24  H   UNL     1       0.322  12.048  32.294  0.00  0.00    +0.123 HD
ENDBRANCH  17  13
ENDBRANCH  20  19
BRANCH  18   1
ATOM      1  O   UNL     1      -1.888   6.243  38.695  0.00  0.00    -0.473 OA
BRANCH   1   7
ATOM      7  C   UNL     1      -1.605   6.312  40.089  0.00  0.00    +0.175 C 
ATOM      8  C   UNL     1      -0.724   5.132  40.493  0.00  0.00    +0.044 C 
ATOM      9  C   UNL     1      -2.914   6.333  40.878  0.00  0.00    +0.044 C 
ATOM     10  C   UNL     1      -0.473   5.106  41.997  0.00  0.00    +0.004 C 
ATOM     11  C   UNL     1      -2.664   6.308  42.381  0.00  0.00    +0.004 C 
ATOM     12  C   UNL     1      -1.781   5.129  42.785  0.00  0.00    +0.000 C 
ENDBRANCH   1   7
ENDBRANCH  18   1
TORSDOF 4
ENDMDL
MODEL 9
REMARK VINA RESULT:      -6.0     29.516     32.651
REMARK  Name = 45783594
REMARK  4 active torsions:
REMARK  status: ('A' for Active; 'I' for Inactive)
REMARK    1  A    between atoms: O_1  and  C_7
REMARK    2  A    between atoms: O_1  and  C_18
REMARK    3  A    between atoms: C_13  and  C_17
REMARK    4  A    between atoms: C_19  and  C_20
REMARK                            x       y       z     vdW  Elec       q    Type
REMARK                         _______ _______ _______ _____ _____    ______ ____
ROOT
ATOM      6  N   UNL     1     -12.950  -7.720  15.710  0.00  0.00    -0.221 NA
ATOM     18  C   UNL     1     -12.353  -6.542  15.421  0.00  0.00    +0.215 A 
ATOM     20  C   UNL     1     -11.015  -8.277  17.047  0.00  0.00    +0.041 A 
ATOM     21  C   UNL     1     -11.109  -6.165  15.901  0.00  0.00    +0.068 A 
ATOM     22  C   UNL     1     -10.434  -7.055  16.728  0.00  0.00    +0.018 A 
ATOM     23  C   UNL     1     -12.264  -8.560  16.517  0.00  0.00    +0.126 A 
ENDROOT
BRANCH  20  19
ATOM      2  O   UNL     1      -9.900 -10.552  19.505  0.00  0.00    -0.336 OA
ATOM      4  N   UNL     1      -9.091  -9.674  17.610  0.00  0.00    -0.190 NA
ATOM      5  N   UNL     1     -10.894  -9.694  19.018  0.00  0.00    -0.056 NA
ATOM     17  C   UNL     1      -8.873 -10.480  18.619  0.00  0.00    +0.245 A 
ATOM     19  C   UNL     1     -10.343  -9.215  17.898  0.00  0.00    +0.204 A 
BRANCH  17  13
ATOM      3  N   UNL     1      -7.116 -11.963  17.713  0.00  0.00    -0.305 NA
ATOM     13  C   UNL     1      -7.659 -11.326  18.924  0.00  0.00    +0.143 C 
ATOM     14  C   UNL     1      -6.489 -10.540  19.532  0.00  0.00    +0.029 C 
ATOM     15  C   UNL     1      -5.305 -10.832  18.622  0.00  0.00    +0.017 C 
ATOM     16  C   UNL     1      -5.685 -12.132  17.947  0.00  0.00    +0.081 C 
ATOM     24  H   UNL     1      -7.231 -11.324  16.923  0.00  0.00    +0.123 HD
ENDBRANCH  17  13
ENDBRANCH  20  19
BRANCH  18   1
ATOM      1  O   UNL     1     -13.038  -5.684  14.603  0.00  0.00    -0.473 OA
BRANCH   1   7
ATOM      7  C   UNL     1     -12.389  -5.293  13.398  0.00  0.00    +0.175 C 
ATOM      8  C   UNL     1     -12.779  -3.859  13.047  0.00  0.00    +0.044 C 
ATOM      9  C   UNL     1     -12.756  -6.267  12.278  0.00  0.00    +0.044 C 
ATOM     10  C   UNL     1     -12.185  -3.426  11.710  0.00  0.00    +0.004 C 
ATOM     11  C   UNL     1     -12.162  -5.835  10.942  0.00  0.00    +0.004 C 
ATOM     12  C   UNL     1     -12.550  -4.400  10.592  0.00  0.00    +0.000 C 
ENDBRANCH   1   7
ENDBRANCH  18   1
TORSDOF 4
ENDMDL
MODEL 10
REMARK VINA RESULT:      -6.0     27.883     32.349
REMARK  Name = 45783594
REMARK  4 active torsions:
REMARK  status: ('A' for Active; 'I' for Inactive)
REMARK    1  A    between atoms: O_1  and  C_7
REMARK    2  A    between atoms: O_1  and  C_18
REMARK    3  A    between atoms: C_13  and  C_17
REMARK    4  A    between atoms: C_19  and  C_20
REMARK                            x       y       z     vdW  Elec       q    Type
REMARK                         _______ _______ _______ _____ _____    ______ ____
ROOT
ATOM      6  N   UNL     1     -11.948  -8.258  14.128  0.00  0.00    -0.221 NA
ATOM     18  C   UNL     1     -12.340  -7.046  14.579  0.00  0.00    +0.215 A 
ATOM     20  C   UNL     1     -10.113  -8.156  15.698  0.00  0.00    +0.041 A 
ATOM     21  C   UNL     1     -11.682  -6.338  15.571  0.00  0.00    +0.068 A 
ATOM     22  C   UNL     1     -10.548  -6.910  16.136  0.00  0.00    +0.018 A 
ATOM     23  C   UNL     1     -10.842  -8.783  14.700  0.00  0.00    +0.126 A 
ENDROOT
BRANCH  20  19
ATOM      2  O   UNL     1      -7.456  -9.419  17.647  0.00  0.00    -0.336 OA
ATOM      4  N   UNL     1      -8.071  -9.484  15.494  0.00  0.00    -0.190 NA
ATOM      5  N   UNL     1      -8.647  -8.688  17.561  0.00  0.00    -0.056 NA
ATOM     17  C   UNL     1      -7.187  -9.851  16.387  0.00  0.00    +0.245 A 
ATOM     19  C   UNL     1      -8.947  -8.771  16.261  0.00  0.00    +0.204 A 
BRANCH  17  13
ATOM      3  N   UNL     1      -4.730  -9.835  16.118  0.00  0.00    -0.305 NA
ATOM     13  C   UNL     1      -5.934 -10.677  16.211  0.00  0.00    +0.143 C 
ATOM     14  C   UNL     1      -5.663 -11.652  17.366  0.00  0.00    +0.029 C 
ATOM     15  C   UNL     1      -4.255 -11.319  17.837  0.00  0.00    +0.017 C 
ATOM     16  C   UNL     1      -3.628 -10.638  16.639  0.00  0.00    +0.081 C 
ATOM     24  H   UNL     1      -4.845  -9.025  16.730  0.00  0.00    +0.123 HD
ENDBRANCH  17  13
ENDBRANCH  20  19
BRANCH  18   1
ATOM      1  O   UNL     1     -13.459  -6.503  14.006  0.00  0.00    -0.473 OA
BRANCH   1   7
ATOM      7  C   UNL     1     -13.347  -5.169  13.521  0.00  0.00    +0.175 C 
ATOM      8  C   UNL     1     -14.738  -4.608  13.236  0.00  0.00    +0.044 C 
ATOM      9  C   UNL     1     -12.465  -5.150  12.272  0.00  0.00    +0.044 C 
ATOM     10  C   UNL     1     -14.667  -3.214  12.621  0.00  0.00    +0.004 C 
ATOM     11  C   UNL     1     -12.393  -3.757  11.658  0.00  0.00    +0.004 C 
ATOM     12  C   UNL     1     -13.785  -3.195  11.374  0.00  0.00    +0.000 C 
ENDBRANCH   1   7
ENDBRANCH  18   1
TORSDOF 4
ENDMDL
