MODEL 1
REMARK VINA RESULT:      -8.5      0.000      0.000
REMARK  Name = 11865991
REMARK  5 active torsions:
REMARK  status: ('A' for Active; 'I' for Inactive)
REMARK    1  A    between atoms: O_1  and  C_8
REMARK    2  A    between atoms: O_1  and  C_17
REMARK    3  A    between atoms: C_16  and  C_19
REMARK    4  A    between atoms: C_20  and  C_23
REMARK    5  A    between atoms: C_22  and  C_26
REMARK                            x       y       z     vdW  Elec       q    Type
REMARK                         _______ _______ _______ _____ _____    ______ ____
ROOT
ATOM      2  O   UNL     1      12.150   7.204  18.794  0.00  0.00    -0.273 OA
ATOM      3  O   UNL     1      15.989   9.112  21.871  0.00  0.00    -0.270 OA
ATOM      4  N   UNL     1      14.000   8.063  21.392  0.00  0.00    -0.283 N 
ATOM      5  N   UNL     1      14.395   6.813  18.755  0.00  0.00    -0.283 N 
ATOM      6  C   UNL     1      13.241   6.922  20.923  0.00  0.00    +0.165 C 
ATOM      7  C   UNL     1      11.879   7.070  21.599  0.00  0.00    +0.065 C 
ATOM      8  C   UNL     1      11.735   8.578  21.793  0.00  0.00    +0.137 C 
ATOM      9  C   UNL     1      13.159   9.015  22.102  0.00  0.00    +0.140 C 
ATOM     10  C   UNL     1      13.202   7.032  19.413  0.00  0.00    +0.238 C 
ATOM     11  C   UNL     1      15.370   8.201  21.323  0.00  0.00    +0.249 C 
ATOM     12  C   UNL     1      16.132   7.209  20.520  0.00  0.00    +0.059 A 
ATOM     13  C   UNL     1      15.688   6.665  19.303  0.00  0.00    +0.046 A 
ATOM     14  C   UNL     1      17.447   6.955  20.952  0.00  0.00    +0.023 A 
ATOM     15  C   UNL     1      16.595   5.931  18.518  0.00  0.00    +0.024 A 
ATOM     16  C   UNL     1      18.318   6.187  20.182  0.00  0.00    -0.017 A 
ATOM     18  C   UNL     1      17.896   5.685  18.958  0.00  0.00    +0.010 A 
ATOM     27  H   UNL     1      14.317   6.656  17.752  0.00  0.00    +0.155 HD
ENDROOT
BRANCH  16  19
ATOM     19  C   UNL     1      19.664   5.931  20.645  0.00  0.00    -0.015 A 
ATOM     20  C   UNL     1      20.432   6.939  21.234  0.00  0.00    -0.040 A 
ATOM     21  C   UNL     1      20.198   4.649  20.498  0.00  0.00    +0.009 A 
ATOM     22  C   UNL     1      21.727   6.664  21.672  0.00  0.00    -0.047 A 
ATOM     23  C   UNL     1      19.875   8.319  21.399  0.00  0.00    +0.044 C 
ATOM     24  C   UNL     1      21.493   4.376  20.936  0.00  0.00    +0.001 A 
ATOM     25  C   UNL     1      22.258   5.383  21.523  0.00  0.00    +0.003 A 
ATOM     26  C   UNL     1      22.569   7.725  22.304  0.00  0.00    +0.044 C 
ENDBRANCH  16  19
BRANCH   8   1
ATOM      1  O   UNL     1      10.867   8.880  22.866  0.00  0.00    -0.378 OA
ATOM     17  C   UNL     1      11.016  10.227  23.305  0.00  0.00    +0.194 C 
ENDBRANCH   8   1
TORSDOF 2
ENDMDL
MODEL 2
REMARK VINA RESULT:      -8.0     30.334     32.926
REMARK  Name = 11865991
REMARK  5 active torsions:
REMARK  status: ('A' for Active; 'I' for Inactive)
REMARK    1  A    between atoms: O_1  and  C_8
REMARK    2  A    between atoms: O_1  and  C_17
REMARK    3  A    between atoms: C_16  and  C_19
REMARK    4  A    between atoms: C_20  and  C_23
REMARK    5  A    between atoms: C_22  and  C_26
REMARK                            x       y       z     vdW  Elec       q    Type
REMARK                         _______ _______ _______ _____ _____    ______ ____
ROOT
ATOM      2  O   UNL     1     -17.346   3.301  29.246  0.00  0.00    -0.273 OA
ATOM      3  O   UNL     1     -14.305   3.212  33.558  0.00  0.00    -0.270 OA
ATOM      4  N   UNL     1     -14.902   2.723  31.392  0.00  0.00    -0.283 N 
ATOM      5  N   UNL     1     -16.515   5.018  30.493  0.00  0.00    -0.283 N 
ATOM      6  C   UNL     1     -15.068   3.092  30.001  0.00  0.00    +0.165 C 
ATOM      7  C   UNL     1     -14.978   1.768  29.245  0.00  0.00    +0.065 C 
ATOM      8  C   UNL     1     -15.481   0.741  30.257  0.00  0.00    +0.137 C 
ATOM      9  C   UNL     1     -14.953   1.281  31.577  0.00  0.00    +0.140 C 
ATOM     10  C   UNL     1     -16.416   3.775  29.903  0.00  0.00    +0.238 C 
ATOM     11  C   UNL     1     -14.589   3.586  32.420  0.00  0.00    +0.249 C 
ATOM     12  C   UNL     1     -14.626   5.046  32.144  0.00  0.00    +0.059 A 
ATOM     13  C   UNL     1     -15.580   5.674  31.325  0.00  0.00    +0.046 A 
ATOM     14  C   UNL     1     -13.740   5.834  32.902  0.00  0.00    +0.023 A 
ATOM     15  C   UNL     1     -15.663   7.077  31.335  0.00  0.00    +0.024 A 
ATOM     16  C   UNL     1     -13.808   7.225  32.864  0.00  0.00    -0.017 A 
ATOM     18  C   UNL     1     -14.778   7.848  32.090  0.00  0.00    +0.010 A 
ATOM     27  H   UNL     1     -17.331   5.564  30.226  0.00  0.00    +0.155 HD
ENDROOT
BRANCH  16  19
ATOM     19  C   UNL     1     -12.884   8.019  33.645  0.00  0.00    -0.015 A 
ATOM     20  C   UNL     1     -11.883   8.777  33.034  0.00  0.00    -0.040 A 
ATOM     21  C   UNL     1     -13.005   8.021  35.036  0.00  0.00    +0.009 A 
ATOM     22  C   UNL     1     -11.006   9.532  33.812  0.00  0.00    -0.047 A 
ATOM     23  C   UNL     1     -11.739   8.784  31.544  0.00  0.00    +0.044 C 
ATOM     24  C   UNL     1     -12.128   8.777  35.813  0.00  0.00    +0.001 A 
ATOM     25  C   UNL     1     -11.128   9.533  35.201  0.00  0.00    +0.003 A 
ATOM     26  C   UNL     1      -9.925  10.351  33.183  0.00  0.00    +0.044 C 
ENDBRANCH  16  19
BRANCH   8   1
ATOM      1  O   UNL     1     -14.961  -0.546  29.989  0.00  0.00    -0.378 OA
ATOM     17  C   UNL     1     -13.549  -0.518  29.802  0.00  0.00    +0.194 C 
ENDBRANCH   8   1
TORSDOF 2
ENDMDL
MODEL 3
REMARK VINA RESULT:      -7.9     27.434     29.371
REMARK  Name = 11865991
REMARK  5 active torsions:
REMARK  status: ('A' for Active; 'I' for Inactive)
REMARK    1  A    between atoms: O_1  and  C_8
REMARK    2  A    between atoms: O_1  and  C_17
REMARK    3  A    between atoms: C_16  and  C_19
REMARK    4  A    between atoms: C_20  and  C_23
REMARK    5  A    between atoms: C_22  and  C_26
REMARK                            x       y       z     vdW  Elec       q    Type
REMARK                         _______ _______ _______ _____ _____    ______ ____
ROOT
ATOM      2  O   UNL     1      -3.655 -11.798  19.029  0.00  0.00    -0.273 OA
ATOM      3  O   UNL     1      -7.015 -12.331  14.994  0.00  0.00    -0.270 OA
ATOM      4  N   UNL     1      -6.239 -11.500  16.993  0.00  0.00    -0.283 N 
ATOM      5  N   UNL     1      -3.303 -11.591  16.786  0.00  0.00    -0.283 N 
ATOM      6  C   UNL     1      -5.354 -10.651  17.764  0.00  0.00    +0.165 C 
ATOM      7  C   UNL     1      -6.107 -10.404  19.069  0.00  0.00    +0.065 C 
ATOM      8  C   UNL     1      -6.971 -11.654  19.228  0.00  0.00    +0.137 C 
ATOM      9  C   UNL     1      -7.354 -11.984  17.794  0.00  0.00    +0.140 C 
ATOM     10  C   UNL     1      -4.062 -11.425  17.926  0.00  0.00    +0.238 C 
ATOM     11  C   UNL     1      -6.155 -11.729  15.637  0.00  0.00    +0.249 C 
ATOM     12  C   UNL     1      -4.945 -11.248  14.921  0.00  0.00    +0.059 A 
ATOM     13  C   UNL     1      -3.643 -11.284  15.450  0.00  0.00    +0.046 A 
ATOM     14  C   UNL     1      -5.132 -10.900  13.570  0.00  0.00    +0.023 A 
ATOM     15  C   UNL     1      -2.557 -11.033  14.594  0.00  0.00    +0.024 A 
ATOM     16  C   UNL     1      -4.045 -10.609  12.749  0.00  0.00    -0.017 A 
ATOM     18  C   UNL     1      -2.755 -10.687  13.257  0.00  0.00    +0.010 A 
ATOM     27  H   UNL     1      -2.345 -11.897  16.941  0.00  0.00    +0.155 HD
ENDROOT
BRANCH  16  19
ATOM     19  C   UNL     1      -4.258 -10.247  11.364  0.00  0.00    -0.015 A 
ATOM     20  C   UNL     1      -4.164 -11.197  10.344  0.00  0.00    -0.040 A 
ATOM     21  C   UNL     1      -4.564  -8.921  11.051  0.00  0.00    +0.009 A 
ATOM     22  C   UNL     1      -4.373 -10.820   9.018  0.00  0.00    -0.047 A 
ATOM     23  C   UNL     1      -3.836 -12.622  10.663  0.00  0.00    +0.044 C 
ATOM     24  C   UNL     1      -4.773  -8.546   9.725  0.00  0.00    +0.001 A 
ATOM     25  C   UNL     1      -4.678  -9.495   8.708  0.00  0.00    +0.003 A 
ATOM     26  C   UNL     1      -4.277 -11.816   7.908  0.00  0.00    +0.044 C 
ENDBRANCH  16  19
BRANCH   8   1
ATOM      1  O   UNL     1      -8.116 -11.394  20.014  0.00  0.00    -0.378 OA
ATOM     17  C   UNL     1      -9.268 -11.158  19.209  0.00  0.00    +0.194 C 
ENDBRANCH   8   1
TORSDOF 2
ENDMDL
MODEL 4
REMARK VINA RESULT:      -7.7     16.618     19.383
REMARK  Name = 11865991
REMARK  5 active torsions:
REMARK  status: ('A' for Active; 'I' for Inactive)
REMARK    1  A    between atoms: O_1  and  C_8
REMARK    2  A    between atoms: O_1  and  C_17
REMARK    3  A    between atoms: C_16  and  C_19
REMARK    4  A    between atoms: C_20  and  C_23
REMARK    5  A    between atoms: C_22  and  C_26
REMARK                            x       y       z     vdW  Elec       q    Type
REMARK                         _______ _______ _______ _____ _____    ______ ____
ROOT
ATOM      2  O   UNL     1      12.683   7.574   7.092  0.00  0.00    -0.273 OA
ATOM      3  O   UNL     1      10.201   3.636   4.606  0.00  0.00    -0.270 OA
ATOM      4  N   UNL     1      10.382   5.514   5.921  0.00  0.00    -0.283 N 
ATOM      5  N   UNL     1      12.739   6.954   4.899  0.00  0.00    -0.283 N 
ATOM      6  C   UNL     1      10.588   6.938   6.089  0.00  0.00    +0.165 C 
ATOM      7  C   UNL     1       9.897   7.266   7.411  0.00  0.00    +0.065 C 
ATOM      8  C   UNL     1       9.995   5.963   8.201  0.00  0.00    +0.137 C 
ATOM      9  C   UNL     1       9.838   4.902   7.124  0.00  0.00    +0.140 C 
ATOM     10  C   UNL     1      12.087   7.150   6.099  0.00  0.00    +0.238 C 
ATOM     11  C   UNL     1      10.534   4.813   4.744  0.00  0.00    +0.249 C 
ATOM     12  C   UNL     1      11.159   5.511   3.590  0.00  0.00    +0.059 A 
ATOM     13  C   UNL     1      12.227   6.419   3.696  0.00  0.00    +0.046 A 
ATOM     14  C   UNL     1      10.741   5.081   2.317  0.00  0.00    +0.023 A 
ATOM     15  C   UNL     1      12.891   6.824   2.525  0.00  0.00    +0.024 A 
ATOM     16  C   UNL     1      11.382   5.531   1.164  0.00  0.00    -0.017 A 
ATOM     18  C   UNL     1      12.466   6.392   1.268  0.00  0.00    +0.010 A 
ATOM     27  H   UNL     1      13.687   7.321   4.853  0.00  0.00    +0.155 HD
ENDROOT
BRANCH  16  19
ATOM     19  C   UNL     1      10.935   5.083  -0.137  0.00  0.00    -0.015 A 
ATOM     20  C   UNL     1      11.555   4.014  -0.789  0.00  0.00    -0.040 A 
ATOM     21  C   UNL     1       9.861   5.737  -0.744  0.00  0.00    +0.009 A 
ATOM     22  C   UNL     1      11.103   3.604  -2.042  0.00  0.00    -0.047 A 
ATOM     23  C   UNL     1      12.708   3.303  -0.152  0.00  0.00    +0.044 C 
ATOM     24  C   UNL     1       9.409   5.325  -1.997  0.00  0.00    +0.001 A 
ATOM     25  C   UNL     1      10.031   4.259  -2.647  0.00  0.00    +0.003 A 
ATOM     26  C   UNL     1      11.750   2.464  -2.762  0.00  0.00    +0.044 C 
ENDBRANCH  16  19
BRANCH   8   1
ATOM      1  O   UNL     1       8.967   5.865   9.166  0.00  0.00    -0.378 OA
ATOM     17  C   UNL     1       9.122   4.714   9.991  0.00  0.00    +0.194 C 
ENDBRANCH   8   1
TORSDOF 2
ENDMDL
MODEL 5
REMARK VINA RESULT:      -7.4     26.891     29.910
REMARK  Name = 11865991
REMARK  5 active torsions:
REMARK  status: ('A' for Active; 'I' for Inactive)
REMARK    1  A    between atoms: O_1  and  C_8
REMARK    2  A    between atoms: O_1  and  C_17
REMARK    3  A    between atoms: C_16  and  C_19
REMARK    4  A    between atoms: C_20  and  C_23
REMARK    5  A    between atoms: C_22  and  C_26
REMARK                            x       y       z     vdW  Elec       q    Type
REMARK                         _______ _______ _______ _____ _____    ______ ____
ROOT
ATOM      2  O   UNL     1      -0.965 -11.015  15.376  0.00  0.00    -0.273 OA
ATOM      3  O   UNL     1      -6.048  -9.724  14.785  0.00  0.00    -0.270 OA
ATOM      4  N   UNL     1      -4.085 -10.824  14.309  0.00  0.00    -0.283 N 
ATOM      5  N   UNL     1      -2.673 -11.045  16.885  0.00  0.00    -0.283 N 
ATOM      6  C   UNL     1      -3.089 -11.837  14.595  0.00  0.00    +0.165 C 
ATOM      7  C   UNL     1      -2.440 -12.122  13.242  0.00  0.00    +0.065 C 
ATOM      8  C   UNL     1      -2.593 -10.803  12.485  0.00  0.00    +0.137 C 
ATOM      9  C   UNL     1      -3.946 -10.297  12.960  0.00  0.00    +0.140 C 
ATOM     10  C   UNL     1      -2.154 -11.233  15.620  0.00  0.00    +0.238 C 
ATOM     11  C   UNL     1      -5.137 -10.477  15.129  0.00  0.00    +0.249 C 
ATOM     12  C   UNL     1      -5.154 -11.021  16.512  0.00  0.00    +0.059 A 
ATOM     13  C   UNL     1      -4.012 -11.183  17.315  0.00  0.00    +0.046 A 
ATOM     14  C   UNL     1      -6.428 -11.215  17.077  0.00  0.00    +0.023 A 
ATOM     15  C   UNL     1      -4.178 -11.472  18.681  0.00  0.00    +0.024 A 
ATOM     16  C   UNL     1      -6.572 -11.547  18.423  0.00  0.00    -0.017 A 
ATOM     18  C   UNL     1      -5.447 -11.663  19.229  0.00  0.00    +0.010 A 
ATOM     27  H   UNL     1      -1.988 -10.865  17.615  0.00  0.00    +0.155 HD
ENDROOT
BRANCH  16  19
ATOM     19  C   UNL     1      -7.890 -11.748  18.984  0.00  0.00    -0.015 A 
ATOM     20  C   UNL     1      -8.899 -10.795  18.826  0.00  0.00    -0.040 A 
ATOM     21  C   UNL     1      -8.150 -12.922  19.695  0.00  0.00    +0.009 A 
ATOM     22  C   UNL     1     -10.160 -11.015  19.378  0.00  0.00    -0.047 A 
ATOM     23  C   UNL     1      -8.636  -9.531  18.068  0.00  0.00    +0.044 C 
ATOM     24  C   UNL     1      -9.411 -13.141  20.246  0.00  0.00    +0.001 A 
ATOM     25  C   UNL     1     -10.417 -12.187  20.089  0.00  0.00    +0.003 A 
ATOM     26  C   UNL     1     -11.256 -10.011  19.225  0.00  0.00    +0.044 C 
ENDBRANCH  16  19
BRANCH   8   1
ATOM      1  O   UNL     1      -2.589 -11.007  11.087  0.00  0.00    -0.378 OA
ATOM     17  C   UNL     1      -3.326  -9.998  10.402  0.00  0.00    +0.194 C 
ENDBRANCH   8   1
TORSDOF 2
ENDMDL
MODEL 6
REMARK VINA RESULT:      -7.1     16.506     19.963
REMARK  Name = 11865991
REMARK  5 active torsions:
REMARK  status: ('A' for Active; 'I' for Inactive)
REMARK    1  A    between atoms: O_1  and  C_8
REMARK    2  A    between atoms: O_1  and  C_17
REMARK    3  A    between atoms: C_16  and  C_19
REMARK    4  A    between atoms: C_20  and  C_23
REMARK    5  A    between atoms: C_22  and  C_26
REMARK                            x       y       z     vdW  Elec       q    Type
REMARK                         _______ _______ _______ _____ _____    ______ ____
ROOT
ATOM      2  O   UNL     1      10.078   9.238   8.457  0.00  0.00    -0.273 OA
ATOM      3  O   UNL     1       9.528   6.705   3.861  0.00  0.00    -0.270 OA
ATOM      4  N   UNL     1       9.342   7.011   6.132  0.00  0.00    -0.283 N 
ATOM      5  N   UNL     1       9.114   9.923   6.508  0.00  0.00    -0.283 N 
ATOM      6  C   UNL     1       8.724   7.624   7.290  0.00  0.00    +0.165 C 
ATOM      7  C   UNL     1       8.986   6.638   8.426  0.00  0.00    +0.065 C 
ATOM      8  C   UNL     1      10.286   5.950   8.013  0.00  0.00    +0.137 C 
ATOM      9  C   UNL     1      10.155   5.861   6.501  0.00  0.00    +0.140 C 
ATOM     10  C   UNL     1       9.397   8.970   7.465  0.00  0.00    +0.238 C 
ATOM     11  C   UNL     1       9.103   7.351   4.818  0.00  0.00    +0.249 C 
ATOM     12  C   UNL     1       8.313   8.580   4.547  0.00  0.00    +0.059 A 
ATOM     13  C   UNL     1       8.412   9.767   5.292  0.00  0.00    +0.046 A 
ATOM     14  C   UNL     1       7.556   8.570   3.361  0.00  0.00    +0.023 A 
ATOM     15  C   UNL     1       7.802  10.933   4.795  0.00  0.00    +0.024 A 
ATOM     16  C   UNL     1       6.919   9.725   2.908  0.00  0.00    -0.017 A 
ATOM     18  C   UNL     1       7.053  10.910   3.619  0.00  0.00    +0.010 A 
ATOM     27  H   UNL     1       9.372  10.876   6.754  0.00  0.00    +0.155 HD
ENDROOT
BRANCH  16  19
ATOM     19  C   UNL     1       6.140   9.694   1.690  0.00  0.00    -0.015 A 
ATOM     20  C   UNL     1       6.755   9.631   0.437  0.00  0.00    -0.040 A 
ATOM     21  C   UNL     1       4.747   9.727   1.777  0.00  0.00    +0.009 A 
ATOM     22  C   UNL     1       5.980   9.602  -0.721  0.00  0.00    -0.047 A 
ATOM     23  C   UNL     1       8.248   9.596   0.326  0.00  0.00    +0.044 C 
ATOM     24  C   UNL     1       3.972   9.698   0.619  0.00  0.00    +0.001 A 
ATOM     25  C   UNL     1       4.588   9.636  -0.631  0.00  0.00    +0.003 A 
ATOM     26  C   UNL     1       6.613   9.537  -2.073  0.00  0.00    +0.044 C 
ENDBRANCH  16  19
BRANCH   8   1
ATOM      1  O   UNL     1      10.396   4.665   8.590  0.00  0.00    -0.378 OA
ATOM     17  C   UNL     1       9.312   4.385   9.471  0.00  0.00    +0.194 C 
ENDBRANCH   8   1
TORSDOF 2
ENDMDL
MODEL 7
REMARK VINA RESULT:      -7.1     26.847     29.595
REMARK  Name = 11865991
REMARK  5 active torsions:
REMARK  status: ('A' for Active; 'I' for Inactive)
REMARK    1  A    between atoms: O_1  and  C_8
REMARK    2  A    between atoms: O_1  and  C_17
REMARK    3  A    between atoms: C_16  and  C_19
REMARK    4  A    between atoms: C_20  and  C_23
REMARK    5  A    between atoms: C_22  and  C_26
REMARK                            x       y       z     vdW  Elec       q    Type
REMARK                         _______ _______ _______ _____ _____    ______ ____
ROOT
ATOM      2  O   UNL     1     -10.810  -9.558  18.886  0.00  0.00    -0.273 OA
ATOM      3  O   UNL     1      -8.337 -10.248  14.275  0.00  0.00    -0.270 OA
ATOM      4  N   UNL     1      -9.440  -9.078  15.919  0.00  0.00    -0.283 N 
ATOM      5  N   UNL     1      -8.758 -10.444  18.437  0.00  0.00    -0.283 N 
ATOM      6  C   UNL     1      -9.484  -8.437  17.217  0.00  0.00    +0.165 C 
ATOM      7  C   UNL     1     -10.594  -7.395  17.088  0.00  0.00    +0.065 C 
ATOM      8  C   UNL     1     -11.530  -7.995  16.041  0.00  0.00    +0.137 C 
ATOM      9  C   UNL     1     -10.570  -8.689  15.088  0.00  0.00    +0.140 C 
ATOM     10  C   UNL     1      -9.772  -9.534  18.221  0.00  0.00    +0.238 C 
ATOM     11  C   UNL     1      -8.405  -9.850  15.438  0.00  0.00    +0.249 C 
ATOM     12  C   UNL     1      -7.330 -10.245  16.384  0.00  0.00    +0.059 A 
ATOM     13  C   UNL     1      -7.545 -10.596  17.728  0.00  0.00    +0.046 A 
ATOM     14  C   UNL     1      -6.055 -10.432  15.817  0.00  0.00    +0.023 A 
ATOM     15  C   UNL     1      -6.494 -11.185  18.452  0.00  0.00    +0.024 A 
ATOM     16  C   UNL     1      -5.012 -10.975  16.565  0.00  0.00    -0.017 A 
ATOM     18  C   UNL     1      -5.234 -11.364  17.879  0.00  0.00    +0.010 A 
ATOM     27  H   UNL     1      -8.863 -11.025  19.266  0.00  0.00    +0.155 HD
ENDROOT
BRANCH  16  19
ATOM     19  C   UNL     1      -3.707 -11.154  15.967  0.00  0.00    -0.015 A 
ATOM     20  C   UNL     1      -3.471 -12.163  15.030  0.00  0.00    -0.040 A 
ATOM     21  C   UNL     1      -2.670 -10.297  16.339  0.00  0.00    +0.009 A 
ATOM     22  C   UNL     1      -2.203 -12.313  14.469  0.00  0.00    -0.047 A 
ATOM     23  C   UNL     1      -4.572 -13.091  14.621  0.00  0.00    +0.044 C 
ATOM     24  C   UNL     1      -1.402 -10.447  15.778  0.00  0.00    +0.001 A 
ATOM     25  C   UNL     1      -1.168 -11.456  14.843  0.00  0.00    +0.003 A 
ATOM     26  C   UNL     1      -1.924 -13.385  13.466  0.00  0.00    +0.044 C 
ENDBRANCH  16  19
BRANCH   8   1
ATOM      1  O   UNL     1     -12.272  -6.993  15.377  0.00  0.00    -0.378 OA
ATOM     17  C   UNL     1     -11.516  -5.797  15.211  0.00  0.00    +0.194 C 
ENDBRANCH   8   1
TORSDOF 2
ENDMDL
MODEL 8
REMARK VINA RESULT:      -7.1     14.348     15.417
REMARK  Name = 11865991
REMARK  5 active torsions:
REMARK  status: ('A' for Active; 'I' for Inactive)
REMARK    1  A    between atoms: O_1  and  C_8
REMARK    2  A    between atoms: O_1  and  C_17
REMARK    3  A    between atoms: C_16  and  C_19
REMARK    4  A    between atoms: C_20  and  C_23
REMARK    5  A    between atoms: C_22  and  C_26
REMARK                            x       y       z     vdW  Elec       q    Type
REMARK                         _______ _______ _______ _____ _____    ______ ____
ROOT
ATOM      2  O   UNL     1      10.704  10.375   7.020  0.00  0.00    -0.273 OA
ATOM      3  O   UNL     1      14.090   6.343   7.388  0.00  0.00    -0.270 OA
ATOM      4  N   UNL     1      12.290   7.514   6.564  0.00  0.00    -0.283 N 
ATOM      5  N   UNL     1      12.982  10.354   6.918  0.00  0.00    -0.283 N 
ATOM      6  C   UNL     1      11.719   8.583   5.771  0.00  0.00    +0.165 C 
ATOM      7  C   UNL     1      10.319   8.086   5.416  0.00  0.00    +0.065 C 
ATOM      8  C   UNL     1       9.959   7.165   6.580  0.00  0.00    +0.137 C 
ATOM      9  C   UNL     1      11.292   6.517   6.922  0.00  0.00    +0.140 C 
ATOM     10  C   UNL     1      11.739   9.817   6.649  0.00  0.00    +0.238 C 
ATOM     11  C   UNL     1      13.629   7.346   6.844  0.00  0.00    +0.249 C 
ATOM     12  C   UNL     1      14.560   8.451   6.493  0.00  0.00    +0.059 A 
ATOM     13  C   UNL     1      14.255   9.817   6.626  0.00  0.00    +0.046 A 
ATOM     14  C   UNL     1      15.875   8.065   6.175  0.00  0.00    +0.023 A 
ATOM     15  C   UNL     1      15.291  10.758   6.498  0.00  0.00    +0.024 A 
ATOM     16  C   UNL     1      16.879   9.016   6.006  0.00  0.00    -0.017 A 
ATOM     18  C   UNL     1      16.591  10.362   6.181  0.00  0.00    +0.010 A 
ATOM     27  H   UNL     1      12.975  11.297   7.301  0.00  0.00    +0.155 HD
ENDROOT
BRANCH  16  19
ATOM     19  C   UNL     1      18.224   8.599   5.673  0.00  0.00    -0.015 A 
ATOM     20  C   UNL     1      18.598   8.345   4.351  0.00  0.00    -0.040 A 
ATOM     21  C   UNL     1      19.160   8.453   6.698  0.00  0.00    +0.009 A 
ATOM     22  C   UNL     1      19.901   7.945   4.058  0.00  0.00    -0.047 A 
ATOM     23  C   UNL     1      17.605   8.496   3.240  0.00  0.00    +0.044 C 
ATOM     24  C   UNL     1      20.463   8.054   6.404  0.00  0.00    +0.001 A 
ATOM     25  C   UNL     1      20.834   7.799   5.084  0.00  0.00    +0.003 A 
ATOM     26  C   UNL     1      20.325   7.665   2.653  0.00  0.00    +0.044 C 
ENDBRANCH  16  19
BRANCH   8   1
ATOM      1  O   UNL     1       9.006   6.195   6.195  0.00  0.00    -0.378 OA
ATOM     17  C   UNL     1       9.624   5.031   5.653  0.00  0.00    +0.194 C 
ENDBRANCH   8   1
TORSDOF 2
ENDMDL
MODEL 9
REMARK VINA RESULT:      -7.0     15.647     18.244
REMARK  Name = 11865991
REMARK  5 active torsions:
REMARK  status: ('A' for Active; 'I' for Inactive)
REMARK    1  A    between atoms: O_1  and  C_8
REMARK    2  A    between atoms: O_1  and  C_17
REMARK    3  A    between atoms: C_16  and  C_19
REMARK    4  A    between atoms: C_20  and  C_23
REMARK    5  A    between atoms: C_22  and  C_26
REMARK                            x       y       z     vdW  Elec       q    Type
REMARK                         _______ _______ _______ _____ _____    ______ ____
ROOT
ATOM      2  O   UNL     1       8.391   7.358   8.365  0.00  0.00    -0.273 OA
ATOM      3  O   UNL     1       9.821   8.770   3.485  0.00  0.00    -0.270 OA
ATOM      4  N   UNL     1       9.893   8.769   5.784  0.00  0.00    -0.283 N 
ATOM      5  N   UNL     1       9.018   6.074   6.588  0.00  0.00    -0.283 N 
ATOM      6  C   UNL     1      10.243   8.156   7.048  0.00  0.00    +0.165 C 
ATOM      7  C   UNL     1      10.376   9.331   8.015  0.00  0.00    +0.065 C 
ATOM      8  C   UNL     1       9.425  10.379   7.440  0.00  0.00    +0.137 C 
ATOM      9  C   UNL     1       9.571  10.180   5.940  0.00  0.00    +0.140 C 
ATOM     10  C   UNL     1       9.117   7.199   7.380  0.00  0.00    +0.238 C 
ATOM     11  C   UNL     1       9.979   8.168   4.547  0.00  0.00    +0.249 C 
ATOM     12  C   UNL     1      10.251   6.707   4.497  0.00  0.00    +0.059 A 
ATOM     13  C   UNL     1       9.719   5.770   5.400  0.00  0.00    +0.046 A 
ATOM     14  C   UNL     1      10.950   6.254   3.363  0.00  0.00    +0.023 A 
ATOM     15  C   UNL     1       9.846   4.401   5.109  0.00  0.00    +0.024 A 
ATOM     16  C   UNL     1      11.106   4.891   3.116  0.00  0.00    -0.017 A 
ATOM     18  C   UNL     1      10.543   3.964   3.982  0.00  0.00    +0.010 A 
ATOM     27  H   UNL     1       8.423   5.334   6.954  0.00  0.00    +0.155 HD
ENDROOT
BRANCH  16  19
ATOM     19  C   UNL     1      11.833   4.444   1.947  0.00  0.00    -0.015 A 
ATOM     20  C   UNL     1      11.225   4.390   0.691  0.00  0.00    -0.040 A 
ATOM     21  C   UNL     1      13.169   4.063   2.088  0.00  0.00    +0.009 A 
ATOM     22  C   UNL     1      11.949   3.955  -0.418  0.00  0.00    -0.047 A 
ATOM     23  C   UNL     1       9.793   4.795   0.524  0.00  0.00    +0.044 C 
ATOM     24  C   UNL     1      13.893   3.628   0.979  0.00  0.00    +0.001 A 
ATOM     25  C   UNL     1      13.283   3.573  -0.275  0.00  0.00    +0.003 A 
ATOM     26  C   UNL     1      11.321   3.886  -1.772  0.00  0.00    +0.044 C 
ENDBRANCH  16  19
BRANCH   8   1
ATOM      1  O   UNL     1       9.806  11.686   7.819  0.00  0.00    -0.378 OA
ATOM     17  C   UNL     1       9.530  11.941   9.193  0.00  0.00    +0.194 C 
ENDBRANCH   8   1
TORSDOF 2
ENDMDL
MODEL 10
REMARK VINA RESULT:      -6.9     28.123     31.210
REMARK  Name = 11865991
REMARK  5 active torsions:
REMARK  status: ('A' for Active; 'I' for Inactive)
REMARK    1  A    between atoms: O_1  and  C_8
REMARK    2  A    between atoms: O_1  and  C_17
REMARK    3  A    between atoms: C_16  and  C_19
REMARK    4  A    between atoms: C_20  and  C_23
REMARK    5  A    between atoms: C_22  and  C_26
REMARK                            x       y       z     vdW  Elec       q    Type
REMARK                         _______ _______ _______ _____ _____    ______ ____
ROOT
ATOM      2  O   UNL     1      -9.752  -7.927   5.624  0.00  0.00    -0.273 OA
ATOM      3  O   UNL     1      -5.872 -11.466   6.148  0.00  0.00    -0.270 OA
ATOM      4  N   UNL     1      -7.002  -9.706   5.192  0.00  0.00    -0.283 N 
ATOM      5  N   UNL     1      -8.421  -8.394   7.415  0.00  0.00    -0.283 N 
ATOM      6  C   UNL     1      -7.419  -8.319   5.171  0.00  0.00    +0.165 C 
ATOM      7  C   UNL     1      -7.694  -8.029   3.697  0.00  0.00    +0.065 C 
ATOM      8  C   UNL     1      -8.104  -9.388   3.133  0.00  0.00    +0.137 C 
ATOM      9  C   UNL     1      -7.221 -10.354   3.908  0.00  0.00    +0.140 C 
ATOM     10  C   UNL     1      -8.640  -8.231   6.062  0.00  0.00    +0.238 C 
ATOM     11  C   UNL     1      -6.345 -10.333   6.229  0.00  0.00    +0.249 C 
ATOM     12  C   UNL     1      -6.228  -9.608   7.522  0.00  0.00    +0.059 A 
ATOM     13  C   UNL     1      -7.238  -8.800   8.072  0.00  0.00    +0.046 A 
ATOM     14  C   UNL     1      -5.090  -9.912   8.291  0.00  0.00    +0.023 A 
ATOM     15  C   UNL     1      -7.111  -8.370   9.404  0.00  0.00    +0.024 A 
ATOM     16  C   UNL     1      -4.960  -9.436   9.595  0.00  0.00    -0.017 A 
ATOM     18  C   UNL     1      -5.977  -8.676  10.156  0.00  0.00    +0.010 A 
ATOM     27  H   UNL     1      -9.187  -8.104   8.018  0.00  0.00    +0.155 HD
ENDROOT
BRANCH  16  19
ATOM     19  C   UNL     1      -3.780  -9.754  10.369  0.00  0.00    -0.015 A 
ATOM     20  C   UNL     1      -3.746 -10.862  11.219  0.00  0.00    -0.040 A 
ATOM     21  C   UNL     1      -2.657  -8.932  10.256  0.00  0.00    +0.009 A 
ATOM     22  C   UNL     1      -2.595 -11.144  11.954  0.00  0.00    -0.047 A 
ATOM     23  C   UNL     1      -4.942 -11.752  11.352  0.00  0.00    +0.044 C 
ATOM     24  C   UNL     1      -1.506  -9.215  10.991  0.00  0.00    +0.001 A 
ATOM     25  C   UNL     1      -1.475 -10.321  11.840  0.00  0.00    +0.003 A 
ATOM     26  C   UNL     1      -2.534 -12.321  12.872  0.00  0.00    +0.044 C 
ENDBRANCH  16  19
BRANCH   8   1
ATOM      1  O   UNL     1      -7.851  -9.469   1.745  0.00  0.00    -0.378 OA
ATOM     17  C   UNL     1      -8.624  -8.525   1.010  0.00  0.00    +0.194 C 
ENDBRANCH   8   1
TORSDOF 2
ENDMDL
