REMARK  Name = 40781555
REMARK  9 active torsions:
REMARK  status: ('A' for Active; 'I' for Inactive)
REMARK    1  A    between atoms: S_2  and  N_10
REMARK    2  A    between atoms: S_2  and  C_24
REMARK    3  A    between atoms: O_4  and  C_12
REMARK    4  A    between atoms: O_5  and  C_13
REMARK    5  A    between atoms: N_10  and  C_21
REMARK    6  A    between atoms: C_11  and  C_15
REMARK    7  A    between atoms: C_14  and  C_21
REMARK    8  A    between atoms: C_15  and  C_22
REMARK    9  A    between atoms: C_16  and  C_23
REMARK                            x       y       z     vdW  Elec       q    Type
REMARK                         _______ _______ _______ _____ _____    ______ ____
ROOT
ATOM      3  O   UNL     1       1.080   1.593  -0.795  0.00  0.00    -0.366 OA
ATOM     11  C   UNL     1       0.011   2.417  -0.297  0.00  0.00    +0.158 C 
ATOM     12  C   UNL     1       0.662   3.405   0.655  0.00  0.00    +0.175 C 
ATOM     13  C   UNL     1       1.992   3.651  -0.028  0.00  0.00    +0.175 C 
ATOM     14  C   UNL     1       2.338   2.265  -0.558  0.00  0.00    +0.165 C 
ENDROOT
BRANCH  12   4
ATOM      4  O   UNL     1      -0.110   4.576   0.814  0.00  0.00    -0.387 OA
ATOM     30  H   UNL     1       0.417   5.204   1.336  0.00  0.00    +0.210 HD
ENDBRANCH  12   4
BRANCH  13   5
ATOM      5  O   UNL     1       1.822   4.523  -1.144  0.00  0.00    -0.387 OA
ATOM     31  H   UNL     1       2.691   4.626  -1.568  0.00  0.00    +0.210 HD
ENDBRANCH  13   5
BRANCH  11  15
ATOM     15  C   UNL     1      -1.040   1.544   0.367  0.00  0.00    +0.130 C 
BRANCH  15  22
ATOM      6  O   UNL     1      -1.690   1.129  -1.873  0.00  0.00    -0.276 OA
ATOM      9  N   UNL     1      -2.894   0.022  -0.223  0.00  0.00    -0.301 N 
ATOM     16  C   UNL     1      -5.568  -0.780   0.564  0.00  0.00    -0.011 C 
ATOM     17  C   UNL     1      -4.632  -0.031   1.524  0.00  0.00    +0.022 C 
ATOM     18  C   UNL     1      -5.220  -0.436  -0.892  0.00  0.00    +0.022 C 
ATOM     19  C   UNL     1      -3.165  -0.290   1.185  0.00  0.00    +0.108 C 
ATOM     20  C   UNL     1      -3.742  -0.688  -1.182  0.00  0.00    +0.108 C 
ATOM     22  C   UNL     1      -1.898   0.883  -0.682  0.00  0.00    +0.218 C 
ATOM     23  C   UNL     1      -7.029  -0.455   0.865  0.00  0.00    +0.007 C 
ENDBRANCH  15  22
ENDBRANCH  11  15
BRANCH  14  21
ATOM     21  C   UNL     1       3.133   1.428   0.435  0.00  0.00    +0.140 C 
BRANCH  21  10
ATOM     10  N   UNL     1       3.821   0.357  -0.224  0.00  0.00    -0.187 NA
ATOM     32  H   UNL     1       4.423   0.610  -1.018  0.00  0.00    +0.148 HD
BRANCH  10   2
ATOM      2  S   UNL     1       4.169  -1.120   0.592  0.00  0.00    +0.058 S 
ATOM      7  O   UNL     1       4.189  -0.866   2.020  0.00  0.00    -0.153 OA
ATOM      8  O   UNL     1       5.285  -1.793  -0.044  0.00  0.00    -0.153 OA
BRANCH   2  24
ATOM      1 CL   UNL     1      -0.977  -4.474  -0.706  0.00  0.00    -0.084 Cl
ATOM     24  C   UNL     1       2.720  -2.065   0.227  0.00  0.00    +0.105 A 
ATOM     25  C   UNL     1       2.679  -2.865  -0.915  0.00  0.00    +0.030 A 
ATOM     26  C   UNL     1       1.619  -2.010   1.081  0.00  0.00    +0.030 A 
ATOM     27  C   UNL     1       1.536  -3.610  -1.204  0.00  0.00    +0.022 A 
ATOM     28  C   UNL     1       0.475  -2.755   0.792  0.00  0.00    +0.022 A 
ATOM     29  C   UNL     1       0.434  -3.555  -0.350  0.00  0.00    +0.041 A 
ENDBRANCH   2  24
ENDBRANCH  10   2
ENDBRANCH  21  10
ENDBRANCH  14  21
TORSDOF 8
