MODEL 1
REMARK VINA RESULT:      -6.4      0.000      0.000
REMARK  Name = 26742474
REMARK  11 active torsions:
REMARK  status: ('A' for Active; 'I' for Inactive)
REMARK    1  A    between atoms: O_2  and  C_22
REMARK    2  A    between atoms: O_2  and  C_29
REMARK    3  A    between atoms: N_4  and  C_15
REMARK    4  A    between atoms: N_7  and  C_28
REMARK    5  A    between atoms: N_7  and  C_30
REMARK    6  A    between atoms: N_7  and  C_31
REMARK    7  A    between atoms: C_9  and  C_16
REMARK    8  A    between atoms: C_10  and  C_15
REMARK    9  A    between atoms: C_18  and  C_21
REMARK   10  A    between atoms: C_19  and  C_22
REMARK   11  A    between atoms: C_20  and  C_23
REMARK                            x       y       z     vdW  Elec       q    Type
REMARK                         _______ _______ _______ _____ _____    ______ ____
ROOT
ATOM      3  N   UNL     1      -7.489 -11.642  17.762  0.00  0.00    -0.297 NA
ATOM      8  C   UNL     1      -5.062 -11.048  18.496  0.00  0.00    +0.002 C 
ATOM      9  C   UNL     1      -5.387 -10.403  17.120  0.00  0.00    +0.055 C 
ATOM     10  C   UNL     1      -6.764 -12.875  18.166  0.00  0.00    +0.074 C 
ATOM     11  C   UNL     1      -5.268 -12.574  18.405  0.00  0.00    +0.024 C 
ATOM     12  C   UNL     1      -6.104 -10.508  19.499  0.00  0.00    +0.019 C 
ATOM     13  C   UNL     1      -6.764 -10.963  16.660  0.00  0.00    +0.094 C 
ATOM     14  C   UNL     1      -7.516 -10.728  18.930  0.00  0.00    +0.085 C 
ENDROOT
BRANCH   9  16
ATOM      5  N   UNL     1      -3.046 -10.475  16.417  0.00  0.00    -0.237 NA
ATOM      6  N   UNL     1      -2.405 -10.614  14.098  0.00  0.00    -0.232 NA
ATOM     16  C   UNL     1      -4.336 -10.480  16.022  0.00  0.00    +0.050 A 
ATOM     17  C   UNL     1      -4.734 -10.549  14.702  0.00  0.00    +0.052 A 
ATOM     18  C   UNL     1      -3.714 -10.616  13.775  0.00  0.00    +0.075 A 
ATOM     20  C   UNL     1      -2.146 -10.544  15.418  0.00  0.00    +0.127 A 
ATOM     23  C   UNL     1      -0.708 -10.538  15.815  0.00  0.00    +0.088 C 
BRANCH  18  21
ATOM     21  C   UNL     1      -3.997 -10.690  12.361  0.00  0.00    +0.001 A 
ATOM     24  C   UNL     1      -4.838  -9.749  11.767  0.00  0.00    +0.012 A 
ATOM     25  C   UNL     1      -3.428 -11.703  11.589  0.00  0.00    +0.012 A 
ATOM     26  C   UNL     1      -5.111  -9.821  10.401  0.00  0.00    +0.024 A 
ATOM     27  C   UNL     1      -3.701 -11.774  10.223  0.00  0.00    +0.024 A 
ATOM     28  C   UNL     1      -4.542 -10.834   9.629  0.00  0.00    +0.029 A 
BRANCH  28   7
ATOM      7  N   UNL     1      -4.819 -10.907   8.248  0.00  0.00    -0.336 N 
ATOM     30  C   UNL     1      -5.505  -9.820   7.578  0.00  0.00    +0.129 C 
ATOM     31  C   UNL     1      -4.413 -12.066   7.479  0.00  0.00    +0.129 C 
ENDBRANCH  28   7
ENDBRANCH  18  21
ENDBRANCH   9  16
BRANCH  10  15
ATOM     15  C   UNL     1      -6.964 -14.020  17.171  0.00  0.00    +0.123 C 
BRANCH  15   4
ATOM      1  O   UNL     1      -6.054 -13.797  14.434  0.00  0.00    -0.273 OA
ATOM      4  N   UNL     1      -5.710 -14.458  16.639  0.00  0.00    -0.312 N 
ATOM     19  C   UNL     1      -5.351 -14.311  15.300  0.00  0.00    +0.239 C 
ATOM     32  H   UNL     1      -5.053 -14.902  17.275  0.00  0.00    +0.149 HD
BRANCH  19  22
ATOM     22  C   UNL     1      -3.970 -14.861  15.014  0.00  0.00    +0.255 C 
BRANCH  22   2
ATOM      2  O   UNL     1      -3.136 -13.857  14.475  0.00  0.00    -0.374 OA
ATOM     29  C   UNL     1      -1.913 -14.392  13.980  0.00  0.00    +0.194 C 
ENDBRANCH  22   2
ENDBRANCH  19  22
ENDBRANCH  15   4
ENDBRANCH  10  15
TORSDOF 7
ENDMDL
MODEL 2
REMARK VINA RESULT:      -6.2     26.680     30.274
REMARK  Name = 26742474
REMARK  11 active torsions:
REMARK  status: ('A' for Active; 'I' for Inactive)
REMARK    1  A    between atoms: O_2  and  C_22
REMARK    2  A    between atoms: O_2  and  C_29
REMARK    3  A    between atoms: N_4  and  C_15
REMARK    4  A    between atoms: N_7  and  C_28
REMARK    5  A    between atoms: N_7  and  C_30
REMARK    6  A    between atoms: N_7  and  C_31
REMARK    7  A    between atoms: C_9  and  C_16
REMARK    8  A    between atoms: C_10  and  C_15
REMARK    9  A    between atoms: C_18  and  C_21
REMARK   10  A    between atoms: C_19  and  C_22
REMARK   11  A    between atoms: C_20  and  C_23
REMARK                            x       y       z     vdW  Elec       q    Type
REMARK                         _______ _______ _______ _____ _____    ______ ____
ROOT
ATOM      3  N   UNL     1      12.670   7.093  19.673  0.00  0.00    -0.297 NA
ATOM      8  C   UNL     1      14.188   9.026  18.812  0.00  0.00    +0.002 C 
ATOM      9  C   UNL     1      15.054   7.839  19.318  0.00  0.00    +0.055 C 
ATOM     10  C   UNL     1      12.248   8.381  20.282  0.00  0.00    +0.074 C 
ATOM     11  C   UNL     1      13.259   9.500  19.949  0.00  0.00    +0.024 C 
ATOM     12  C   UNL     1      13.286   8.473  17.689  0.00  0.00    +0.019 C 
ATOM     13  C   UNL     1      14.094   6.821  19.995  0.00  0.00    +0.094 C 
ATOM     14  C   UNL     1      12.547   7.225  18.202  0.00  0.00    +0.085 C 
ENDROOT
BRANCH   9  16
ATOM      5  N   UNL     1      16.317   9.380  20.738  0.00  0.00    -0.237 NA
ATOM      6  N   UNL     1      18.422   8.769  21.740  0.00  0.00    -0.232 NA
ATOM     16  C   UNL     1      16.268   8.151  20.182  0.00  0.00    +0.050 A 
ATOM     17  C   UNL     1      17.244   7.191  20.356  0.00  0.00    +0.052 A 
ATOM     18  C   UNL     1      18.308   7.560  21.154  0.00  0.00    +0.075 A 
ATOM     20  C   UNL     1      17.405   9.617  21.494  0.00  0.00    +0.127 A 
ATOM     23  C   UNL     1      17.496  10.966  22.124  0.00  0.00    +0.088 C 
BRANCH  18  21
ATOM     21  C   UNL     1      19.396   6.647  21.414  0.00  0.00    +0.001 A 
ATOM     24  C   UNL     1      19.738   5.681  20.467  0.00  0.00    +0.012 A 
ATOM     25  C   UNL     1      20.105   6.731  22.612  0.00  0.00    +0.012 A 
ATOM     26  C   UNL     1      20.789   4.799  20.719  0.00  0.00    +0.024 A 
ATOM     27  C   UNL     1      21.156   5.849  22.863  0.00  0.00    +0.024 A 
ATOM     28  C   UNL     1      21.498   4.884  21.917  0.00  0.00    +0.029 A 
BRANCH  28   7
ATOM      7  N   UNL     1      22.561   3.992  22.172  0.00  0.00    -0.336 N 
ATOM     30  C   UNL     1      23.047   3.111  21.127  0.00  0.00    +0.129 C 
ATOM     31  C   UNL     1      23.186   3.949  23.479  0.00  0.00    +0.129 C 
ENDBRANCH  28   7
ENDBRANCH  18  21
ENDBRANCH   9  16
BRANCH  10  15
ATOM     15  C   UNL     1      12.006   8.262  21.789  0.00  0.00    +0.123 C 
BRANCH  15   4
ATOM      1  O   UNL     1      10.510  10.373  23.081  0.00  0.00    -0.273 OA
ATOM      4  N   UNL     1      12.536   9.396  22.482  0.00  0.00    -0.312 N 
ATOM     19  C   UNL     1      11.738  10.371  23.078  0.00  0.00    +0.239 C 
ATOM     32  H   UNL     1      13.546   9.490  22.536  0.00  0.00    +0.149 HD
BRANCH  19  22
ATOM     22  C   UNL     1      12.561  11.454  23.743  0.00  0.00    +0.255 C 
BRANCH  22   2
ATOM      2  O   UNL     1      11.765  12.590  24.011  0.00  0.00    -0.374 OA
ATOM     29  C   UNL     1      11.608  12.809  25.410  0.00  0.00    +0.194 C 
ENDBRANCH  22   2
ENDBRANCH  19  22
ENDBRANCH  15   4
ENDBRANCH  10  15
TORSDOF 7
ENDMDL
MODEL 3
REMARK VINA RESULT:      -6.2     21.011     24.420
REMARK  Name = 26742474
REMARK  11 active torsions:
REMARK  status: ('A' for Active; 'I' for Inactive)
REMARK    1  A    between atoms: O_2  and  C_22
REMARK    2  A    between atoms: O_2  and  C_29
REMARK    3  A    between atoms: N_4  and  C_15
REMARK    4  A    between atoms: N_7  and  C_28
REMARK    5  A    between atoms: N_7  and  C_30
REMARK    6  A    between atoms: N_7  and  C_31
REMARK    7  A    between atoms: C_9  and  C_16
REMARK    8  A    between atoms: C_10  and  C_15
REMARK    9  A    between atoms: C_18  and  C_21
REMARK   10  A    between atoms: C_19  and  C_22
REMARK   11  A    between atoms: C_20  and  C_23
REMARK                            x       y       z     vdW  Elec       q    Type
REMARK                         _______ _______ _______ _____ _____    ______ ____
ROOT
ATOM      3  N   UNL     1     -18.707   2.857  26.166  0.00  0.00    -0.297 NA
ATOM      8  C   UNL     1     -17.032   0.865  26.266  0.00  0.00    +0.002 C 
ATOM      9  C   UNL     1     -17.402   1.336  27.699  0.00  0.00    +0.055 C 
ATOM     10  C   UNL     1     -17.549   3.121  25.272  0.00  0.00    +0.074 C 
ATOM     11  C   UNL     1     -16.451   2.054  25.473  0.00  0.00    +0.024 C 
ATOM     12  C   UNL     1     -18.351   0.460  25.575  0.00  0.00    +0.019 C 
ATOM     13  C   UNL     1     -18.236   2.641  27.557  0.00  0.00    +0.094 C 
ATOM     14  C   UNL     1     -19.363   1.611  25.703  0.00  0.00    +0.085 C 
ENDROOT
BRANCH   9  16
ATOM      5  N   UNL     1     -15.449   0.421  28.854  0.00  0.00    -0.237 NA
ATOM      6  N   UNL     1     -14.262   1.659  30.546  0.00  0.00    -0.232 NA
ATOM     16  C   UNL     1     -16.285   1.473  28.724  0.00  0.00    +0.050 A 
ATOM     17  C   UNL     1     -16.174   2.636  29.459  0.00  0.00    +0.052 A 
ATOM     18  C   UNL     1     -15.133   2.672  30.364  0.00  0.00    +0.075 A 
ATOM     20  C   UNL     1     -14.475   0.580  29.769  0.00  0.00    +0.127 A 
ATOM     23  C   UNL     1     -13.533  -0.563  29.943  0.00  0.00    +0.088 C 
BRANCH  18  21
ATOM     21  C   UNL     1     -14.909   3.832  31.195  0.00  0.00    +0.001 A 
ATOM     24  C   UNL     1     -15.591   5.020  30.934  0.00  0.00    +0.012 A 
ATOM     25  C   UNL     1     -14.012   3.762  32.261  0.00  0.00    +0.012 A 
ATOM     26  C   UNL     1     -15.374   6.140  31.738  0.00  0.00    +0.024 A 
ATOM     27  C   UNL     1     -13.796   4.882  33.065  0.00  0.00    +0.024 A 
ATOM     28  C   UNL     1     -14.477   6.070  32.803  0.00  0.00    +0.029 A 
BRANCH  28   7
ATOM      7  N   UNL     1     -14.258   7.202  33.615  0.00  0.00    -0.336 N 
ATOM     30  C   UNL     1     -14.854   8.478  33.272  0.00  0.00    +0.129 C 
ATOM     31  C   UNL     1     -13.441   7.102  34.808  0.00  0.00    +0.129 C 
ENDBRANCH  28   7
ENDBRANCH  18  21
ENDBRANCH   9  16
BRANCH  10  15
ATOM     15  C   UNL     1     -17.001   4.541  25.432  0.00  0.00    +0.123 C 
BRANCH  15   4
ATOM      1  O   UNL     1     -16.325   5.077  22.671  0.00  0.00    -0.273 OA
ATOM      4  N   UNL     1     -15.690   4.649  24.869  0.00  0.00    -0.312 N 
ATOM     19  C   UNL     1     -15.454   4.910  23.521  0.00  0.00    +0.239 C 
ATOM     32  H   UNL     1     -14.896   4.524  25.490  0.00  0.00    +0.149 HD
BRANCH  19  22
ATOM     22  C   UNL     1     -13.976   4.972  23.201  0.00  0.00    +0.255 C 
BRANCH  22   2
ATOM      2  O   UNL     1     -13.772   5.110  21.811  0.00  0.00    -0.374 OA
ATOM     29  C   UNL     1     -13.320   6.416  21.467  0.00  0.00    +0.194 C 
ENDBRANCH  22   2
ENDBRANCH  19  22
ENDBRANCH  15   4
ENDBRANCH  10  15
TORSDOF 7
ENDMDL
MODEL 4
REMARK VINA RESULT:      -5.8      2.507      3.892
REMARK  Name = 26742474
REMARK  11 active torsions:
REMARK  status: ('A' for Active; 'I' for Inactive)
REMARK    1  A    between atoms: O_2  and  C_22
REMARK    2  A    between atoms: O_2  and  C_29
REMARK    3  A    between atoms: N_4  and  C_15
REMARK    4  A    between atoms: N_7  and  C_28
REMARK    5  A    between atoms: N_7  and  C_30
REMARK    6  A    between atoms: N_7  and  C_31
REMARK    7  A    between atoms: C_9  and  C_16
REMARK    8  A    between atoms: C_10  and  C_15
REMARK    9  A    between atoms: C_18  and  C_21
REMARK   10  A    between atoms: C_19  and  C_22
REMARK   11  A    between atoms: C_20  and  C_23
REMARK                            x       y       z     vdW  Elec       q    Type
REMARK                         _______ _______ _______ _____ _____    ______ ____
ROOT
ATOM      3  N   UNL     1      -7.777 -10.392  17.810  0.00  0.00    -0.297 NA
ATOM      8  C   UNL     1      -5.726 -11.987  17.990  0.00  0.00    +0.002 C 
ATOM      9  C   UNL     1      -5.292 -10.604  17.430  0.00  0.00    +0.055 C 
ATOM     10  C   UNL     1      -8.091 -11.698  17.175  0.00  0.00    +0.074 C 
ATOM     11  C   UNL     1      -6.827 -12.580  17.087  0.00  0.00    +0.024 C 
ATOM     12  C   UNL     1      -6.363 -11.727  19.372  0.00  0.00    +0.019 C 
ATOM     13  C   UNL     1      -6.587  -9.785  17.163  0.00  0.00    +0.094 C 
ATOM     14  C   UNL     1      -7.449 -10.647  19.233  0.00  0.00    +0.085 C 
ENDROOT
BRANCH   9  16
ATOM      5  N   UNL     1      -3.018 -10.622  16.529  0.00  0.00    -0.237 NA
ATOM      6  N   UNL     1      -2.573 -10.524  14.163  0.00  0.00    -0.232 NA
ATOM     16  C   UNL     1      -4.336 -10.575  16.245  0.00  0.00    +0.050 A 
ATOM     17  C   UNL     1      -4.843 -10.503  14.963  0.00  0.00    +0.052 A 
ATOM     18  C   UNL     1      -3.904 -10.481  13.952  0.00  0.00    +0.075 A 
ATOM     20  C   UNL     1      -2.205 -10.594  15.456  0.00  0.00    +0.127 A 
ATOM     23  C   UNL     1      -0.739 -10.641  15.730  0.00  0.00    +0.088 C 
BRANCH  18  21
ATOM     21  C   UNL     1      -4.304 -10.405  12.566  0.00  0.00    +0.001 A 
ATOM     24  C   UNL     1      -5.656 -10.322  12.234  0.00  0.00    +0.012 A 
ATOM     25  C   UNL     1      -3.338 -10.414  11.561  0.00  0.00    +0.012 A 
ATOM     26  C   UNL     1      -6.042 -10.249  10.895  0.00  0.00    +0.024 A 
ATOM     27  C   UNL     1      -3.724 -10.340  10.222  0.00  0.00    +0.024 A 
ATOM     28  C   UNL     1      -5.076 -10.258   9.890  0.00  0.00    +0.029 A 
BRANCH  28   7
ATOM      7  N   UNL     1      -5.466 -10.184   8.536  0.00  0.00    -0.336 N 
ATOM     30  C   UNL     1      -6.519  -9.277   8.124  0.00  0.00    +0.129 C 
ATOM     31  C   UNL     1      -4.814 -11.009   7.539  0.00  0.00    +0.129 C 
ENDBRANCH  28   7
ENDBRANCH  18  21
ENDBRANCH   9  16
BRANCH  10  15
ATOM     15  C   UNL     1      -8.769 -11.536  15.812  0.00  0.00    +0.123 C 
BRANCH  15   4
ATOM      1  O   UNL     1      -8.693  -9.395  13.868  0.00  0.00    -0.273 OA
ATOM      4  N   UNL     1      -9.588 -10.363  15.786  0.00  0.00    -0.312 N 
ATOM     19  C   UNL     1      -9.484  -9.376  14.807  0.00  0.00    +0.239 C 
ATOM     32  H   UNL     1     -10.277 -10.250  16.524  0.00  0.00    +0.149 HD
BRANCH  19  22
ATOM     22  C   UNL     1     -10.473  -8.251  15.023  0.00  0.00    +0.255 C 
BRANCH  22   2
ATOM      2  O   UNL     1     -10.135  -7.503  16.171  0.00  0.00    -0.374 OA
ATOM     29  C   UNL     1     -11.060  -6.447  16.409  0.00  0.00    +0.194 C 
ENDBRANCH  22   2
ENDBRANCH  19  22
ENDBRANCH  15   4
ENDBRANCH  10  15
TORSDOF 7
ENDMDL
MODEL 5
REMARK VINA RESULT:      -5.8      2.185      7.295
REMARK  Name = 26742474
REMARK  11 active torsions:
REMARK  status: ('A' for Active; 'I' for Inactive)
REMARK    1  A    between atoms: O_2  and  C_22
REMARK    2  A    between atoms: O_2  and  C_29
REMARK    3  A    between atoms: N_4  and  C_15
REMARK    4  A    between atoms: N_7  and  C_28
REMARK    5  A    between atoms: N_7  and  C_30
REMARK    6  A    between atoms: N_7  and  C_31
REMARK    7  A    between atoms: C_9  and  C_16
REMARK    8  A    between atoms: C_10  and  C_15
REMARK    9  A    between atoms: C_18  and  C_21
REMARK   10  A    between atoms: C_19  and  C_22
REMARK   11  A    between atoms: C_20  and  C_23
REMARK                            x       y       z     vdW  Elec       q    Type
REMARK                         _______ _______ _______ _____ _____    ______ ____
ROOT
ATOM      3  N   UNL     1      -5.480 -11.127  10.084  0.00  0.00    -0.297 NA
ATOM      8  C   UNL     1      -4.007  -9.227  11.083  0.00  0.00    +0.002 C 
ATOM      9  C   UNL     1      -3.650 -10.591  11.735  0.00  0.00    +0.055 C 
ATOM     10  C   UNL     1      -6.337  -9.988  10.505  0.00  0.00    +0.074 C 
ATOM     11  C   UNL     1      -5.510  -8.943  11.285  0.00  0.00    +0.024 C 
ATOM     12  C   UNL     1      -3.774  -9.383   9.566  0.00  0.00    +0.019 C 
ATOM     13  C   UNL     1      -4.697 -11.629  11.241  0.00  0.00    +0.094 C 
ATOM     14  C   UNL     1      -4.528 -10.627   9.064  0.00  0.00    +0.085 C 
ENDROOT
BRANCH   9  16
ATOM      5  N   UNL     1      -2.206 -10.420  13.703  0.00  0.00    -0.237 NA
ATOM      6  N   UNL     1      -3.047 -10.717  15.941  0.00  0.00    -0.232 NA
ATOM     16  C   UNL     1      -3.457 -10.640  13.244  0.00  0.00    +0.050 A 
ATOM     17  C   UNL     1      -4.538 -10.902  14.061  0.00  0.00    +0.052 A 
ATOM     18  C   UNL     1      -4.270 -10.927  15.414  0.00  0.00    +0.075 A 
ATOM     20  C   UNL     1      -2.076 -10.471  15.042  0.00  0.00    +0.127 A 
ATOM     23  C   UNL     1      -0.708 -10.235  15.586  0.00  0.00    +0.088 C 
BRANCH  18  21
ATOM     21  C   UNL     1      -5.316 -11.192  16.375  0.00  0.00    +0.001 A 
ATOM     24  C   UNL     1      -6.129 -12.315  16.229  0.00  0.00    +0.012 A 
ATOM     25  C   UNL     1      -5.510 -10.324  17.450  0.00  0.00    +0.012 A 
ATOM     26  C   UNL     1      -7.139 -12.571  17.158  0.00  0.00    +0.024 A 
ATOM     27  C   UNL     1      -6.519 -10.581  18.378  0.00  0.00    +0.024 A 
ATOM     28  C   UNL     1      -7.333 -11.703  18.232  0.00  0.00    +0.029 A 
BRANCH  28   7
ATOM      7  N   UNL     1      -8.354 -11.961  19.171  0.00  0.00    -0.336 N 
ATOM     30  C   UNL     1      -9.459 -11.035  19.327  0.00  0.00    +0.129 C 
ATOM     31  C   UNL     1      -8.317 -13.160  19.985  0.00  0.00    +0.129 C 
ENDBRANCH  28   7
ENDBRANCH  18  21
ENDBRANCH   9  16
BRANCH  10  15
ATOM     15  C   UNL     1      -7.568 -10.444  11.291  0.00  0.00    +0.123 C 
BRANCH  15   4
ATOM      1  O   UNL     1      -8.896 -11.448  13.657  0.00  0.00    -0.273 OA
ATOM      4  N   UNL     1      -7.599  -9.838  12.587  0.00  0.00    -0.312 N 
ATOM     19  C   UNL     1      -8.266 -10.393  13.677  0.00  0.00    +0.239 C 
ATOM     32  H   UNL     1      -7.108  -8.957  12.711  0.00  0.00    +0.149 HD
BRANCH  19  22
ATOM     22  C   UNL     1      -8.132  -9.544  14.923  0.00  0.00    +0.255 C 
BRANCH  22   2
ATOM      2  O   UNL     1      -9.162  -9.841  15.842  0.00  0.00    -0.374 OA
ATOM     29  C   UNL     1      -9.828  -8.665  16.291  0.00  0.00    +0.194 C 
ENDBRANCH  22   2
ENDBRANCH  19  22
ENDBRANCH  15   4
ENDBRANCH  10  15
TORSDOF 7
ENDMDL
MODEL 6
REMARK VINA RESULT:      -5.7     23.790     26.266
REMARK  Name = 26742474
REMARK  11 active torsions:
REMARK  status: ('A' for Active; 'I' for Inactive)
REMARK    1  A    between atoms: O_2  and  C_22
REMARK    2  A    between atoms: O_2  and  C_29
REMARK    3  A    between atoms: N_4  and  C_15
REMARK    4  A    between atoms: N_7  and  C_28
REMARK    5  A    between atoms: N_7  and  C_30
REMARK    6  A    between atoms: N_7  and  C_31
REMARK    7  A    between atoms: C_9  and  C_16
REMARK    8  A    between atoms: C_10  and  C_15
REMARK    9  A    between atoms: C_18  and  C_21
REMARK   10  A    between atoms: C_19  and  C_22
REMARK   11  A    between atoms: C_20  and  C_23
REMARK                            x       y       z     vdW  Elec       q    Type
REMARK                         _______ _______ _______ _____ _____    ______ ____
ROOT
ATOM      3  N   UNL     1       9.496   5.180   5.895  0.00  0.00    -0.297 NA
ATOM      8  C   UNL     1      10.444   7.415   6.839  0.00  0.00    +0.002 C 
ATOM      9  C   UNL     1       8.933   7.563   6.506  0.00  0.00    +0.055 C 
ATOM     10  C   UNL     1      10.741   5.550   5.173  0.00  0.00    +0.074 C 
ATOM     11  C   UNL     1      11.203   6.968   5.573  0.00  0.00    +0.024 C 
ATOM     12  C   UNL     1      10.563   6.271   7.868  0.00  0.00    +0.019 C 
ATOM     13  C   UNL     1       8.493   6.267   5.767  0.00  0.00    +0.094 C 
ATOM     14  C   UNL     1       9.832   5.029   7.331  0.00  0.00    +0.085 C 
ENDROOT
BRANCH   9  16
ATOM      5  N   UNL     1       8.950   9.996   6.254  0.00  0.00    -0.237 NA
ATOM      6  N   UNL     1       7.686  11.117   4.535  0.00  0.00    -0.232 NA
ATOM     16  C   UNL     1       8.475   8.823   5.785  0.00  0.00    +0.050 A 
ATOM     17  C   UNL     1       7.614   8.718   4.712  0.00  0.00    +0.052 A 
ATOM     18  C   UNL     1       7.251   9.911   4.120  0.00  0.00    +0.075 A 
ATOM     20  C   UNL     1       8.522  11.087   5.591  0.00  0.00    +0.127 A 
ATOM     23  C   UNL     1       9.023  12.403   6.082  0.00  0.00    +0.088 C 
BRANCH  18  21
ATOM     21  C   UNL     1       6.354   9.938   2.988  0.00  0.00    +0.001 A 
ATOM     24  C   UNL     1       6.814   9.567   1.725  0.00  0.00    +0.012 A 
ATOM     25  C   UNL     1       5.028  10.335   3.160  0.00  0.00    +0.012 A 
ATOM     26  C   UNL     1       5.948   9.594   0.632  0.00  0.00    +0.024 A 
ATOM     27  C   UNL     1       4.162  10.361   2.066  0.00  0.00    +0.024 A 
ATOM     28  C   UNL     1       4.622   9.990   0.803  0.00  0.00    +0.029 A 
BRANCH  28   7
ATOM      7  N   UNL     1       3.746  10.017  -0.302  0.00  0.00    -0.336 N 
ATOM     30  C   UNL     1       2.361  10.411  -0.132  0.00  0.00    +0.129 C 
ATOM     31  C   UNL     1       4.221   9.660  -1.624  0.00  0.00    +0.129 C 
ENDBRANCH  28   7
ENDBRANCH  18  21
ENDBRANCH   9  16
BRANCH  10  15
ATOM     15  C   UNL     1      10.601   5.402   3.656  0.00  0.00    +0.123 C 
BRANCH  15   4
ATOM      1  O   UNL     1      10.611   3.941   1.160  0.00  0.00    -0.273 OA
ATOM      4  N   UNL     1      11.670   4.616   3.119  0.00  0.00    -0.312 N 
ATOM     19  C   UNL     1      11.589   3.942   1.902  0.00  0.00    +0.239 C 
ATOM     32  H   UNL     1      12.527   4.549   3.660  0.00  0.00    +0.149 HD
BRANCH  19  22
ATOM     22  C   UNL     1      12.864   3.192   1.579  0.00  0.00    +0.255 C 
BRANCH  22   2
ATOM      2  O   UNL     1      13.019   3.053   0.182  0.00  0.00    -0.374 OA
ATOM     29  C   UNL     1      13.940   4.001  -0.347  0.00  0.00    +0.194 C 
ENDBRANCH  22   2
ENDBRANCH  19  22
ENDBRANCH  15   4
ENDBRANCH  10  15
TORSDOF 7
ENDMDL
MODEL 7
REMARK VINA RESULT:      -5.7     23.802     26.446
REMARK  Name = 26742474
REMARK  11 active torsions:
REMARK  status: ('A' for Active; 'I' for Inactive)
REMARK    1  A    between atoms: O_2  and  C_22
REMARK    2  A    between atoms: O_2  and  C_29
REMARK    3  A    between atoms: N_4  and  C_15
REMARK    4  A    between atoms: N_7  and  C_28
REMARK    5  A    between atoms: N_7  and  C_30
REMARK    6  A    between atoms: N_7  and  C_31
REMARK    7  A    between atoms: C_9  and  C_16
REMARK    8  A    between atoms: C_10  and  C_15
REMARK    9  A    between atoms: C_18  and  C_21
REMARK   10  A    between atoms: C_19  and  C_22
REMARK   11  A    between atoms: C_20  and  C_23
REMARK                            x       y       z     vdW  Elec       q    Type
REMARK                         _______ _______ _______ _____ _____    ______ ____
ROOT
ATOM      3  N   UNL     1       9.936   7.055   7.562  0.00  0.00    -0.297 NA
ATOM      8  C   UNL     1       9.740   5.210   5.735  0.00  0.00    +0.002 C 
ATOM      9  C   UNL     1      11.107   5.939   5.626  0.00  0.00    +0.055 C 
ATOM     10  C   UNL     1       8.645   7.192   6.838  0.00  0.00    +0.074 C 
ATOM     11  C   UNL     1       8.600   6.243   5.620  0.00  0.00    +0.024 C 
ATOM     12  C   UNL     1       9.667   4.610   7.155  0.00  0.00    +0.019 C 
ATOM     13  C   UNL     1      11.068   7.147   6.606  0.00  0.00    +0.094 C 
ATOM     14  C   UNL     1       9.966   5.711   8.186  0.00  0.00    +0.085 C 
ENDROOT
BRANCH   9  16
ATOM      5  N   UNL     1      12.180   7.550   4.131  0.00  0.00    -0.237 NA
ATOM      6  N   UNL     1      12.513   7.102   1.786  0.00  0.00    -0.232 NA
ATOM     16  C   UNL     1      11.604   6.335   4.243  0.00  0.00    +0.050 A 
ATOM     17  C   UNL     1      11.449   5.460   3.187  0.00  0.00    +0.052 A 
ATOM     18  C   UNL     1      11.928   5.901   1.971  0.00  0.00    +0.075 A 
ATOM     20  C   UNL     1      12.606   7.864   2.892  0.00  0.00    +0.127 A 
ATOM     23  C   UNL     1      13.246   9.201   2.728  0.00  0.00    +0.088 C 
BRANCH  18  21
ATOM     21  C   UNL     1      11.825   5.080   0.787  0.00  0.00    +0.001 A 
ATOM     24  C   UNL     1      10.809   5.316  -0.139  0.00  0.00    +0.012 A 
ATOM     25  C   UNL     1      12.743   4.053   0.570  0.00  0.00    +0.012 A 
ATOM     26  C   UNL     1      10.710   4.522  -1.282  0.00  0.00    +0.024 A 
ATOM     27  C   UNL     1      12.644   3.260  -0.574  0.00  0.00    +0.024 A 
ATOM     28  C   UNL     1      11.627   3.495  -1.499  0.00  0.00    +0.029 A 
BRANCH  28   7
ATOM      7  N   UNL     1      11.527   2.693  -2.655  0.00  0.00    -0.336 N 
ATOM     30  C   UNL     1      12.573   2.717  -3.659  0.00  0.00    +0.129 C 
ATOM     31  C   UNL     1      10.381   1.827  -2.850  0.00  0.00    +0.129 C 
ENDBRANCH  28   7
ENDBRANCH  18  21
ENDBRANCH   9  16
BRANCH  10  15
ATOM     15  C   UNL     1       8.349   8.641   6.443  0.00  0.00    +0.123 C 
BRANCH  15   4
ATOM      1  O   UNL     1       7.476  11.011   5.035  0.00  0.00    -0.273 OA
ATOM      4  N   UNL     1       7.612   8.695   5.218  0.00  0.00    -0.312 N 
ATOM     19  C   UNL     1       7.230   9.887   4.605  0.00  0.00    +0.239 C 
ATOM     32  H   UNL     1       7.355   7.815   4.780  0.00  0.00    +0.149 HD
BRANCH  19  22
ATOM     22  C   UNL     1       6.463   9.650   3.322  0.00  0.00    +0.255 C 
BRANCH  22   2
ATOM      2  O   UNL     1       5.145  10.145   3.430  0.00  0.00    -0.374 OA
ATOM     29  C   UNL     1       4.443  10.058   2.194  0.00  0.00    +0.194 C 
ENDBRANCH  22   2
ENDBRANCH  19  22
ENDBRANCH  15   4
ENDBRANCH  10  15
TORSDOF 7
ENDMDL
MODEL 8
REMARK VINA RESULT:      -5.6     21.094     23.849
REMARK  Name = 26742474
REMARK  11 active torsions:
REMARK  status: ('A' for Active; 'I' for Inactive)
REMARK    1  A    between atoms: O_2  and  C_22
REMARK    2  A    between atoms: O_2  and  C_29
REMARK    3  A    between atoms: N_4  and  C_15
REMARK    4  A    between atoms: N_7  and  C_28
REMARK    5  A    between atoms: N_7  and  C_30
REMARK    6  A    between atoms: N_7  and  C_31
REMARK    7  A    between atoms: C_9  and  C_16
REMARK    8  A    between atoms: C_10  and  C_15
REMARK    9  A    between atoms: C_18  and  C_21
REMARK   10  A    between atoms: C_19  and  C_22
REMARK   11  A    between atoms: C_20  and  C_23
REMARK                            x       y       z     vdW  Elec       q    Type
REMARK                         _______ _______ _______ _____ _____    ______ ____
ROOT
ATOM      3  N   UNL     1     -11.357  10.227  16.138  0.00  0.00    -0.297 NA
ATOM      8  C   UNL     1     -10.724   8.117  17.527  0.00  0.00    +0.002 C 
ATOM      9  C   UNL     1     -12.191   8.537  17.816  0.00  0.00    +0.055 C 
ATOM     10  C   UNL     1     -10.071  10.453  16.848  0.00  0.00    +0.074 C 
ATOM     11  C   UNL     1      -9.784   9.300  17.835  0.00  0.00    +0.024 C 
ATOM     12  C   UNL     1     -10.629   7.845  16.010  0.00  0.00    +0.019 C 
ATOM     13  C   UNL     1     -12.428   9.905  17.114  0.00  0.00    +0.094 C 
ATOM     14  C   UNL     1     -11.182   9.058  15.243  0.00  0.00    +0.085 C 
ENDROOT
BRANCH   9  16
ATOM      5  N   UNL     1     -12.404   9.649  19.984  0.00  0.00    -0.237 NA
ATOM      6  N   UNL     1     -13.496   8.603  21.861  0.00  0.00    -0.232 NA
ATOM     16  C   UNL     1     -12.668   8.540  19.261  0.00  0.00    +0.050 A 
ATOM     17  C   UNL     1     -13.331   7.438  19.762  0.00  0.00    +0.052 A 
ATOM     18  C   UNL     1     -13.726   7.528  21.081  0.00  0.00    +0.075 A 
ATOM     20  C   UNL     1     -12.841   9.613  21.258  0.00  0.00    +0.127 A 
ATOM     23  C   UNL     1     -12.566  10.820  22.089  0.00  0.00    +0.088 C 
BRANCH  18  21
ATOM     21  C   UNL     1     -14.427   6.441  21.724  0.00  0.00    +0.001 A 
ATOM     24  C   UNL     1     -13.836   5.764  22.791  0.00  0.00    +0.012 A 
ATOM     25  C   UNL     1     -15.696   6.071  21.279  0.00  0.00    +0.012 A 
ATOM     26  C   UNL     1     -14.514   4.715  23.412  0.00  0.00    +0.024 A 
ATOM     27  C   UNL     1     -16.374   5.022  21.901  0.00  0.00    +0.024 A 
ATOM     28  C   UNL     1     -15.783   4.345  22.967  0.00  0.00    +0.029 A 
BRANCH  28   7
ATOM      7  N   UNL     1     -16.468   3.283  23.595  0.00  0.00    -0.336 N 
ATOM     30  C   UNL     1     -16.066   2.827  24.911  0.00  0.00    +0.129 C 
ATOM     31  C   UNL     1     -17.588   2.641  22.936  0.00  0.00    +0.129 C 
ENDBRANCH  28   7
ENDBRANCH  18  21
ENDBRANCH   9  16
BRANCH  10  15
ATOM     15  C   UNL     1     -10.017  11.819  17.536  0.00  0.00    +0.123 C 
BRANCH  15   4
ATOM      1  O   UNL     1     -10.031  14.515  16.488  0.00  0.00    -0.273 OA
ATOM      4  N   UNL     1      -8.891  12.575  17.081  0.00  0.00    -0.312 N 
ATOM     19  C   UNL     1      -8.988  13.875  16.588  0.00  0.00    +0.239 C 
ATOM     32  H   UNL     1      -7.976  12.133  17.120  0.00  0.00    +0.149 HD
BRANCH  19  22
ATOM     22  C   UNL     1      -7.642  14.434  16.181  0.00  0.00    +0.255 C 
BRANCH  22   2
ATOM      2  O   UNL     1      -6.598  13.762  16.855  0.00  0.00    -0.374 OA
ATOM     29  C   UNL     1      -5.628  14.669  17.370  0.00  0.00    +0.194 C 
ENDBRANCH  22   2
ENDBRANCH  19  22
ENDBRANCH  15   4
ENDBRANCH  10  15
TORSDOF 7
ENDMDL
MODEL 9
REMARK VINA RESULT:      -5.5     23.907     26.567
REMARK  Name = 26742474
REMARK  11 active torsions:
REMARK  status: ('A' for Active; 'I' for Inactive)
REMARK    1  A    between atoms: O_2  and  C_22
REMARK    2  A    between atoms: O_2  and  C_29
REMARK    3  A    between atoms: N_4  and  C_15
REMARK    4  A    between atoms: N_7  and  C_28
REMARK    5  A    between atoms: N_7  and  C_30
REMARK    6  A    between atoms: N_7  and  C_31
REMARK    7  A    between atoms: C_9  and  C_16
REMARK    8  A    between atoms: C_10  and  C_15
REMARK    9  A    between atoms: C_18  and  C_21
REMARK   10  A    between atoms: C_19  and  C_22
REMARK   11  A    between atoms: C_20  and  C_23
REMARK                            x       y       z     vdW  Elec       q    Type
REMARK                         _______ _______ _______ _____ _____    ______ ____
ROOT
ATOM      3  N   UNL     1      10.591   5.241   7.933  0.00  0.00    -0.297 NA
ATOM      8  C   UNL     1       9.268   7.388   7.283  0.00  0.00    +0.002 C 
ATOM      9  C   UNL     1       9.039   6.269   6.230  0.00  0.00    +0.055 C 
ATOM     10  C   UNL     1      11.487   6.426   7.985  0.00  0.00    +0.074 C 
ATOM     11  C   UNL     1      10.780   7.670   7.406  0.00  0.00    +0.024 C 
ATOM     12  C   UNL     1       8.799   6.825   8.641  0.00  0.00    +0.019 C 
ATOM     13  C   UNL     1      10.009   5.103   6.574  0.00  0.00    +0.094 C 
ATOM     14  C   UNL     1       9.481   5.468   8.889  0.00  0.00    +0.085 C 
ENDROOT
BRANCH   9  16
ATOM      5  N   UNL     1       8.361   7.719   4.380  0.00  0.00    -0.237 NA
ATOM      6  N   UNL     1       9.137   7.371   2.125  0.00  0.00    -0.232 NA
ATOM     16  C   UNL     1       9.089   6.646   4.756  0.00  0.00    +0.050 A 
ATOM     17  C   UNL     1       9.854   5.896   3.887  0.00  0.00    +0.052 A 
ATOM     18  C   UNL     1       9.840   6.310   2.571  0.00  0.00    +0.075 A 
ATOM     20  C   UNL     1       8.431   8.021   3.070  0.00  0.00    +0.127 A 
ATOM     23  C   UNL     1       7.638   9.200   2.615  0.00  0.00    +0.088 C 
BRANCH  18  21
ATOM     21  C   UNL     1      10.598   5.609   1.561  0.00  0.00    +0.001 A 
ATOM     24  C   UNL     1      11.772   4.940   1.909  0.00  0.00    +0.012 A 
ATOM     25  C   UNL     1      10.156   5.599   0.239  0.00  0.00    +0.012 A 
ATOM     26  C   UNL     1      12.504   4.263   0.934  0.00  0.00    +0.024 A 
ATOM     27  C   UNL     1      10.888   4.921  -0.736  0.00  0.00    +0.024 A 
ATOM     28  C   UNL     1      12.062   4.253  -0.388  0.00  0.00    +0.029 A 
BRANCH  28   7
ATOM      7  N   UNL     1      12.803   3.569  -1.375  0.00  0.00    -0.336 N 
ATOM     30  C   UNL     1      14.152   3.987  -1.702  0.00  0.00    +0.129 C 
ATOM     31  C   UNL     1      12.228   2.433  -2.068  0.00  0.00    +0.129 C 
ENDBRANCH  28   7
ENDBRANCH  18  21
ENDBRANCH   9  16
BRANCH  10  15
ATOM     15  C   UNL     1      12.834   6.168   7.306  0.00  0.00    +0.123 C 
BRANCH  15   4
ATOM      1  O   UNL     1      15.201   7.575   6.420  0.00  0.00    -0.273 OA
ATOM      4  N   UNL     1      12.973   6.968   6.128  0.00  0.00    -0.312 N 
ATOM     19  C   UNL     1      14.156   7.614   5.775  0.00  0.00    +0.239 C 
ATOM     32  H   UNL     1      12.162   7.068   5.524  0.00  0.00    +0.149 HD
BRANCH  19  22
ATOM     22  C   UNL     1      14.021   8.388   4.481  0.00  0.00    +0.255 C 
BRANCH  22   2
ATOM      2  O   UNL     1      13.843   9.765   4.740  0.00  0.00    -0.374 OA
ATOM     29  C   UNL     1      14.993  10.525   4.384  0.00  0.00    +0.194 C 
ENDBRANCH  22   2
ENDBRANCH  19  22
ENDBRANCH  15   4
ENDBRANCH  10  15
TORSDOF 7
ENDMDL
MODEL 10
REMARK VINA RESULT:      -5.5     25.062     27.704
REMARK  Name = 26742474
REMARK  11 active torsions:
REMARK  status: ('A' for Active; 'I' for Inactive)
REMARK    1  A    between atoms: O_2  and  C_22
REMARK    2  A    between atoms: O_2  and  C_29
REMARK    3  A    between atoms: N_4  and  C_15
REMARK    4  A    between atoms: N_7  and  C_28
REMARK    5  A    between atoms: N_7  and  C_30
REMARK    6  A    between atoms: N_7  and  C_31
REMARK    7  A    between atoms: C_9  and  C_16
REMARK    8  A    between atoms: C_10  and  C_15
REMARK    9  A    between atoms: C_18  and  C_21
REMARK   10  A    between atoms: C_19  and  C_22
REMARK   11  A    between atoms: C_20  and  C_23
REMARK                            x       y       z     vdW  Elec       q    Type
REMARK                         _______ _______ _______ _____ _____    ______ ____
ROOT
ATOM      3  N   UNL     1      18.240  -3.293  22.940  0.00  0.00    -0.297 NA
ATOM      8  C   UNL     1      16.821  -1.818  24.550  0.00  0.00    +0.002 C 
ATOM      9  C   UNL     1      18.315  -1.804  24.976  0.00  0.00    +0.055 C 
ATOM     10  C   UNL     1      17.052  -4.051  23.410  0.00  0.00    +0.074 C 
ATOM     11  C   UNL     1      16.313  -3.274  24.521  0.00  0.00    +0.024 C 
ATOM     12  C   UNL     1      16.765  -1.288  23.102  0.00  0.00    +0.019 C 
ATOM     13  C   UNL     1      19.056  -2.855  24.100  0.00  0.00    +0.094 C 
ATOM     14  C   UNL     1      17.756  -2.082  22.234  0.00  0.00    +0.085 C 
ENDROOT
BRANCH   9  16
ATOM      5  N   UNL     1      19.885  -1.582  26.838  0.00  0.00    -0.237 NA
ATOM      6  N   UNL     1      19.295  -2.190  29.094  0.00  0.00    -0.232 NA
ATOM     16  C   UNL     1      18.644  -1.950  26.455  0.00  0.00    +0.050 A 
ATOM     17  C   UNL     1      17.688  -2.440  27.320  0.00  0.00    +0.052 A 
ATOM     18  C   UNL     1      18.074  -2.538  28.641  0.00  0.00    +0.075 A 
ATOM     20  C   UNL     1      20.139  -1.725  28.153  0.00  0.00    +0.127 A 
ATOM     23  C   UNL     1      21.501  -1.331  28.615  0.00  0.00    +0.088 C 
BRANCH  18  21
ATOM     21  C   UNL     1      17.166  -3.038  29.647  0.00  0.00    +0.001 A 
ATOM     24  C   UNL     1      16.754  -4.370  29.615  0.00  0.00    +0.012 A 
ATOM     25  C   UNL     1      16.702  -2.188  30.651  0.00  0.00    +0.012 A 
ATOM     26  C   UNL     1      15.877  -4.853  30.587  0.00  0.00    +0.024 A 
ATOM     27  C   UNL     1      15.825  -2.671  31.623  0.00  0.00    +0.024 A 
ATOM     28  C   UNL     1      15.413  -4.003  31.590  0.00  0.00    +0.029 A 
BRANCH  28   7
ATOM      7  N   UNL     1      14.526  -4.490  32.573  0.00  0.00    -0.336 N 
ATOM     30  C   UNL     1      14.942  -4.581  33.959  0.00  0.00    +0.129 C 
ATOM     31  C   UNL     1      13.183  -4.900  32.211  0.00  0.00    +0.129 C 
ENDBRANCH  28   7
ENDBRANCH  18  21
ENDBRANCH   9  16
BRANCH  10  15
ATOM     15  C   UNL     1      17.405  -5.475  23.848  0.00  0.00    +0.123 C 
BRANCH  15   4
ATOM      1  O   UNL     1      20.167  -6.261  24.192  0.00  0.00    -0.273 OA
ATOM      4  N   UNL     1      18.249  -6.111  22.883  0.00  0.00    -0.312 N 
ATOM     19  C   UNL     1      19.575  -6.457  23.134  0.00  0.00    +0.239 C 
ATOM     32  H   UNL     1      17.854  -6.315  21.970  0.00  0.00    +0.149 HD
BRANCH  19  22
ATOM     22  C   UNL     1      20.230  -7.118  21.940  0.00  0.00    +0.255 C 
BRANCH  22   2
ATOM      2  O   UNL     1      20.218  -6.254  20.823  0.00  0.00    -0.374 OA
ATOM     29  C   UNL     1      19.476  -6.800  19.737  0.00  0.00    +0.194 C 
ENDBRANCH  22   2
ENDBRANCH  19  22
ENDBRANCH  15   4
ENDBRANCH  10  15
TORSDOF 7
ENDMDL
