MODEL 1
REMARK VINA RESULT:      -6.8      0.000      0.000
REMARK  Name = 11912157
REMARK  2 active torsions:
REMARK  status: ('A' for Active; 'I' for Inactive)
REMARK    1  A    between atoms: N_5  and  C_16
REMARK    2  A    between atoms: C_18  and  C_19
REMARK                            x       y       z     vdW  Elec       q    Type
REMARK                         _______ _______ _______ _____ _____    ______ ____
ROOT
ATOM      1  O   UNL     1      16.962   8.828  21.315  0.00  0.00    -0.266 OA
ATOM      3  N   UNL     1      18.817   7.402  21.292  0.00  0.00    -0.310 N 
ATOM      4  N   UNL     1      21.849   8.002  20.464  0.00  0.00    -0.315 NA
ATOM      7  C   UNL     1      20.880   7.768  22.766  0.00  0.00    +0.023 C 
ATOM      8  C   UNL     1      20.809   5.861  21.227  0.00  0.00    +0.050 C 
ATOM      9  C   UNL     1      21.019   6.253  22.688  0.00  0.00    +0.017 C 
ATOM     10  C   UNL     1      19.442   8.152  22.388  0.00  0.00    +0.130 C 
ATOM     11  C   UNL     1      21.929   8.440  21.858  0.00  0.00    +0.086 C 
ATOM     12  C   UNL     1      21.883   6.542  20.353  0.00  0.00    +0.090 C 
ATOM     13  C   UNL     1      19.418   6.254  20.761  0.00  0.00    +0.026 A 
ATOM     14  C   UNL     1      18.780   5.516  19.834  0.00  0.00    +0.024 A 
ATOM     15  C   UNL     1      17.541   7.837  20.873  0.00  0.00    +0.273 A 
ATOM     16  C   UNL     1      16.898   6.995  19.833  0.00  0.00    +0.099 A 
ATOM     17  C   UNL     1      17.479   5.896  19.351  0.00  0.00    +0.030 A 
ATOM     24  H   UNL     1      22.620   8.405  19.933  0.00  0.00    +0.122 HD
ENDROOT
BRANCH  16   5
ATOM      2  O   UNL     1      14.391   6.317  21.014  0.00  0.00    -0.270 OA
ATOM      5  N   UNL     1      15.667   7.389  19.392  0.00  0.00    -0.277 N 
ATOM     18  C   UNL     1      14.481   7.024  20.013  0.00  0.00    +0.248 C 
ATOM     25  H   UNL     1      15.631   7.780  18.453  0.00  0.00    +0.155 HD
BRANCH  18  19
ATOM      6  N   UNL     1      10.936   8.581  18.265  0.00  0.00    -0.263 NA
ATOM     19  C   UNL     1      13.241   7.568  19.401  0.00  0.00    +0.040 A 
ATOM     20  C   UNL     1      12.228   8.002  20.224  0.00  0.00    +0.033 A 
ATOM     21  C   UNL     1      13.143   7.622  18.031  0.00  0.00    +0.033 A 
ATOM     22  C   UNL     1      11.094   8.502  19.605  0.00  0.00    +0.111 A 
ATOM     23  C   UNL     1      11.967   8.139  17.510  0.00  0.00    +0.111 A 
ENDBRANCH  18  19
ENDBRANCH  16   5
TORSDOF 2
ENDMDL
MODEL 2
REMARK VINA RESULT:      -6.7      2.272      7.681
REMARK  Name = 11912157
REMARK  2 active torsions:
REMARK  status: ('A' for Active; 'I' for Inactive)
REMARK    1  A    between atoms: N_5  and  C_16
REMARK    2  A    between atoms: C_18  and  C_19
REMARK                            x       y       z     vdW  Elec       q    Type
REMARK                         _______ _______ _______ _____ _____    ______ ____
ROOT
ATOM      1  O   UNL     1      16.309   9.455  22.101  0.00  0.00    -0.266 OA
ATOM      3  N   UNL     1      14.111   9.034  21.419  0.00  0.00    -0.310 N 
ATOM      4  N   UNL     1      11.396   9.101  23.111  0.00  0.00    -0.315 NA
ATOM      7  C   UNL     1      12.263  10.806  21.489  0.00  0.00    +0.023 C 
ATOM      8  C   UNL     1      11.747   8.543  20.700  0.00  0.00    +0.050 C 
ATOM      9  C   UNL     1      11.673  10.022  20.324  0.00  0.00    +0.017 C 
ATOM     10  C   UNL     1      13.747  10.440  21.630  0.00  0.00    +0.130 C 
ATOM     11  C   UNL     1      11.460  10.523  22.774  0.00  0.00    +0.086 C 
ATOM     12  C   UNL     1      10.923   8.297  21.982  0.00  0.00    +0.090 C 
ATOM     13  C   UNL     1      13.189   8.113  20.906  0.00  0.00    +0.026 A 
ATOM     14  C   UNL     1      13.569   6.855  20.615  0.00  0.00    +0.024 A 
ATOM     15  C   UNL     1      15.456   8.683  21.665  0.00  0.00    +0.273 A 
ATOM     16  C   UNL     1      15.810   7.277  21.346  0.00  0.00    +0.099 A 
ATOM     17  C   UNL     1      14.922   6.420  20.842  0.00  0.00    +0.030 A 
ATOM     24  H   UNL     1      10.779   8.965  23.911  0.00  0.00    +0.122 HD
ENDROOT
BRANCH  16   5
ATOM      2  O   UNL     1      17.676   6.359  19.392  0.00  0.00    -0.270 OA
ATOM      5  N   UNL     1      17.100   6.894  21.581  0.00  0.00    -0.277 N 
ATOM     18  C   UNL     1      17.959   6.456  20.584  0.00  0.00    +0.248 C 
ATOM     25  H   UNL     1      17.347   6.726  22.554  0.00  0.00    +0.155 HD
BRANCH  18  19
ATOM      6  N   UNL     1      21.887   5.450  21.855  0.00  0.00    -0.263 NA
ATOM     19  C   UNL     1      19.333   6.104  21.028  0.00  0.00    +0.040 A 
ATOM     20  C   UNL     1      19.818   6.657  22.190  0.00  0.00    +0.033 A 
ATOM     21  C   UNL     1      20.078   5.237  20.265  0.00  0.00    +0.033 A 
ATOM     22  C   UNL     1      21.104   6.297  22.561  0.00  0.00    +0.111 A 
ATOM     23  C   UNL     1      21.352   4.940  20.723  0.00  0.00    +0.111 A 
ENDBRANCH  18  19
ENDBRANCH  16   5
TORSDOF 2
ENDMDL
MODEL 3
REMARK VINA RESULT:      -6.7      1.749      7.763
REMARK  Name = 11912157
REMARK  2 active torsions:
REMARK  status: ('A' for Active; 'I' for Inactive)
REMARK    1  A    between atoms: N_5  and  C_16
REMARK    2  A    between atoms: C_18  and  C_19
REMARK                            x       y       z     vdW  Elec       q    Type
REMARK                         _______ _______ _______ _____ _____    ______ ____
ROOT
ATOM      1  O   UNL     1      15.842   6.218  18.990  0.00  0.00    -0.266 OA
ATOM      3  N   UNL     1      14.116   7.670  19.611  0.00  0.00    -0.310 N 
ATOM      4  N   UNL     1      13.196  10.436  18.293  0.00  0.00    -0.315 NA
ATOM      7  C   UNL     1      12.111   8.183  18.103  0.00  0.00    +0.023 C 
ATOM      8  C   UNL     1      12.284   9.257  20.299  0.00  0.00    +0.050 C 
ATOM      9  C   UNL     1      11.371   8.410  19.415  0.00  0.00    +0.017 C 
ATOM     10  C   UNL     1      13.374   7.358  18.384  0.00  0.00    +0.130 C 
ATOM     11  C   UNL     1      12.424   9.537  17.435  0.00  0.00    +0.086 C 
ATOM     12  C   UNL     1      12.566  10.606  19.604  0.00  0.00    +0.090 C 
ATOM     13  C   UNL     1      13.584   8.526  20.585  0.00  0.00    +0.026 A 
ATOM     14  C   UNL     1      14.226   8.715  21.752  0.00  0.00    +0.024 A 
ATOM     15  C   UNL     1      15.338   6.991  19.804  0.00  0.00    +0.273 A 
ATOM     16  C   UNL     1      16.009   7.256  21.101  0.00  0.00    +0.099 A 
ATOM     17  C   UNL     1      15.479   8.061  22.022  0.00  0.00    +0.030 A 
ATOM     24  H   UNL     1      13.292  11.344  17.838  0.00  0.00    +0.122 HD
ENDROOT
BRANCH  16   5
ATOM      2  O   UNL     1      18.597   8.452  20.967  0.00  0.00    -0.270 OA
ATOM      5  N   UNL     1      17.201   6.625  21.322  0.00  0.00    -0.277 N 
ATOM     18  C   UNL     1      18.429   7.266  21.241  0.00  0.00    +0.248 C 
ATOM     25  H   UNL     1      17.175   5.609  21.328  0.00  0.00    +0.155 HD
BRANCH  18  19
ATOM      6  N   UNL     1      21.820   4.848  22.085  0.00  0.00    -0.263 NA
ATOM     19  C   UNL     1      19.615   6.420  21.536  0.00  0.00    +0.040 A 
ATOM     20  C   UNL     1      20.255   6.570  22.743  0.00  0.00    +0.033 A 
ATOM     21  C   UNL     1      20.037   5.514  20.593  0.00  0.00    +0.033 A 
ATOM     22  C   UNL     1      21.355   5.757  22.970  0.00  0.00    +0.111 A 
ATOM     23  C   UNL     1      21.147   4.748  20.916  0.00  0.00    +0.111 A 
ENDBRANCH  18  19
ENDBRANCH  16   5
TORSDOF 2
ENDMDL
MODEL 4
REMARK VINA RESULT:      -6.6      3.180      5.022
REMARK  Name = 11912157
REMARK  2 active torsions:
REMARK  status: ('A' for Active; 'I' for Inactive)
REMARK    1  A    between atoms: N_5  and  C_16
REMARK    2  A    between atoms: C_18  and  C_19
REMARK                            x       y       z     vdW  Elec       q    Type
REMARK                         _______ _______ _______ _____ _____    ______ ____
ROOT
ATOM      1  O   UNL     1      21.987   7.194  19.947  0.00  0.00    -0.266 OA
ATOM      3  N   UNL     1      23.326   5.393  20.609  0.00  0.00    -0.310 N 
ATOM      4  N   UNL     1      25.564   3.798  18.970  0.00  0.00    -0.315 NA
ATOM      7  C   UNL     1      25.879   5.530  20.755  0.00  0.00    +0.023 C 
ATOM      8  C   UNL     1      24.743   3.429  21.302  0.00  0.00    +0.050 C 
ATOM      9  C   UNL     1      25.726   4.468  21.836  0.00  0.00    +0.017 C 
ATOM     10  C   UNL     1      24.529   6.233  20.556  0.00  0.00    +0.130 C 
ATOM     11  C   UNL     1      26.409   4.887  19.458  0.00  0.00    +0.086 C 
ATOM     12  C   UNL     1      25.311   2.800  20.011  0.00  0.00    +0.090 C 
ATOM     13  C   UNL     1      23.388   4.059  21.032  0.00  0.00    +0.026 A 
ATOM     14  C   UNL     1      22.262   3.337  21.180  0.00  0.00    +0.024 A 
ATOM     15  C   UNL     1      22.099   6.023  20.309  0.00  0.00    +0.273 A 
ATOM     16  C   UNL     1      20.896   5.169  20.469  0.00  0.00    +0.099 A 
ATOM     17  C   UNL     1      20.973   3.907  20.889  0.00  0.00    +0.030 A 
ATOM     24  H   UNL     1      26.008   3.352  18.168  0.00  0.00    +0.122 HD
ENDROOT
BRANCH  16   5
ATOM      2  O   UNL     1      19.251   6.645  22.275  0.00  0.00    -0.270 OA
ATOM      5  N   UNL     1      19.689   5.740  20.177  0.00  0.00    -0.277 N 
ATOM     18  C   UNL     1      18.936   6.447  21.104  0.00  0.00    +0.248 C 
ATOM     25  H   UNL     1      19.248   5.437  19.312  0.00  0.00    +0.155 HD
BRANCH  18  19
ATOM      6  N   UNL     1      15.286   8.067  19.651  0.00  0.00    -0.263 NA
ATOM     19  C   UNL     1      17.659   7.014  20.596  0.00  0.00    +0.040 A 
ATOM     20  C   UNL     1      16.927   6.291  19.683  0.00  0.00    +0.033 A 
ATOM     21  C   UNL     1      17.249   8.243  21.053  0.00  0.00    +0.033 A 
ATOM     22  C   UNL     1      15.744   6.863  19.242  0.00  0.00    +0.111 A 
ATOM     23  C   UNL     1      16.051   8.728  20.549  0.00  0.00    +0.111 A 
ENDBRANCH  18  19
ENDBRANCH  16   5
TORSDOF 2
ENDMDL
MODEL 5
REMARK VINA RESULT:      -6.5     17.255     20.729
REMARK  Name = 11912157
REMARK  2 active torsions:
REMARK  status: ('A' for Active; 'I' for Inactive)
REMARK    1  A    between atoms: N_5  and  C_16
REMARK    2  A    between atoms: C_18  and  C_19
REMARK                            x       y       z     vdW  Elec       q    Type
REMARK                         _______ _______ _______ _____ _____    ______ ____
ROOT
ATOM      1  O   UNL     1       9.794   5.482   1.126  0.00  0.00    -0.266 OA
ATOM      3  N   UNL     1      11.179   4.440  -0.445  0.00  0.00    -0.310 N 
ATOM      4  N   UNL     1      10.511   2.113  -2.538  0.00  0.00    -0.315 NA
ATOM      7  C   UNL     1      10.773   4.570  -2.971  0.00  0.00    +0.023 C 
ATOM      8  C   UNL     1      12.677   3.287  -2.112  0.00  0.00    +0.050 C 
ATOM      9  C   UNL     1      12.284   4.408  -3.072  0.00  0.00    +0.017 C 
ATOM     10  C   UNL     1      10.419   5.035  -1.551  0.00  0.00    +0.130 C 
ATOM     11  C   UNL     1      10.076   3.249  -3.351  0.00  0.00    +0.086 C 
ATOM     12  C   UNL     1      11.970   1.980  -2.531  0.00  0.00    +0.090 C 
ATOM     13  C   UNL     1      12.313   3.652  -0.683  0.00  0.00    +0.026 A 
ATOM     14  C   UNL     1      13.062   3.206   0.342  0.00  0.00    +0.024 A 
ATOM     15  C   UNL     1      10.771   4.782   0.862  0.00  0.00    +0.273 A 
ATOM     16  C   UNL     1      11.624   4.243   1.951  0.00  0.00    +0.099 A 
ATOM     17  C   UNL     1      12.709   3.509   1.704  0.00  0.00    +0.030 A 
ATOM     24  H   UNL     1      10.091   1.255  -2.893  0.00  0.00    +0.122 HD
ENDROOT
BRANCH  16   5
ATOM      2  O   UNL     1      12.208   6.662   3.348  0.00  0.00    -0.270 OA
ATOM      5  N   UNL     1      11.255   4.543   3.232  0.00  0.00    -0.277 N 
ATOM     18  C   UNL     1      11.572   5.741   3.855  0.00  0.00    +0.248 C 
ATOM     25  H   UNL     1      10.930   3.763   3.798  0.00  0.00    +0.155 HD
BRANCH  18  19
ATOM      6  N   UNL     1      10.123   6.183   7.825  0.00  0.00    -0.263 NA
ATOM     19  C   UNL     1      11.065   5.896   5.244  0.00  0.00    +0.040 A 
ATOM     20  C   UNL     1       9.981   5.151   5.643  0.00  0.00    +0.033 A 
ATOM     21  C   UNL     1      11.695   6.779   6.088  0.00  0.00    +0.033 A 
ATOM     22  C   UNL     1       9.548   5.331   6.947  0.00  0.00    +0.111 A 
ATOM     23  C   UNL     1      11.185   6.886   7.372  0.00  0.00    +0.111 A 
ENDBRANCH  18  19
ENDBRANCH  16   5
TORSDOF 2
ENDMDL
MODEL 6
REMARK VINA RESULT:      -6.5     28.493     31.348
REMARK  Name = 11912157
REMARK  2 active torsions:
REMARK  status: ('A' for Active; 'I' for Inactive)
REMARK    1  A    between atoms: N_5  and  C_16
REMARK    2  A    between atoms: C_18  and  C_19
REMARK                            x       y       z     vdW  Elec       q    Type
REMARK                         _______ _______ _______ _____ _____    ______ ____
ROOT
ATOM      1  O   UNL     1       1.491   3.987  -8.239  0.00  0.00    -0.266 OA
ATOM      3  N   UNL     1       2.737   5.144  -6.632  0.00  0.00    -0.310 N 
ATOM      4  N   UNL     1       5.884   5.093  -6.057  0.00  0.00    -0.315 NA
ATOM      7  C   UNL     1       4.544   6.857  -7.231  0.00  0.00    +0.023 C 
ATOM      8  C   UNL     1       4.079   6.356  -4.878  0.00  0.00    +0.050 C 
ATOM      9  C   UNL     1       4.176   7.490  -5.896  0.00  0.00    +0.017 C 
ATOM     10  C   UNL     1       3.398   5.938  -7.675  0.00  0.00    +0.130 C 
ATOM     11  C   UNL     1       5.887   6.110  -7.108  0.00  0.00    +0.086 C 
ATOM     12  C   UNL     1       5.443   5.641  -4.773  0.00  0.00    +0.090 C 
ATOM     13  C   UNL     1       2.993   5.371  -5.273  0.00  0.00    +0.026 A 
ATOM     14  C   UNL     1       2.298   4.712  -4.328  0.00  0.00    +0.024 A 
ATOM     15  C   UNL     1       1.765   4.215  -7.061  0.00  0.00    +0.273 A 
ATOM     16  C   UNL     1       1.048   3.503  -5.973  0.00  0.00    +0.099 A 
ATOM     17  C   UNL     1       1.294   3.745  -4.686  0.00  0.00    +0.030 A 
ATOM     24  H   UNL     1       6.820   4.699  -5.958  0.00  0.00    +0.122 HD
ENDROOT
BRANCH  16   5
ATOM      2  O   UNL     1       1.322   0.664  -5.859  0.00  0.00    -0.270 OA
ATOM      5  N   UNL     1       0.107   2.587  -6.348  0.00  0.00    -0.277 N 
ATOM     18  C   UNL     1       0.303   1.216  -6.268  0.00  0.00    +0.248 C 
ATOM     25  H   UNL     1      -0.667   2.943  -6.904  0.00  0.00    +0.155 HD
BRANCH  18  19
ATOM      6  N   UNL     1      -2.979  -1.184  -7.506  0.00  0.00    -0.263 NA
ATOM     19  C   UNL     1      -0.845   0.376  -6.702  0.00  0.00    +0.040 A 
ATOM     20  C   UNL     1      -0.968  -0.896  -6.194  0.00  0.00    +0.033 A 
ATOM     21  C   UNL     1      -1.750   0.897  -7.596  0.00  0.00    +0.033 A 
ATOM     22  C   UNL     1      -2.055  -1.637  -6.629  0.00  0.00    +0.111 A 
ATOM     23  C   UNL     1      -2.802   0.075  -7.968  0.00  0.00    +0.111 A 
ENDBRANCH  18  19
ENDBRANCH  16   5
TORSDOF 2
ENDMDL
MODEL 7
REMARK VINA RESULT:      -6.4     33.168     34.555
REMARK  Name = 11912157
REMARK  2 active torsions:
REMARK  status: ('A' for Active; 'I' for Inactive)
REMARK    1  A    between atoms: N_5  and  C_16
REMARK    2  A    between atoms: C_18  and  C_19
REMARK                            x       y       z     vdW  Elec       q    Type
REMARK                         _______ _______ _______ _____ _____    ______ ____
ROOT
ATOM      1  O   UNL     1     -15.416   0.531  28.824  0.00  0.00    -0.266 OA
ATOM      3  N   UNL     1     -14.963   2.324  30.256  0.00  0.00    -0.310 N 
ATOM      4  N   UNL     1     -15.851   2.790  33.295  0.00  0.00    -0.315 NA
ATOM      7  C   UNL     1     -13.611   2.079  32.418  0.00  0.00    +0.023 C 
ATOM      8  C   UNL     1     -14.511   4.271  31.791  0.00  0.00    +0.050 C 
ATOM      9  C   UNL     1     -13.229   3.532  32.168  0.00  0.00    +0.017 C 
ATOM     10  C   UNL     1     -14.124   1.470  31.106  0.00  0.00    +0.130 C 
ATOM     11  C   UNL     1     -14.650   1.996  33.554  0.00  0.00    +0.086 C 
ATOM     12  C   UNL     1     -15.521   4.176  32.955  0.00  0.00    +0.090 C 
ATOM     13  C   UNL     1     -15.111   3.692  30.521  0.00  0.00    +0.026 A 
ATOM     14  C   UNL     1     -15.792   4.482  29.671  0.00  0.00    +0.024 A 
ATOM     15  C   UNL     1     -15.527   1.722  29.111  0.00  0.00    +0.273 A 
ATOM     16  C   UNL     1     -16.286   2.640  28.224  0.00  0.00    +0.099 A 
ATOM     17  C   UNL     1     -16.401   3.942  28.485  0.00  0.00    +0.030 A 
ATOM     24  H   UNL     1     -16.457   2.773  34.115  0.00  0.00    +0.122 HD
ENDROOT
BRANCH  16   5
ATOM      2  O   UNL     1     -15.648   3.280  25.518  0.00  0.00    -0.270 OA
ATOM      5  N   UNL     1     -16.857   2.093  27.111  0.00  0.00    -0.277 N 
ATOM     18  C   UNL     1     -16.501   2.449  25.818  0.00  0.00    +0.248 C 
ATOM     25  H   UNL     1     -17.718   1.572  27.260  0.00  0.00    +0.155 HD
BRANCH  18  19
ATOM      6  N   UNL     1     -18.549   0.390  22.716  0.00  0.00    -0.263 NA
ATOM     19  C   UNL     1     -17.218   1.728  24.733  0.00  0.00    +0.040 A 
ATOM     20  C   UNL     1     -17.354   2.337  23.508  0.00  0.00    +0.033 A 
ATOM     21  C   UNL     1     -17.722   0.475  24.987  0.00  0.00    +0.033 A 
ATOM     22  C   UNL     1     -18.029   1.624  22.530  0.00  0.00    +0.111 A 
ATOM     23  C   UNL     1     -18.381  -0.155  23.942  0.00  0.00    +0.111 A 
ENDBRANCH  18  19
ENDBRANCH  16   5
TORSDOF 2
ENDMDL
MODEL 8
REMARK VINA RESULT:      -6.2     27.694     29.684
REMARK  Name = 11912157
REMARK  2 active torsions:
REMARK  status: ('A' for Active; 'I' for Inactive)
REMARK    1  A    between atoms: N_5  and  C_16
REMARK    2  A    between atoms: C_18  and  C_19
REMARK                            x       y       z     vdW  Elec       q    Type
REMARK                         _______ _______ _______ _____ _____    ______ ____
ROOT
ATOM      1  O   UNL     1      -6.613 -10.114  14.281  0.00  0.00    -0.266 OA
ATOM      3  N   UNL     1      -4.311 -10.524  14.215  0.00  0.00    -0.310 N 
ATOM      4  N   UNL     1      -2.717 -13.065  13.100  0.00  0.00    -0.315 NA
ATOM      7  C   UNL     1      -3.005 -10.815  12.031  0.00  0.00    +0.023 C 
ATOM      8  C   UNL     1      -1.835 -10.989  14.178  0.00  0.00    +0.050 C 
ATOM      9  C   UNL     1      -1.832 -10.265  12.833  0.00  0.00    +0.017 C 
ATOM     10  C   UNL     1      -4.311 -10.447  12.749  0.00  0.00    +0.130 C 
ATOM     11  C   UNL     1      -2.844 -12.336  11.839  0.00  0.00    +0.086 C 
ATOM     12  C   UNL     1      -1.660 -12.506  13.946  0.00  0.00    +0.090 C 
ATOM     13  C   UNL     1      -3.123 -10.714  14.934  0.00  0.00    +0.026 A 
ATOM     14  C   UNL     1      -3.125 -10.672  16.279  0.00  0.00    +0.024 A 
ATOM     15  C   UNL     1      -5.545 -10.300  14.862  0.00  0.00    +0.273 A 
ATOM     16  C   UNL     1      -5.487 -10.286  16.346  0.00  0.00    +0.099 A 
ATOM     17  C   UNL     1      -4.344 -10.452  17.011  0.00  0.00    +0.030 A 
ATOM     24  H   UNL     1      -2.521 -14.048  12.911  0.00  0.00    +0.122 HD
ENDROOT
BRANCH  16   5
ATOM      2  O   UNL     1      -7.207 -12.314  17.382  0.00  0.00    -0.270 OA
ATOM      5  N   UNL     1      -6.663 -10.083  17.010  0.00  0.00    -0.277 N 
ATOM     18  C   UNL     1      -7.456 -11.115  17.490  0.00  0.00    +0.248 C 
ATOM     25  H   UNL     1      -7.057  -9.147  16.945  0.00  0.00    +0.155 HD
BRANCH  18  19
ATOM      6  N   UNL     1     -10.982  -9.921  19.539  0.00  0.00    -0.263 NA
ATOM     19  C   UNL     1      -8.689 -10.698  18.206  0.00  0.00    +0.040 A 
ATOM     20  C   UNL     1      -8.932 -11.201  19.463  0.00  0.00    +0.033 A 
ATOM     21  C   UNL     1      -9.551  -9.821  17.592  0.00  0.00    +0.033 A 
ATOM     22  C   UNL     1     -10.094 -10.780  20.089  0.00  0.00    +0.111 A 
ATOM     23  C   UNL     1     -10.686  -9.462  18.302  0.00  0.00    +0.111 A 
ENDBRANCH  18  19
ENDBRANCH  16   5
TORSDOF 2
ENDMDL
MODEL 9
REMARK VINA RESULT:      -6.1     28.490     31.105
REMARK  Name = 11912157
REMARK  2 active torsions:
REMARK  status: ('A' for Active; 'I' for Inactive)
REMARK    1  A    between atoms: N_5  and  C_16
REMARK    2  A    between atoms: C_18  and  C_19
REMARK                            x       y       z     vdW  Elec       q    Type
REMARK                         _______ _______ _______ _____ _____    ______ ____
ROOT
ATOM      1  O   UNL     1     -15.176   7.484  19.602  0.00  0.00    -0.266 OA
ATOM      3  N   UNL     1     -13.122   8.360  18.908  0.00  0.00    -0.310 N 
ATOM      4  N   UNL     1     -11.547   7.948  16.153  0.00  0.00    -0.315 NA
ATOM      7  C   UNL     1     -12.880   9.935  16.903  0.00  0.00    +0.023 C 
ATOM      8  C   UNL     1     -10.891   9.269  18.170  0.00  0.00    +0.050 C 
ATOM      9  C   UNL     1     -11.676  10.477  17.662  0.00  0.00    +0.017 C 
ATOM     10  C   UNL     1     -13.784   9.178  17.884  0.00  0.00    +0.130 C 
ATOM     11  C   UNL     1     -12.408   9.052  15.730  0.00  0.00    +0.086 C 
ATOM     12  C   UNL     1     -10.426   8.417  16.970  0.00  0.00    +0.090 C 
ATOM     13  C   UNL     1     -11.738   8.436  19.116  0.00  0.00    +0.026 A 
ATOM     14  C   UNL     1     -11.162   7.765  20.129  0.00  0.00    +0.024 A 
ATOM     15  C   UNL     1     -13.956   7.575  19.731  0.00  0.00    +0.273 A 
ATOM     16  C   UNL     1     -13.261   6.840  20.817  0.00  0.00    +0.099 A 
ATOM     17  C   UNL     1     -11.945   6.939  21.010  0.00  0.00    +0.030 A 
ATOM     24  H   UNL     1     -11.192   7.456  15.333  0.00  0.00    +0.122 HD
ENDROOT
BRANCH  16   5
ATOM      2  O   UNL     1     -14.671   7.709  23.142  0.00  0.00    -0.270 OA
ATOM      5  N   UNL     1     -14.033   6.059  21.630  0.00  0.00    -0.277 N 
ATOM     18  C   UNL     1     -14.694   6.545  22.749  0.00  0.00    +0.248 C 
ATOM     25  H   UNL     1     -13.927   5.054  21.517  0.00  0.00    +0.155 HD
BRANCH  18  19
ATOM      6  N   UNL     1     -17.014   3.698  24.887  0.00  0.00    -0.263 NA
ATOM     19  C   UNL     1     -15.505   5.549  23.497  0.00  0.00    +0.040 A 
ATOM     20  C   UNL     1     -16.832   5.818  23.739  0.00  0.00    +0.033 A 
ATOM     21  C   UNL     1     -14.906   4.388  23.926  0.00  0.00    +0.033 A 
ATOM     22  C   UNL     1     -17.545   4.857  24.439  0.00  0.00    +0.111 A 
ATOM     23  C   UNL     1     -15.705   3.492  24.618  0.00  0.00    +0.111 A 
ENDBRANCH  18  19
ENDBRANCH  16   5
TORSDOF 2
ENDMDL
MODEL 10
REMARK VINA RESULT:      -6.0     26.946     29.422
REMARK  Name = 11912157
REMARK  2 active torsions:
REMARK  status: ('A' for Active; 'I' for Inactive)
REMARK    1  A    between atoms: N_5  and  C_16
REMARK    2  A    between atoms: C_18  and  C_19
REMARK                            x       y       z     vdW  Elec       q    Type
REMARK                         _______ _______ _______ _____ _____    ______ ____
ROOT
ATOM      1  O   UNL     1      -6.319 -10.038  12.341  0.00  0.00    -0.266 OA
ATOM      3  N   UNL     1      -4.218 -10.779  13.054  0.00  0.00    -0.310 N 
ATOM      4  N   UNL     1      -2.536  -9.966  15.652  0.00  0.00    -0.315 NA
ATOM      7  C   UNL     1      -3.856 -12.058  15.243  0.00  0.00    +0.023 C 
ATOM      8  C   UNL     1      -1.939 -11.543  13.807  0.00  0.00    +0.050 C 
ATOM      9  C   UNL     1      -2.675 -12.681  14.510  0.00  0.00    +0.017 C 
ATOM     10  C   UNL     1      -4.818 -11.457  14.209  0.00  0.00    +0.130 C 
ATOM     11  C   UNL     1      -3.354 -11.015  16.260  0.00  0.00    +0.086 C 
ATOM     12  C   UNL     1      -1.441 -10.526  14.857  0.00  0.00    +0.090 C 
ATOM     13  C   UNL     1      -2.844 -10.861  12.796  0.00  0.00    +0.026 A 
ATOM     14  C   UNL     1      -2.327 -10.327  11.674  0.00  0.00    +0.024 A 
ATOM     15  C   UNL     1      -5.104 -10.127  12.170  0.00  0.00    +0.273 A 
ATOM     16  C   UNL     1      -4.472  -9.539  10.963  0.00  0.00    +0.099 A 
ATOM     17  C   UNL     1      -3.164  -9.642  10.726  0.00  0.00    +0.030 A 
ATOM     24  H   UNL     1      -2.156  -9.361  16.380  0.00  0.00    +0.122 HD
ENDROOT
BRANCH  16   5
ATOM      2  O   UNL     1      -5.835 -10.713   8.747  0.00  0.00    -0.270 OA
ATOM      5  N   UNL     1      -5.295  -8.889  10.087  0.00  0.00    -0.277 N 
ATOM     18  C   UNL     1      -5.930  -9.520   9.026  0.00  0.00    +0.248 C 
ATOM     25  H   UNL     1      -5.252  -7.873  10.102  0.00  0.00    +0.155 HD
BRANCH  18  19
ATOM      6  N   UNL     1      -8.432  -7.043   6.648  0.00  0.00    -0.263 NA
ATOM     19  C   UNL     1      -6.805  -8.653   8.194  0.00  0.00    +0.040 A 
ATOM     20  C   UNL     1      -7.032  -9.000   6.883  0.00  0.00    +0.033 A 
ATOM     21  C   UNL     1      -7.362  -7.531   8.760  0.00  0.00    +0.033 A 
ATOM     22  C   UNL     1      -7.855  -8.160   6.151  0.00  0.00    +0.111 A 
ATOM     23  C   UNL     1      -8.171  -6.757   7.943  0.00  0.00    +0.111 A 
ENDBRANCH  18  19
ENDBRANCH  16   5
TORSDOF 2
ENDMDL
