REMARK  Name = 86769450
REMARK  1 active torsions:
REMARK  status: ('A' for Active; 'I' for Inactive)
REMARK    1  A    between atoms: N_3  and  C_9
REMARK                            x       y       z     vdW  Elec       q    Type
REMARK                         _______ _______ _______ _____ _____    ______ ____
ROOT
ATOM      2  O   UNL     1       2.188   2.405   0.175  0.00  0.00    -0.252 OA
ATOM      3  N   UNL     1      -2.406   0.335  -0.281  0.00  0.00    -0.296 NA
ATOM      4  N   UNL     1       0.281   1.167  -0.341  0.00  0.00    -0.278 N 
ATOM      5  N   UNL     1       2.236   0.037  -0.175  0.00  0.00    -0.238 N 
ATOM      6  N   UNL     1       4.484   0.688   0.290  0.00  0.00    -0.240 NA
ATOM      7  C   UNL     1      -0.046  -0.175  -0.752  0.00  0.00    +0.109 C 
ATOM      8  C   UNL     1      -1.327  -0.650  -0.068  0.00  0.00    +0.108 C 
ATOM     10  C   UNL     1      -2.033   1.651   0.275  0.00  0.00    +0.104 C 
ATOM     11  C   UNL     1      -0.750   2.185  -0.367  0.00  0.00    +0.125 C 
ATOM     12  C   UNL     1       1.204  -0.970  -0.397  0.00  0.00    +0.140 C 
ATOM     15  C   UNL     1       1.651   1.336  -0.086  0.00  0.00    +0.311 C 
ATOM     18  C   UNL     1       3.609  -0.301   0.004  0.00  0.00    +0.129 A 
ATOM     19  C   UNL     1       3.961  -1.635  -0.129  0.00  0.00    +0.044 A 
ATOM     20  C   UNL     1       5.298  -1.975   0.044  0.00  0.00    +0.005 A 
ATOM     21  C   UNL     1       5.775   0.320   0.452  0.00  0.00    +0.113 A 
ATOM     22  C   UNL     1       6.229  -0.985   0.340  0.00  0.00    +0.020 A 
ENDROOT
BRANCH   3   9
ATOM      1  O   UNL     1      -6.385  -0.978  -0.015  0.00  0.00    -0.380 OA
ATOM      9  C   UNL     1      -3.652  -0.136   0.319  0.00  0.00    +0.061 C 
ATOM     13  C   UNL     1      -4.025  -1.526  -0.205  0.00  0.00    +0.047 C 
ATOM     14  C   UNL     1      -4.787   0.852   0.035  0.00  0.00    +0.047 C 
ATOM     16  C   UNL     1      -5.391  -1.945   0.327  0.00  0.00    +0.161 C 
ATOM     17  C   UNL     1      -6.111   0.302   0.554  0.00  0.00    +0.161 C 
ENDBRANCH   3   9
TORSDOF 1
