MODEL 1
REMARK VINA RESULT:      -6.9      0.000      0.000
REMARK  Name = 26744411
REMARK  6 active torsions:
REMARK  status: ('A' for Active; 'I' for Inactive)
REMARK    1  A    between atoms: O_2  and  C_9
REMARK    2  A    between atoms: N_4  and  C_11
REMARK    3  A    between atoms: C_7  and  C_12
REMARK    4  A    between atoms: C_11  and  C_13
REMARK    5  A    between atoms: C_11  and  C_14
REMARK    6  A    between atoms: C_15  and  C_16
REMARK                            x       y       z     vdW  Elec       q    Type
REMARK                         _______ _______ _______ _____ _____    ______ ____
ROOT
ATOM      3  O   UNL     1      14.946   8.657  20.130  0.00  0.00    -0.336 OA
ATOM      5  N   UNL     1      15.485   6.485  20.032  0.00  0.00    -0.190 NA
ATOM      6  N   UNL     1      16.314   8.581  20.424  0.00  0.00    -0.056 NA
ATOM     12  C   UNL     1      14.536   7.379  19.912  0.00  0.00    +0.245 A 
ATOM     15  C   UNL     1      16.556   7.269  20.346  0.00  0.00    +0.202 A 
ENDROOT
BRANCH  15  16
ATOM      1  F   UNL     1      21.599   5.097  21.245  0.00  0.00    -0.205 F 
ATOM     16  C   UNL     1      17.856   6.709  20.578  0.00  0.00    +0.023 A 
ATOM     17  C   UNL     1      18.316   5.661  19.780  0.00  0.00    +0.014 A 
ATOM     18  C   UNL     1      18.659   7.212  21.601  0.00  0.00    +0.014 A 
ATOM     19  C   UNL     1      19.581   5.117  20.006  0.00  0.00    +0.039 A 
ATOM     20  C   UNL     1      19.924   6.668  21.827  0.00  0.00    +0.039 A 
ATOM     21  C   UNL     1      20.385   5.621  21.029  0.00  0.00    +0.123 A 
ENDBRANCH  15  16
BRANCH  12   7
ATOM      4  N   UNL     1      12.200   8.168  20.250  0.00  0.00    -0.286 NA
ATOM      7  C   UNL     1      13.074   7.190  19.570  0.00  0.00    +0.149 C 
ATOM      8  C   UNL     1      12.783   7.380  18.070  0.00  0.00    +0.061 C 
ATOM      9  C   UNL     1      11.702   8.451  18.010  0.00  0.00    +0.130 C 
ATOM     10  C   UNL     1      11.047   8.372  19.375  0.00  0.00    +0.116 C 
BRANCH   4  11
ATOM     11  C   UNL     1      11.805   7.752  21.589  0.00  0.00    +0.051 C 
ATOM     13  C   UNL     1      11.242   6.334  21.559  0.00  0.00    +0.024 C 
ATOM     14  C   UNL     1      10.781   8.737  22.146  0.00  0.00    +0.024 C 
ENDBRANCH   4  11
BRANCH   9   2
ATOM      2  O   UNL     1      10.782   8.178  16.970  0.00  0.00    -0.390 OA
ATOM     22  H   UNL     1      11.257   7.678  16.285  0.00  0.00    +0.210 HD
ENDBRANCH   9   2
ENDBRANCH  12   7
TORSDOF 4
ENDMDL
MODEL 2
REMARK VINA RESULT:      -6.1     31.735     32.668
REMARK  Name = 26744411
REMARK  6 active torsions:
REMARK  status: ('A' for Active; 'I' for Inactive)
REMARK    1  A    between atoms: O_2  and  C_9
REMARK    2  A    between atoms: N_4  and  C_11
REMARK    3  A    between atoms: C_7  and  C_12
REMARK    4  A    between atoms: C_11  and  C_13
REMARK    5  A    between atoms: C_11  and  C_14
REMARK    6  A    between atoms: C_15  and  C_16
REMARK                            x       y       z     vdW  Elec       q    Type
REMARK                         _______ _______ _______ _____ _____    ______ ____
ROOT
ATOM      3  O   UNL     1     -15.041   1.934  33.555  0.00  0.00    -0.336 OA
ATOM      5  N   UNL     1     -14.703   3.583  32.077  0.00  0.00    -0.190 NA
ATOM      6  N   UNL     1     -14.623   3.045  34.299  0.00  0.00    -0.056 NA
ATOM     12  C   UNL     1     -15.061   2.337  32.256  0.00  0.00    +0.245 A 
ATOM     15  C   UNL     1     -14.444   3.976  33.357  0.00  0.00    +0.202 A 
ENDROOT
BRANCH  15  16
ATOM      1  F   UNL     1     -12.744   9.140  34.538  0.00  0.00    -0.205 F 
ATOM     16  C   UNL     1     -14.006   5.308  33.662  0.00  0.00    +0.023 A 
ATOM     17  C   UNL     1     -13.732   6.205  32.629  0.00  0.00    +0.014 A 
ATOM     18  C   UNL     1     -13.853   5.704  34.990  0.00  0.00    +0.014 A 
ATOM     19  C   UNL     1     -13.306   7.499  32.926  0.00  0.00    +0.039 A 
ATOM     20  C   UNL     1     -13.427   6.999  35.287  0.00  0.00    +0.039 A 
ATOM     21  C   UNL     1     -13.154   7.897  34.254  0.00  0.00    +0.123 A 
ENDBRANCH  15  16
BRANCH  12   7
ATOM      4  N   UNL     1     -15.330   1.777  29.846  0.00  0.00    -0.286 NA
ATOM      7  C   UNL     1     -15.487   1.302  31.236  0.00  0.00    +0.149 C 
ATOM      8  C   UNL     1     -14.647   0.014  31.308  0.00  0.00    +0.061 C 
ATOM      9  C   UNL     1     -14.096  -0.177  29.901  0.00  0.00    +0.130 C 
ATOM     10  C   UNL     1     -15.070   0.592  29.031  0.00  0.00    +0.116 C 
BRANCH   4  11
ATOM     11  C   UNL     1     -16.479   2.532  29.365  0.00  0.00    +0.051 C 
ATOM     13  C   UNL     1     -17.311   1.680  28.410  0.00  0.00    +0.024 C 
ATOM     14  C   UNL     1     -15.997   3.809  28.681  0.00  0.00    +0.024 C 
ENDBRANCH   4  11
BRANCH   9   2
ATOM      2  O   UNL     1     -14.058  -1.550  29.560  0.00  0.00    -0.390 OA
ATOM     22  H   UNL     1     -13.549  -2.008  30.250  0.00  0.00    +0.210 HD
ENDBRANCH   9   2
ENDBRANCH  12   7
TORSDOF 4
ENDMDL
MODEL 3
REMARK VINA RESULT:      -5.9      3.642      7.712
REMARK  Name = 26744411
REMARK  6 active torsions:
REMARK  status: ('A' for Active; 'I' for Inactive)
REMARK    1  A    between atoms: O_2  and  C_9
REMARK    2  A    between atoms: N_4  and  C_11
REMARK    3  A    between atoms: C_7  and  C_12
REMARK    4  A    between atoms: C_11  and  C_13
REMARK    5  A    between atoms: C_11  and  C_14
REMARK    6  A    between atoms: C_15  and  C_16
REMARK                            x       y       z     vdW  Elec       q    Type
REMARK                         _______ _______ _______ _____ _____    ______ ____
ROOT
ATOM      3  O   UNL     1      18.189   5.421  19.068  0.00  0.00    -0.336 OA
ATOM      5  N   UNL     1      17.326   7.020  20.377  0.00  0.00    -0.190 NA
ATOM      6  N   UNL     1      16.837   5.527  18.715  0.00  0.00    -0.056 NA
ATOM     12  C   UNL     1      18.393   6.335  20.054  0.00  0.00    +0.245 A 
ATOM     15  C   UNL     1      16.398   6.490  19.530  0.00  0.00    +0.202 A 
ENDROOT
BRANCH  15  16
ATOM      1  F   UNL     1      11.120   8.251  19.508  0.00  0.00    -0.205 F 
ATOM     16  C   UNL     1      15.037   6.944  19.524  0.00  0.00    +0.023 A 
ATOM     17  C   UNL     1      14.254   6.813  20.671  0.00  0.00    +0.014 A 
ATOM     18  C   UNL     1      14.498   7.515  18.372  0.00  0.00    +0.014 A 
ATOM     19  C   UNL     1      12.930   7.255  20.665  0.00  0.00    +0.039 A 
ATOM     20  C   UNL     1      13.174   7.957  18.366  0.00  0.00    +0.039 A 
ATOM     21  C   UNL     1      12.390   7.827  19.513  0.00  0.00    +0.123 A 
ENDBRANCH  15  16
BRANCH  12   7
ATOM      4  N   UNL     1      19.812   6.584  22.083  0.00  0.00    -0.286 NA
ATOM      7  C   UNL     1      19.797   6.419  20.615  0.00  0.00    +0.149 C 
ATOM      8  C   UNL     1      20.620   5.144  20.354  0.00  0.00    +0.061 C 
ATOM      9  C   UNL     1      21.093   4.692  21.729  0.00  0.00    +0.130 C 
ATOM     10  C   UNL     1      21.048   5.962  22.556  0.00  0.00    +0.116 C 
BRANCH   4  11
ATOM     11  C   UNL     1      19.702   7.974  22.505  0.00  0.00    +0.051 C 
ATOM     13  C   UNL     1      20.406   8.889  21.507  0.00  0.00    +0.024 C 
ATOM     14  C   UNL     1      20.294   8.129  23.903  0.00  0.00    +0.024 C 
ENDBRANCH   4  11
BRANCH   9   2
ATOM      2  O   UNL     1      22.401   4.158  21.659  0.00  0.00    -0.390 OA
ATOM     22  H   UNL     1      23.005   4.814  22.045  0.00  0.00    +0.210 HD
ENDBRANCH   9   2
ENDBRANCH  12   7
TORSDOF 4
ENDMDL
MODEL 4
REMARK VINA RESULT:      -5.9     15.020     17.520
REMARK  Name = 26744411
REMARK  6 active torsions:
REMARK  status: ('A' for Active; 'I' for Inactive)
REMARK    1  A    between atoms: O_2  and  C_9
REMARK    2  A    between atoms: N_4  and  C_11
REMARK    3  A    between atoms: C_7  and  C_12
REMARK    4  A    between atoms: C_11  and  C_13
REMARK    5  A    between atoms: C_11  and  C_14
REMARK    6  A    between atoms: C_15  and  C_16
REMARK                            x       y       z     vdW  Elec       q    Type
REMARK                         _______ _______ _______ _____ _____    ______ ____
ROOT
ATOM      3  O   UNL     1      11.608   7.390   3.923  0.00  0.00    -0.336 OA
ATOM      5  N   UNL     1      10.722   5.385   4.380  0.00  0.00    -0.190 NA
ATOM      6  N   UNL     1      11.224   7.431   5.270  0.00  0.00    -0.056 NA
ATOM     12  C   UNL     1      11.277   6.150   3.474  0.00  0.00    +0.245 A 
ATOM     15  C   UNL     1      10.711   6.213   5.463  0.00  0.00    +0.202 A 
ENDROOT
BRANCH  15  16
ATOM      1  F   UNL     1       8.641   4.581  10.364  0.00  0.00    -0.205 F 
ATOM     16  C   UNL     1      10.177   5.793   6.727  0.00  0.00    +0.023 A 
ATOM     17  C   UNL     1      10.186   4.441   7.072  0.00  0.00    +0.014 A 
ATOM     18  C   UNL     1       9.650   6.735   7.609  0.00  0.00    +0.014 A 
ATOM     19  C   UNL     1       9.667   4.032   8.301  0.00  0.00    +0.039 A 
ATOM     20  C   UNL     1       9.131   6.326   8.838  0.00  0.00    +0.039 A 
ATOM     21  C   UNL     1       9.140   4.974   9.184  0.00  0.00    +0.123 A 
ENDBRANCH  15  16
BRANCH  12   7
ATOM      4  N   UNL     1      12.399   4.622   1.863  0.00  0.00    -0.286 NA
ATOM      7  C   UNL     1      11.595   5.851   2.025  0.00  0.00    +0.149 C 
ATOM      8  C   UNL     1      10.334   5.610   1.176  0.00  0.00    +0.061 C 
ATOM      9  C   UNL     1      10.541   4.242   0.540  0.00  0.00    +0.130 C 
ATOM     10  C   UNL     1      12.047   4.067   0.557  0.00  0.00    +0.116 C 
BRANCH   4  11
ATOM     11  C   UNL     1      13.832   4.851   1.993  0.00  0.00    +0.051 C 
ATOM     13  C   UNL     1      14.252   6.060   1.162  0.00  0.00    +0.024 C 
ATOM     14  C   UNL     1      14.588   3.599   1.560  0.00  0.00    +0.024 C 
ENDBRANCH   4  11
BRANCH   9   2
ATOM      2  O   UNL     1      10.025   4.218  -0.778  0.00  0.00    -0.390 OA
ATOM     22  H   UNL     1      10.689   3.789  -1.344  0.00  0.00    +0.210 HD
ENDBRANCH   9   2
ENDBRANCH  12   7
TORSDOF 4
ENDMDL
MODEL 5
REMARK VINA RESULT:      -5.9     26.586     27.842
REMARK  Name = 26744411
REMARK  6 active torsions:
REMARK  status: ('A' for Active; 'I' for Inactive)
REMARK    1  A    between atoms: O_2  and  C_9
REMARK    2  A    between atoms: N_4  and  C_11
REMARK    3  A    between atoms: C_7  and  C_12
REMARK    4  A    between atoms: C_11  and  C_13
REMARK    5  A    between atoms: C_11  and  C_14
REMARK    6  A    between atoms: C_15  and  C_16
REMARK                            x       y       z     vdW  Elec       q    Type
REMARK                         _______ _______ _______ _____ _____    ______ ____
ROOT
ATOM      3  O   UNL     1      -1.926 -10.564  13.214  0.00  0.00    -0.336 OA
ATOM      5  N   UNL     1      -4.150 -10.633  13.463  0.00  0.00    -0.190 NA
ATOM      6  N   UNL     1      -2.163 -10.564  14.595  0.00  0.00    -0.056 NA
ATOM     12  C   UNL     1      -3.148 -10.605  12.621  0.00  0.00    +0.245 A 
ATOM     15  C   UNL     1      -3.497 -10.607  14.660  0.00  0.00    +0.202 A 
ENDROOT
BRANCH  15  16
ATOM      1  F   UNL     1      -6.254 -10.668  19.493  0.00  0.00    -0.205 F 
ATOM     16  C   UNL     1      -4.208 -10.622  15.907  0.00  0.00    +0.023 A 
ATOM     17  C   UNL     1      -3.643 -11.239  17.023  0.00  0.00    +0.014 A 
ATOM     18  C   UNL     1      -5.463 -10.022  16.000  0.00  0.00    +0.014 A 
ATOM     19  C   UNL     1      -4.335 -11.254  18.235  0.00  0.00    +0.039 A 
ATOM     20  C   UNL     1      -6.155 -10.037  17.212  0.00  0.00    +0.039 A 
ATOM     21  C   UNL     1      -5.590 -10.653  18.330  0.00  0.00    +0.123 A 
ENDBRANCH  15  16
BRANCH  12   7
ATOM      4  N   UNL     1      -4.292 -11.390  10.555  0.00  0.00    -0.286 NA
ATOM      7  C   UNL     1      -3.163 -10.613  11.108  0.00  0.00    +0.149 C 
ATOM      8  C   UNL     1      -3.324  -9.205  10.506  0.00  0.00    +0.061 C 
ATOM      9  C   UNL     1      -4.541  -9.302   9.595  0.00  0.00    +0.130 C 
ATOM     10  C   UNL     1      -4.624 -10.781   9.269  0.00  0.00    +0.116 C 
BRANCH   4  11
ATOM     11  C   UNL     1      -4.002 -12.813  10.429  0.00  0.00    +0.051 C 
ATOM     13  C   UNL     1      -4.148 -13.256   8.975  0.00  0.00    +0.024 C 
ATOM     14  C   UNL     1      -4.936 -13.604  11.339  0.00  0.00    +0.024 C 
ENDBRANCH   4  11
BRANCH   9   2
ATOM      2  O   UNL     1      -4.360  -8.517   8.431  0.00  0.00    -0.390 OA
ATOM     22  H   UNL     1      -3.416  -8.295   8.373  0.00  0.00    +0.210 HD
ENDBRANCH   9   2
ENDBRANCH  12   7
TORSDOF 4
ENDMDL
MODEL 6
REMARK VINA RESULT:      -5.8     26.370     29.381
REMARK  Name = 26744411
REMARK  6 active torsions:
REMARK  status: ('A' for Active; 'I' for Inactive)
REMARK    1  A    between atoms: O_2  and  C_9
REMARK    2  A    between atoms: N_4  and  C_11
REMARK    3  A    between atoms: C_7  and  C_12
REMARK    4  A    between atoms: C_11  and  C_13
REMARK    5  A    between atoms: C_11  and  C_14
REMARK    6  A    between atoms: C_15  and  C_16
REMARK                            x       y       z     vdW  Elec       q    Type
REMARK                         _______ _______ _______ _____ _____    ______ ____
ROOT
ATOM      3  O   UNL     1     -13.093   5.566  21.963  0.00  0.00    -0.336 OA
ATOM      5  N   UNL     1     -13.844   7.179  20.603  0.00  0.00    -0.190 NA
ATOM      6  N   UNL     1     -11.969   6.063  21.290  0.00  0.00    -0.056 NA
ATOM     12  C   UNL     1     -14.155   6.277  21.500  0.00  0.00    +0.245 A 
ATOM     15  C   UNL     1     -12.494   7.011  20.507  0.00  0.00    +0.202 A 
ENDROOT
BRANCH  15  16
ATOM      1  F   UNL     1      -9.404  10.094  17.057  0.00  0.00    -0.205 F 
ATOM     16  C   UNL     1     -11.697   7.805  19.617  0.00  0.00    +0.023 A 
ATOM     17  C   UNL     1     -11.202   9.039  20.040  0.00  0.00    +0.014 A 
ATOM     18  C   UNL     1     -11.419   7.345  18.331  0.00  0.00    +0.014 A 
ATOM     19  C   UNL     1     -10.427   9.812  19.174  0.00  0.00    +0.039 A 
ATOM     20  C   UNL     1     -10.645   8.117  17.465  0.00  0.00    +0.039 A 
ATOM     21  C   UNL     1     -10.148   9.351  17.887  0.00  0.00    +0.123 A 
ENDBRANCH  15  16
BRANCH  12   7
ATOM      4  N   UNL     1     -16.202   4.876  21.307  0.00  0.00    -0.286 NA
ATOM      7  C   UNL     1     -15.507   5.925  22.082  0.00  0.00    +0.149 C 
ATOM      8  C   UNL     1     -15.412   5.360  23.511  0.00  0.00    +0.061 C 
ATOM      9  C   UNL     1     -16.121   4.013  23.450  0.00  0.00    +0.130 C 
ATOM     10  C   UNL     1     -17.045   4.151  22.256  0.00  0.00    +0.116 C 
BRANCH   4  11
ATOM     11  C   UNL     1     -16.969   5.404  20.186  0.00  0.00    +0.051 C 
ATOM     13  C   UNL     1     -17.767   6.630  20.620  0.00  0.00    +0.024 C 
ATOM     14  C   UNL     1     -17.889   4.315  19.643  0.00  0.00    +0.024 C 
ENDBRANCH   4  11
BRANCH   9   2
ATOM      2  O   UNL     1     -16.840   3.771  24.645  0.00  0.00    -0.390 OA
ATOM     22  H   UNL     1     -16.462   4.343  25.334  0.00  0.00    +0.210 HD
ENDBRANCH   9   2
ENDBRANCH  12   7
TORSDOF 4
ENDMDL
MODEL 7
REMARK VINA RESULT:      -5.8     32.334     34.237
REMARK  Name = 26744411
REMARK  6 active torsions:
REMARK  status: ('A' for Active; 'I' for Inactive)
REMARK    1  A    between atoms: O_2  and  C_9
REMARK    2  A    between atoms: N_4  and  C_11
REMARK    3  A    between atoms: C_7  and  C_12
REMARK    4  A    between atoms: C_11  and  C_13
REMARK    5  A    between atoms: C_11  and  C_14
REMARK    6  A    between atoms: C_15  and  C_16
REMARK                            x       y       z     vdW  Elec       q    Type
REMARK                         _______ _______ _______ _____ _____    ______ ____
ROOT
ATOM      3  O   UNL     1      -0.108 -13.523  -2.608  0.00  0.00    -0.336 OA
ATOM      5  N   UNL     1       2.107 -13.342  -2.886  0.00  0.00    -0.190 NA
ATOM      6  N   UNL     1       0.475 -14.097  -1.471  0.00  0.00    -0.056 NA
ATOM     12  C   UNL     1       0.922 -13.103  -3.389  0.00  0.00    +0.245 A 
ATOM     15  C   UNL     1       1.782 -13.951  -1.710  0.00  0.00    +0.202 A 
ENDROOT
BRANCH  15  16
ATOM      1  F   UNL     1       5.685 -15.713   1.843  0.00  0.00    -0.205 F 
ATOM     16  C   UNL     1       2.789 -14.406  -0.793  0.00  0.00    +0.023 A 
ATOM     17  C   UNL     1       2.417 -14.938   0.441  0.00  0.00    +0.014 A 
ATOM     18  C   UNL     1       4.136 -14.314  -1.138  0.00  0.00    +0.014 A 
ATOM     19  C   UNL     1       3.397 -15.380   1.332  0.00  0.00    +0.039 A 
ATOM     20  C   UNL     1       5.116 -14.756  -0.248  0.00  0.00    +0.039 A 
ATOM     21  C   UNL     1       4.746 -15.289   0.988  0.00  0.00    +0.123 A 
ENDBRANCH  15  16
BRANCH  12   7
ATOM      4  N   UNL     1       1.116 -13.134  -5.870  0.00  0.00    -0.286 NA
ATOM      7  C   UNL     1       0.549 -12.438  -4.697  0.00  0.00    +0.149 C 
ATOM      8  C   UNL     1      -0.971 -12.424  -4.945  0.00  0.00    +0.061 C 
ATOM      9  C   UNL     1      -1.155 -13.091  -6.302  0.00  0.00    +0.130 C 
ATOM     10  C   UNL     1       0.190 -12.901  -6.977  0.00  0.00    +0.116 C 
BRANCH   4  11
ATOM     11  C   UNL     1       2.471 -12.706  -6.191  0.00  0.00    +0.051 C 
ATOM     13  C   UNL     1       2.542 -11.184  -6.272  0.00  0.00    +0.024 C 
ATOM     14  C   UNL     1       2.908 -13.345  -7.506  0.00  0.00    +0.024 C 
ENDBRANCH   4  11
BRANCH   9   2
ATOM      2  O   UNL     1      -2.199 -12.471  -7.029  0.00  0.00    -0.390 OA
ATOM     22  H   UNL     1      -1.790 -11.844  -7.649  0.00  0.00    +0.210 HD
ENDBRANCH   9   2
ENDBRANCH  12   7
TORSDOF 4
ENDMDL
MODEL 8
REMARK VINA RESULT:      -5.7     26.068     28.135
REMARK  Name = 26744411
REMARK  6 active torsions:
REMARK  status: ('A' for Active; 'I' for Inactive)
REMARK    1  A    between atoms: O_2  and  C_9
REMARK    2  A    between atoms: N_4  and  C_11
REMARK    3  A    between atoms: C_7  and  C_12
REMARK    4  A    between atoms: C_11  and  C_13
REMARK    5  A    between atoms: C_11  and  C_14
REMARK    6  A    between atoms: C_15  and  C_16
REMARK                            x       y       z     vdW  Elec       q    Type
REMARK                         _______ _______ _______ _____ _____    ______ ____
ROOT
ATOM      3  O   UNL     1      -5.781 -11.578  17.729  0.00  0.00    -0.336 OA
ATOM      5  N   UNL     1      -5.764  -9.897  16.249  0.00  0.00    -0.190 NA
ATOM      6  N   UNL     1      -4.736 -11.853  16.838  0.00  0.00    -0.056 NA
ATOM     12  C   UNL     1      -6.335 -10.409  17.310  0.00  0.00    +0.245 A 
ATOM     15  C   UNL     1      -4.790 -10.817  15.996  0.00  0.00    +0.202 A 
ENDROOT
BRANCH  15  16
ATOM      1  F   UNL     1      -1.283 -10.257  11.712  0.00  0.00    -0.205 F 
ATOM     16  C   UNL     1      -3.886 -10.673  14.891  0.00  0.00    +0.023 A 
ATOM     17  C   UNL     1      -2.514 -10.562  15.123  0.00  0.00    +0.014 A 
ATOM     18  C   UNL     1      -4.378 -10.643  13.587  0.00  0.00    +0.014 A 
ATOM     19  C   UNL     1      -1.636 -10.421  14.048  0.00  0.00    +0.039 A 
ATOM     20  C   UNL     1      -3.499 -10.503  12.512  0.00  0.00    +0.039 A 
ATOM     21  C   UNL     1      -2.127 -10.392  12.743  0.00  0.00    +0.123 A 
ENDBRANCH  15  16
BRANCH  12   7
ATOM      4  N   UNL     1      -8.769  -9.895  17.360  0.00  0.00    -0.286 NA
ATOM      7  C   UNL     1      -7.502  -9.888  18.120  0.00  0.00    +0.149 C 
ATOM      8  C   UNL     1      -7.789 -10.741  19.369  0.00  0.00    +0.061 C 
ATOM      9  C   UNL     1      -9.253 -11.144  19.244  0.00  0.00    +0.130 C 
ATOM     10  C   UNL     1      -9.838 -10.078  18.339  0.00  0.00    +0.116 C 
BRANCH   4  11
ATOM     11  C   UNL     1      -8.962  -8.696  16.555  0.00  0.00    +0.051 C 
ATOM     13  C   UNL     1     -10.005  -7.787  17.199  0.00  0.00    +0.024 C 
ATOM     14  C   UNL     1      -9.380  -9.094  15.143  0.00  0.00    +0.024 C 
ENDBRANCH   4  11
BRANCH   9   2
ATOM      2  O   UNL     1      -9.879 -11.158  20.513  0.00  0.00    -0.390 OA
ATOM     22  H   UNL     1      -9.189 -11.011  21.180  0.00  0.00    +0.210 HD
ENDBRANCH   9   2
ENDBRANCH  12   7
TORSDOF 4
ENDMDL
MODEL 9
REMARK VINA RESULT:      -5.7     27.171     28.252
REMARK  Name = 26744411
REMARK  6 active torsions:
REMARK  status: ('A' for Active; 'I' for Inactive)
REMARK    1  A    between atoms: O_2  and  C_9
REMARK    2  A    between atoms: N_4  and  C_11
REMARK    3  A    between atoms: C_7  and  C_12
REMARK    4  A    between atoms: C_11  and  C_13
REMARK    5  A    between atoms: C_11  and  C_14
REMARK    6  A    between atoms: C_15  and  C_16
REMARK                            x       y       z     vdW  Elec       q    Type
REMARK                         _______ _______ _______ _____ _____    ______ ____
ROOT
ATOM      3  O   UNL     1      -4.688 -11.712  16.098  0.00  0.00    -0.336 OA
ATOM      5  N   UNL     1      -5.484  -9.900  15.049  0.00  0.00    -0.190 NA
ATOM      6  N   UNL     1      -4.152 -11.744  14.804  0.00  0.00    -0.056 NA
ATOM     12  C   UNL     1      -5.461 -10.595  16.158  0.00  0.00    +0.245 A 
ATOM     15  C   UNL     1      -4.667 -10.643  14.249  0.00  0.00    +0.202 A 
ENDROOT
BRANCH  15  16
ATOM      1  F   UNL     1      -3.580  -9.153   8.999  0.00  0.00    -0.205 F 
ATOM     16  C   UNL     1      -4.387 -10.259  12.895  0.00  0.00    +0.023 A 
ATOM     17  C   UNL     1      -3.126 -10.499  12.349  0.00  0.00    +0.014 A 
ATOM     18  C   UNL     1      -5.375  -9.646  12.126  0.00  0.00    +0.014 A 
ATOM     19  C   UNL     1      -2.854 -10.125  11.033  0.00  0.00    +0.039 A 
ATOM     20  C   UNL     1      -5.103  -9.272  10.809  0.00  0.00    +0.039 A 
ATOM     21  C   UNL     1      -3.842  -9.512  10.262  0.00  0.00    +0.123 A 
ENDBRANCH  15  16
BRANCH  12   7
ATOM      4  N   UNL     1      -7.380 -11.148  17.642  0.00  0.00    -0.286 NA
ATOM      7  C   UNL     1      -6.162 -10.330  17.474  0.00  0.00    +0.149 C 
ATOM      8  C   UNL     1      -5.287 -10.673  18.694  0.00  0.00    +0.061 C 
ATOM      9  C   UNL     1      -6.117 -11.653  19.512  0.00  0.00    +0.130 C 
ATOM     10  C   UNL     1      -7.541 -11.360  19.080  0.00  0.00    +0.116 C 
BRANCH   4  11
ATOM     11  C   UNL     1      -8.564 -10.546  17.042  0.00  0.00    +0.051 C 
ATOM     13  C   UNL     1      -8.582  -9.042  17.301  0.00  0.00    +0.024 C 
ATOM     14  C   UNL     1      -9.814 -11.215  17.604  0.00  0.00    +0.024 C 
ENDBRANCH   4  11
BRANCH   9   2
ATOM      2  O   UNL     1      -5.934 -11.432  20.897  0.00  0.00    -0.390 OA
ATOM     22  H   UNL     1      -5.281 -10.719  20.995  0.00  0.00    +0.210 HD
ENDBRANCH   9   2
ENDBRANCH  12   7
TORSDOF 4
ENDMDL
MODEL 10
REMARK VINA RESULT:      -5.6     14.875     17.486
REMARK  Name = 26744411
REMARK  6 active torsions:
REMARK  status: ('A' for Active; 'I' for Inactive)
REMARK    1  A    between atoms: O_2  and  C_9
REMARK    2  A    between atoms: N_4  and  C_11
REMARK    3  A    between atoms: C_7  and  C_12
REMARK    4  A    between atoms: C_11  and  C_13
REMARK    5  A    between atoms: C_11  and  C_14
REMARK    6  A    between atoms: C_15  and  C_16
REMARK                            x       y       z     vdW  Elec       q    Type
REMARK                         _______ _______ _______ _____ _____    ______ ____
ROOT
ATOM      3  O   UNL     1       9.577   6.573   3.320  0.00  0.00    -0.336 OA
ATOM      5  N   UNL     1      10.699   5.090   4.568  0.00  0.00    -0.190 NA
ATOM      6  N   UNL     1       9.066   6.692   4.619  0.00  0.00    -0.056 NA
ATOM     12  C   UNL     1      10.533   5.609   3.378  0.00  0.00    +0.245 A 
ATOM     15  C   UNL     1       9.778   5.786   5.295  0.00  0.00    +0.202 A 
ENDROOT
BRANCH  15  16
ATOM      1  F   UNL     1       9.057   4.872  10.737  0.00  0.00    -0.205 F 
ATOM     16  C   UNL     1       9.592   5.550   6.699  0.00  0.00    +0.023 A 
ATOM     17  C   UNL     1       9.157   6.584   7.527  0.00  0.00    +0.014 A 
ATOM     18  C   UNL     1       9.847   4.287   7.233  0.00  0.00    +0.014 A 
ATOM     19  C   UNL     1       8.977   6.354   8.892  0.00  0.00    +0.039 A 
ATOM     20  C   UNL     1       9.666   4.057   8.597  0.00  0.00    +0.039 A 
ATOM     21  C   UNL     1       9.231   5.092   9.427  0.00  0.00    +0.123 A 
ENDBRANCH  15  16
BRANCH  12   7
ATOM      4  N   UNL     1      12.547   5.980   1.964  0.00  0.00    -0.286 NA
ATOM      7  C   UNL     1      11.247   5.289   2.082  0.00  0.00    +0.149 C 
ATOM      8  C   UNL     1      11.583   3.793   1.940  0.00  0.00    +0.061 C 
ATOM      9  C   UNL     1      13.087   3.748   1.701  0.00  0.00    +0.130 C 
ATOM     10  C   UNL     1      13.399   5.123   1.143  0.00  0.00    +0.116 C 
BRANCH   4  11
ATOM     11  C   UNL     1      12.435   7.326   1.417  0.00  0.00    +0.051 C 
ATOM     13  C   UNL     1      13.272   7.453   0.147  0.00  0.00    +0.024 C 
ATOM     14  C   UNL     1      12.876   8.340   2.468  0.00  0.00    +0.024 C 
ENDBRANCH   4  11
BRANCH   9   2
ATOM      2  O   UNL     1      13.418   2.722   0.784  0.00  0.00    -0.390 OA
ATOM     22  H   UNL     1      13.420   3.114  -0.105  0.00  0.00    +0.210 HD
ENDBRANCH   9   2
ENDBRANCH  12   7
TORSDOF 4
ENDMDL
