REMARK  Name = 11911719
REMARK  7 active torsions:
REMARK  status: ('A' for Active; 'I' for Inactive)
REMARK    1  A    between atoms: N_5  and  C_12
REMARK    2  A    between atoms: N_6  and  C_13
REMARK    3  A    between atoms: N_9  and  C_28
REMARK    4  A    between atoms: N_9  and  C_31
REMARK    5  A    between atoms: N_9  and  C_32
REMARK    6  A    between atoms: C_17  and  C_18
REMARK    7  A    between atoms: C_19  and  C_23
REMARK                            x       y       z     vdW  Elec       q    Type
REMARK                         _______ _______ _______ _____ _____    ______ ____
ROOT
ATOM      5  N   UNL     1      -0.074  -3.129  -0.043  0.00  0.00    -0.306 N 
ATOM      7  N   UNL     1      -1.899  -1.677  -0.310  0.00  0.00    -0.214 NA
ATOM      8  N   UNL     1      -1.524  -3.491  -1.853  0.00  0.00    -0.223 NA
ATOM     16  C   UNL     1      -1.199  -2.755  -0.757  0.00  0.00    +0.216 A 
ATOM     19  C   UNL     1      -2.989  -1.341  -1.030  0.00  0.00    +0.076 A 
ATOM     21  C   UNL     1      -2.626  -3.098  -2.525  0.00  0.00    +0.116 A 
ATOM     22  C   UNL     1      -3.405  -2.020  -2.156  0.00  0.00    +0.048 A 
ATOM     33  H   UNL     1       0.469  -3.900  -0.414  0.00  0.00    +0.149 HD
ENDROOT
BRANCH   5  12
ATOM      1  O   UNL     1       2.664  -3.072   1.398  0.00  0.00    -0.370 OA
ATOM      2  O   UNL     1       1.298  -0.296   1.807  0.00  0.00    -0.370 OA
ATOM     10  C   UNL     1       1.259  -1.266   0.746  0.00  0.00    +0.171 C 
ATOM     11  C   UNL     1       2.649  -1.859   0.627  0.00  0.00    +0.171 C 
ATOM     12  C   UNL     1       0.390  -2.437   1.140  0.00  0.00    +0.130 C 
ATOM     13  C   UNL     1       3.547  -0.822   1.260  0.00  0.00    +0.130 C 
ATOM     14  C   UNL     1       1.350  -3.317   1.920  0.00  0.00    +0.185 C 
ATOM     15  C   UNL     1       2.640  -0.203   2.309  0.00  0.00    +0.185 C 
BRANCH  13   6
ATOM      3  O   UNL     1       5.929   0.778   1.379  0.00  0.00    -0.267 OA
ATOM      6  N   UNL     1       3.974   0.160   0.293  0.00  0.00    -0.301 N 
ATOM     17  C   UNL     1       5.147   0.887   0.437  0.00  0.00    +0.280 C 
ATOM     34  H   UNL     1       3.368   0.358  -0.498  0.00  0.00    +0.150 HD
BRANCH  17  18
ATOM      4  O   UNL     1       4.526   1.951  -1.603  0.00  0.00    -0.458 OA
ATOM     18  C   UNL     1       5.433   1.879  -0.632  0.00  0.00    +0.189 A 
ATOM     20  C   UNL     1       6.467   2.712  -0.764  0.00  0.00    +0.054 A 
ATOM     24  C   UNL     1       6.199   3.408  -1.967  0.00  0.00    +0.042 A 
ATOM     25  C   UNL     1       5.007   2.909  -2.439  0.00  0.00    +0.196 A 
ENDBRANCH  17  18
ENDBRANCH  13   6
ENDBRANCH   5  12
BRANCH  19  23
ATOM     23  C   UNL     1      -3.716  -0.194  -0.539  0.00  0.00    +0.001 A 
ATOM     26  C   UNL     1      -5.095  -0.100  -0.740  0.00  0.00    +0.012 A 
ATOM     27  C   UNL     1      -3.043   0.826   0.136  0.00  0.00    +0.012 A 
ATOM     28  C   UNL     1      -5.122   2.026   0.406  0.00  0.00    +0.029 A 
ATOM     29  C   UNL     1      -5.797   1.009  -0.268  0.00  0.00    +0.024 A 
ATOM     30  C   UNL     1      -3.745   1.935   0.609  0.00  0.00    +0.024 A 
BRANCH  28   9
ATOM      9  N   UNL     1      -5.833   3.147   0.885  0.00  0.00    -0.336 N 
ATOM     31  C   UNL     1      -5.389   3.843   2.076  0.00  0.00    +0.129 C 
ATOM     32  C   UNL     1      -7.023   3.609   0.199  0.00  0.00    +0.129 C 
ENDBRANCH  28   9
ENDBRANCH  19  23
TORSDOF 5
