MODEL 1
REMARK VINA RESULT:      -7.4      0.000      0.000
REMARK  Name = 25314254
REMARK  6 active torsions:
REMARK  status: ('A' for Active; 'I' for Inactive)
REMARK    1  A    between atoms: O_3  and  C_10
REMARK    2  A    between atoms: N_5  and  C_8
REMARK    3  A    between atoms: N_6  and  C_9
REMARK    4  A    between atoms: N_6  and  C_15
REMARK    5  A    between atoms: C_14  and  C_15
REMARK    6  A    between atoms: C_25  and  C_26
REMARK                            x       y       z     vdW  Elec       q    Type
REMARK                         _______ _______ _______ _____ _____    ______ ____
ROOT
ATOM      1  O   UNL     1      11.601   7.084  19.762  0.00  0.00    -0.343 OA
ATOM      2  O   UNL     1      10.389   8.368  21.266  0.00  0.00    -0.347 OA
ATOM      8  C   UNL     1      12.443   9.266  20.361  0.00  0.00    +0.143 C 
ATOM      9  C   UNL     1      13.190   7.104  21.585  0.00  0.00    +0.115 C 
ATOM     10  C   UNL     1      13.251   8.650  21.528  0.00  0.00    +0.156 C 
ATOM     11  C   UNL     1      11.846   6.544  21.066  0.00  0.00    +0.166 C 
ATOM     12  C   UNL     1      11.188   8.421  20.073  0.00  0.00    +0.270 C 
ATOM     13  C   UNL     1      10.627   7.061  21.810  0.00  0.00    +0.196 C 
ENDROOT
BRANCH   8   5
ATOM      4  O   UNL     1      15.698  12.413  16.066  0.00  0.00    -0.276 OA
ATOM      5  N   UNL     1      13.268   9.365  19.156  0.00  0.00    -0.290 NA
ATOM      7  N   UNL     1      14.380  10.674  16.862  0.00  0.00    -0.299 N 
ATOM     16  C   UNL     1      12.431   9.644  17.979  0.00  0.00    +0.104 C 
ATOM     17  C   UNL     1      14.294  10.405  19.315  0.00  0.00    +0.104 C 
ATOM     20  C   UNL     1      13.279   9.718  16.708  0.00  0.00    +0.123 C 
ATOM     21  C   UNL     1      15.179  10.487  18.072  0.00  0.00    +0.123 C 
ATOM     25  C   UNL     1      14.766  11.618  15.913  0.00  0.00    +0.213 C 
ATOM     26  C   UNL     1      13.973  11.649  14.632  0.00  0.00    +0.109 C 
ENDBRANCH   8   5
BRANCH  10   3
ATOM      3  O   UNL     1      12.712   9.174  22.750  0.00  0.00    -0.388 OA
ATOM     28  H   UNL     1      13.408   9.703  23.179  0.00  0.00    +0.210 HD
ENDBRANCH  10   3
BRANCH   9   6
ATOM      6  N   UNL     1      14.270   6.516  20.784  0.00  0.00    -0.308 NA
ATOM     27  H   UNL     1      14.208   6.824  19.814  0.00  0.00    +0.122 HD
BRANCH   6  15
ATOM     15  C   UNL     1      15.565   6.898  21.318  0.00  0.00    +0.084 C 
BRANCH  15  14
ATOM     14  C   UNL     1      16.460   7.510  20.238  0.00  0.00    +0.003 C 
ATOM     18  C   UNL     1      17.357   8.619  20.806  0.00  0.00    +0.005 C 
ATOM     19  C   UNL     1      17.299   6.441  19.524  0.00  0.00    +0.005 C 
ATOM     22  C   UNL     1      18.501   8.082  21.665  0.00  0.00    +0.000 C 
ATOM     23  C   UNL     1      18.443   5.905  20.383  0.00  0.00    +0.000 C 
ATOM     24  C   UNL     1      19.320   7.032  20.921  0.00  0.00    +0.000 C 
ENDBRANCH  15  14
ENDBRANCH   6  15
ENDBRANCH   9   6
TORSDOF 5
ENDMDL
MODEL 2
REMARK VINA RESULT:      -7.1      2.798      4.610
REMARK  Name = 25314254
REMARK  6 active torsions:
REMARK  status: ('A' for Active; 'I' for Inactive)
REMARK    1  A    between atoms: O_3  and  C_10
REMARK    2  A    between atoms: N_5  and  C_8
REMARK    3  A    between atoms: N_6  and  C_9
REMARK    4  A    between atoms: N_6  and  C_15
REMARK    5  A    between atoms: C_14  and  C_15
REMARK    6  A    between atoms: C_25  and  C_26
REMARK                            x       y       z     vdW  Elec       q    Type
REMARK                         _______ _______ _______ _____ _____    ______ ____
ROOT
ATOM      1  O   UNL     1      13.193   9.004  19.475  0.00  0.00    -0.343 OA
ATOM      2  O   UNL     1      11.337   7.910  18.618  0.00  0.00    -0.347 OA
ATOM      8  C   UNL     1      11.329   8.566  20.944  0.00  0.00    +0.143 C 
ATOM      9  C   UNL     1      13.356   6.959  20.754  0.00  0.00    +0.115 C 
ATOM     10  C   UNL     1      11.949   7.208  21.351  0.00  0.00    +0.156 C 
ATOM     11  C   UNL     1      13.537   7.619  19.368  0.00  0.00    +0.166 C 
ATOM     12  C   UNL     1      11.761   8.948  19.517  0.00  0.00    +0.270 C 
ATOM     13  C   UNL     1      12.529   7.166  18.327  0.00  0.00    +0.196 C 
ENDROOT
BRANCH   8   5
ATOM      4  O   UNL     1      10.148  12.977  25.198  0.00  0.00    -0.276 OA
ATOM      5  N   UNL     1      11.721   9.617  21.884  0.00  0.00    -0.290 NA
ATOM      7  N   UNL     1      11.329  11.972  23.468  0.00  0.00    -0.299 N 
ATOM     16  C   UNL     1      11.638  10.939  21.245  0.00  0.00    +0.104 C 
ATOM     17  C   UNL     1      10.879   9.574  23.089  0.00  0.00    +0.104 C 
ATOM     20  C   UNL     1      12.077  12.042  22.209  0.00  0.00    +0.123 C 
ATOM     21  C   UNL     1      11.308  10.648  24.087  0.00  0.00    +0.123 C 
ATOM     25  C   UNL     1      10.773  13.061  24.137  0.00  0.00    +0.213 C 
ATOM     26  C   UNL     1      10.962  14.413  23.498  0.00  0.00    +0.109 C 
ENDBRANCH   8   5
BRANCH  10   3
ATOM      3  O   UNL     1      11.067   6.174  20.890  0.00  0.00    -0.388 OA
ATOM     28  H   UNL     1      10.861   5.600  21.649  0.00  0.00    +0.210 HD
ENDBRANCH  10   3
BRANCH   9   6
ATOM      6  N   UNL     1      14.395   7.481  21.648  0.00  0.00    -0.308 NA
ATOM     27  H   UNL     1      14.108   7.398  22.623  0.00  0.00    +0.122 HD
BRANCH   6  15
ATOM     15  C   UNL     1      15.640   6.758  21.459  0.00  0.00    +0.084 C 
BRANCH  15  14
ATOM     14  C   UNL     1      16.589   7.510  20.523  0.00  0.00    +0.003 C 
ATOM     18  C   UNL     1      17.766   8.132  21.287  0.00  0.00    +0.005 C 
ATOM     19  C   UNL     1      17.092   6.610  19.384  0.00  0.00    +0.005 C 
ATOM     22  C   UNL     1      18.794   7.099  21.749  0.00  0.00    +0.000 C 
ATOM     23  C   UNL     1      18.120   5.579  19.846  0.00  0.00    +0.000 C 
ATOM     24  C   UNL     1      19.280   6.232  20.592  0.00  0.00    +0.000 C 
ENDBRANCH  15  14
ENDBRANCH   6  15
ENDBRANCH   9   6
TORSDOF 5
ENDMDL
MODEL 3
REMARK VINA RESULT:      -6.5      3.078      6.178
REMARK  Name = 25314254
REMARK  6 active torsions:
REMARK  status: ('A' for Active; 'I' for Inactive)
REMARK    1  A    between atoms: O_3  and  C_10
REMARK    2  A    between atoms: N_5  and  C_8
REMARK    3  A    between atoms: N_6  and  C_9
REMARK    4  A    between atoms: N_6  and  C_15
REMARK    5  A    between atoms: C_14  and  C_15
REMARK    6  A    between atoms: C_25  and  C_26
REMARK                            x       y       z     vdW  Elec       q    Type
REMARK                         _______ _______ _______ _____ _____    ______ ____
ROOT
ATOM      1  O   UNL     1      12.081   7.302  19.242  0.00  0.00    -0.343 OA
ATOM      2  O   UNL     1      12.107   8.029  17.040  0.00  0.00    -0.347 OA
ATOM      8  C   UNL     1      13.993   8.550  18.459  0.00  0.00    +0.143 C 
ATOM      9  C   UNL     1      11.984   9.684  19.645  0.00  0.00    +0.115 C 
ATOM     10  C   UNL     1      13.325   9.876  18.895  0.00  0.00    +0.156 C 
ATOM     11  C   UNL     1      11.210   8.436  19.165  0.00  0.00    +0.166 C 
ATOM     12  C   UNL     1      12.923   7.503  18.099  0.00  0.00    +0.270 C 
ATOM     13  C   UNL     1      10.889   8.435  17.681  0.00  0.00    +0.196 C 
ENDROOT
BRANCH   8   5
ATOM      4  O   UNL     1      19.355   8.271  21.640  0.00  0.00    -0.276 OA
ATOM      5  N   UNL     1      14.862   8.035  19.519  0.00  0.00    -0.290 NA
ATOM      7  N   UNL     1      17.370   7.437  20.768  0.00  0.00    -0.299 N 
ATOM     16  C   UNL     1      15.706   6.944  19.009  0.00  0.00    +0.104 C 
ATOM     17  C   UNL     1      15.694   9.112  20.075  0.00  0.00    +0.104 C 
ATOM     20  C   UNL     1      16.596   6.377  20.117  0.00  0.00    +0.123 C 
ATOM     21  C   UNL     1      16.577   8.585  21.204  0.00  0.00    +0.123 C 
ATOM     25  C   UNL     1      18.724   7.364  21.091  0.00  0.00    +0.213 C 
ATOM     26  C   UNL     1      19.435   6.085  20.730  0.00  0.00    +0.109 C 
ENDBRANCH   8   5
BRANCH  10   3
ATOM      3  O   UNL     1      13.080  10.647  17.710  0.00  0.00    -0.388 OA
ATOM     28  H   UNL     1      13.386  11.555  17.878  0.00  0.00    +0.210 HD
ENDBRANCH  10   3
BRANCH   9   6
ATOM      6  N   UNL     1      12.215   9.552  21.088  0.00  0.00    -0.308 NA
ATOM     27  H   UNL     1      13.193   9.732  21.315  0.00  0.00    +0.122 HD
BRANCH   6  15
ATOM     15  C   UNL     1      11.380  10.484  21.825  0.00  0.00    +0.084 C 
BRANCH  15  14
ATOM     14  C   UNL     1      12.199  11.649  22.385  0.00  0.00    +0.003 C 
ATOM     18  C   UNL     1      11.805  12.984  21.737  0.00  0.00    +0.005 C 
ATOM     19  C   UNL     1      12.092  11.733  23.915  0.00  0.00    +0.005 C 
ATOM     22  C   UNL     1      10.451  13.505  22.215  0.00  0.00    +0.000 C 
ATOM     23  C   UNL     1      10.738  12.255  24.392  0.00  0.00    +0.000 C 
ATOM     24  C   UNL     1      10.384  13.586  23.737  0.00  0.00    +0.000 C 
ENDBRANCH  15  14
ENDBRANCH   6  15
ENDBRANCH   9   6
TORSDOF 5
ENDMDL
MODEL 4
REMARK VINA RESULT:      -6.4      2.222      5.960
REMARK  Name = 25314254
REMARK  6 active torsions:
REMARK  status: ('A' for Active; 'I' for Inactive)
REMARK    1  A    between atoms: O_3  and  C_10
REMARK    2  A    between atoms: N_5  and  C_8
REMARK    3  A    between atoms: N_6  and  C_9
REMARK    4  A    between atoms: N_6  and  C_15
REMARK    5  A    between atoms: C_14  and  C_15
REMARK    6  A    between atoms: C_25  and  C_26
REMARK                            x       y       z     vdW  Elec       q    Type
REMARK                         _______ _______ _______ _____ _____    ______ ____
ROOT
ATOM      1  O   UNL     1      13.506   9.668  20.226  0.00  0.00    -0.343 OA
ATOM      2  O   UNL     1      12.039   8.565  21.644  0.00  0.00    -0.347 OA
ATOM      8  C   UNL     1      13.920   7.345  20.739  0.00  0.00    +0.143 C 
ATOM      9  C   UNL     1      12.587   8.089  18.641  0.00  0.00    +0.115 C 
ATOM     10  C   UNL     1      13.076   6.910  19.518  0.00  0.00    +0.156 C 
ATOM     11  C   UNL     1      12.330   9.372  19.464  0.00  0.00    +0.166 C 
ATOM     12  C   UNL     1      13.423   8.699  21.279  0.00  0.00    +0.270 C 
ATOM     13  C   UNL     1      11.316   9.202  20.581  0.00  0.00    +0.196 C 
ENDROOT
BRANCH   8   5
ATOM      4  O   UNL     1      19.671   5.018  20.067  0.00  0.00    -0.276 OA
ATOM      5  N   UNL     1      15.337   7.438  20.383  0.00  0.00    -0.290 NA
ATOM      7  N   UNL     1      18.098   6.679  20.471  0.00  0.00    -0.299 N 
ATOM     16  C   UNL     1      16.150   7.726  21.574  0.00  0.00    +0.104 C 
ATOM     17  C   UNL     1      15.790   6.197  19.738  0.00  0.00    +0.104 C 
ATOM     20  C   UNL     1      17.630   7.856  21.208  0.00  0.00    +0.123 C 
ATOM     21  C   UNL     1      17.259   6.303  19.334  0.00  0.00    +0.123 C 
ATOM     25  C   UNL     1      19.298   6.008  20.702  0.00  0.00    +0.213 C 
ATOM     26  C   UNL     1      20.171   6.549  21.805  0.00  0.00    +0.109 C 
ENDBRANCH   8   5
BRANCH  10   3
ATOM      3  O   UNL     1      11.930   6.203  20.014  0.00  0.00    -0.388 OA
ATOM     28  H   UNL     1      11.155   6.783  19.909  0.00  0.00    +0.210 HD
ENDBRANCH  10   3
BRANCH   9   6
ATOM      6  N   UNL     1      13.574   8.402  17.602  0.00  0.00    -0.308 NA
ATOM     27  H   UNL     1      13.488   7.758  16.817  0.00  0.00    +0.122 HD
BRANCH   6  15
ATOM     15  C   UNL     1      13.393   9.761  17.121  0.00  0.00    +0.084 C 
BRANCH  15  14
ATOM     14  C   UNL     1      14.727  10.399  16.727  0.00  0.00    +0.003 C 
ATOM     18  C   UNL     1      14.819  10.634  15.213  0.00  0.00    +0.005 C 
ATOM     19  C   UNL     1      14.981  11.702  17.499  0.00  0.00    +0.005 C 
ATOM     22  C   UNL     1      13.948  11.794  14.733  0.00  0.00    +0.000 C 
ATOM     23  C   UNL     1      14.110  12.861  17.018  0.00  0.00    +0.000 C 
ATOM     24  C   UNL     1      14.234  13.074  15.512  0.00  0.00    +0.000 C 
ENDBRANCH  15  14
ENDBRANCH   6  15
ENDBRANCH   9   6
TORSDOF 5
ENDMDL
MODEL 5
REMARK VINA RESULT:      -6.2      2.839      4.835
REMARK  Name = 25314254
REMARK  6 active torsions:
REMARK  status: ('A' for Active; 'I' for Inactive)
REMARK    1  A    between atoms: O_3  and  C_10
REMARK    2  A    between atoms: N_5  and  C_8
REMARK    3  A    between atoms: N_6  and  C_9
REMARK    4  A    between atoms: N_6  and  C_15
REMARK    5  A    between atoms: C_14  and  C_15
REMARK    6  A    between atoms: C_25  and  C_26
REMARK                            x       y       z     vdW  Elec       q    Type
REMARK                         _______ _______ _______ _____ _____    ______ ____
ROOT
ATOM      1  O   UNL     1      13.892   7.337  20.262  0.00  0.00    -0.343 OA
ATOM      2  O   UNL     1      11.933   6.197  19.773  0.00  0.00    -0.347 OA
ATOM      8  C   UNL     1      12.327   8.337  18.720  0.00  0.00    +0.143 C 
ATOM      9  C   UNL     1      12.318   8.880  21.257  0.00  0.00    +0.115 C 
ATOM     10  C   UNL     1      11.619   9.065  19.887  0.00  0.00    +0.156 C 
ATOM     11  C   UNL     1      13.018   7.507  21.383  0.00  0.00    +0.166 C 
ATOM     12  C   UNL     1      12.965   7.026  19.214  0.00  0.00    +0.270 C 
ATOM     13  C   UNL     1      12.094   6.317  21.194  0.00  0.00    +0.196 C 
ENDROOT
BRANCH   8   5
ATOM      4  O   UNL     1      14.237  13.371  15.564  0.00  0.00    -0.276 OA
ATOM      5  N   UNL     1      13.348   9.195  18.117  0.00  0.00    -0.290 NA
ATOM      7  N   UNL     1      14.347  11.169  16.295  0.00  0.00    -0.299 N 
ATOM     16  C   UNL     1      13.516   8.876  16.692  0.00  0.00    +0.104 C 
ATOM     17  C   UNL     1      13.000  10.613  18.289  0.00  0.00    +0.104 C 
ATOM     20  C   UNL     1      14.604   9.745  16.059  0.00  0.00    +0.123 C 
ATOM     21  C   UNL     1      14.081  11.512  17.691  0.00  0.00    +0.123 C 
ATOM     25  C   UNL     1      14.459  12.177  15.340  0.00  0.00    +0.213 C 
ATOM     26  C   UNL     1      14.875  11.751  13.956  0.00  0.00    +0.109 C 
ENDBRANCH   8   5
BRANCH  10   3
ATOM      3  O   UNL     1      10.287   8.542  19.979  0.00  0.00    -0.388 OA
ATOM     28  H   UNL     1      10.281   7.666  19.553  0.00  0.00    +0.210 HD
ENDBRANCH  10   3
BRANCH   9   6
ATOM      6  N   UNL     1      13.322   9.927  21.469  0.00  0.00    -0.308 NA
ATOM     27  H   UNL     1      13.434  10.495  20.630  0.00  0.00    +0.122 HD
BRANCH   6  15
ATOM     15  C   UNL     1      12.936  10.787  22.574  0.00  0.00    +0.084 C 
BRANCH  15  14
ATOM     14  C   UNL     1      11.424  11.028  22.595  0.00  0.00    +0.003 C 
ATOM     18  C   UNL     1      10.826  10.755  23.982  0.00  0.00    +0.005 C 
ATOM     19  C   UNL     1      11.070  12.443  22.116  0.00  0.00    +0.005 C 
ATOM     22  C   UNL     1      11.167  11.837  25.005  0.00  0.00    +0.000 C 
ATOM     23  C   UNL     1      11.411  13.524  23.140  0.00  0.00    +0.000 C 
ATOM     24  C   UNL     1      10.792  13.227  24.502  0.00  0.00    +0.000 C 
ENDBRANCH  15  14
ENDBRANCH   6  15
ENDBRANCH   9   6
TORSDOF 5
ENDMDL
MODEL 6
REMARK VINA RESULT:      -6.1     26.453     29.878
REMARK  Name = 25314254
REMARK  6 active torsions:
REMARK  status: ('A' for Active; 'I' for Inactive)
REMARK    1  A    between atoms: O_3  and  C_10
REMARK    2  A    between atoms: N_5  and  C_8
REMARK    3  A    between atoms: N_6  and  C_9
REMARK    4  A    between atoms: N_6  and  C_15
REMARK    5  A    between atoms: C_14  and  C_15
REMARK    6  A    between atoms: C_25  and  C_26
REMARK                            x       y       z     vdW  Elec       q    Type
REMARK                         _______ _______ _______ _____ _____    ______ ____
ROOT
ATOM      1  O   UNL     1      -7.735 -11.111  19.820  0.00  0.00    -0.343 OA
ATOM      2  O   UNL     1      -8.554 -13.271  19.613  0.00  0.00    -0.347 OA
ATOM      8  C   UNL     1      -7.432 -12.266  17.722  0.00  0.00    +0.143 C 
ATOM      9  C   UNL     1      -9.446 -10.692  18.164  0.00  0.00    +0.115 C 
ATOM     10  C   UNL     1      -8.773 -11.700  17.200  0.00  0.00    +0.156 C 
ATOM     11  C   UNL     1      -9.152 -11.006  19.649  0.00  0.00    +0.166 C 
ATOM     12  C   UNL     1      -7.467 -12.401  19.255  0.00  0.00    +0.270 C 
ATOM     13  C   UNL     1      -9.585 -12.394  20.089  0.00  0.00    +0.196 C 
ENDROOT
BRANCH   8   5
ATOM      4  O   UNL     1      -3.007 -10.348  13.761  0.00  0.00    -0.276 OA
ATOM      5  N   UNL     1      -6.316 -11.407  17.321  0.00  0.00    -0.290 NA
ATOM      7  N   UNL     1      -3.955 -10.725  15.848  0.00  0.00    -0.299 N 
ATOM     16  C   UNL     1      -5.031 -12.050  17.634  0.00  0.00    +0.104 C 
ATOM     17  C   UNL     1      -6.397 -11.091  15.887  0.00  0.00    +0.104 C 
ATOM     20  C   UNL     1      -3.858 -11.147  17.248  0.00  0.00    +0.123 C 
ATOM     21  C   UNL     1      -5.253 -10.167  15.472  0.00  0.00    +0.123 C 
ATOM     25  C   UNL     1      -2.901 -10.708  14.936  0.00  0.00    +0.213 C 
ATOM     26  C   UNL     1      -1.560 -11.170  15.448  0.00  0.00    +0.109 C 
ENDBRANCH   8   5
BRANCH  10   3
ATOM      3  O   UNL     1      -9.663 -12.809  17.004  0.00  0.00    -0.388 OA
ATOM     28  H   UNL     1      -9.789 -12.923  16.046  0.00  0.00    +0.210 HD
ENDBRANCH  10   3
BRANCH   9   6
ATOM      6  N   UNL     1      -8.985  -9.327  17.886  0.00  0.00    -0.308 NA
ATOM     27  H   UNL     1      -8.375  -9.312  17.070  0.00  0.00    +0.122 HD
BRANCH   6  15
ATOM     15  C   UNL     1     -10.116  -8.447  17.647  0.00  0.00    +0.084 C 
BRANCH  15  14
ATOM     14  C   UNL     1     -10.411  -8.307  16.152  0.00  0.00    +0.003 C 
ATOM     18  C   UNL     1     -11.800  -8.854  15.794  0.00  0.00    +0.005 C 
ATOM     19  C   UNL     1     -10.258  -6.854  15.678  0.00  0.00    +0.005 C 
ATOM     22  C   UNL     1     -12.939  -7.948  16.260  0.00  0.00    +0.000 C 
ATOM     23  C   UNL     1     -11.397  -5.949  16.145  0.00  0.00    +0.000 C 
ATOM     24  C   UNL     1     -12.761  -6.517  15.763  0.00  0.00    +0.000 C 
ENDBRANCH  15  14
ENDBRANCH   6  15
ENDBRANCH   9   6
TORSDOF 5
ENDMDL
MODEL 7
REMARK VINA RESULT:      -6.0      3.047      5.797
REMARK  Name = 25314254
REMARK  6 active torsions:
REMARK  status: ('A' for Active; 'I' for Inactive)
REMARK    1  A    between atoms: O_3  and  C_10
REMARK    2  A    between atoms: N_5  and  C_8
REMARK    3  A    between atoms: N_6  and  C_9
REMARK    4  A    between atoms: N_6  and  C_15
REMARK    5  A    between atoms: C_14  and  C_15
REMARK    6  A    between atoms: C_25  and  C_26
REMARK                            x       y       z     vdW  Elec       q    Type
REMARK                         _______ _______ _______ _____ _____    ______ ____
ROOT
ATOM      1  O   UNL     1      11.487   8.756  19.736  0.00  0.00    -0.343 OA
ATOM      2  O   UNL     1      11.458   6.685  20.781  0.00  0.00    -0.347 OA
ATOM      8  C   UNL     1      12.290   8.596  22.006  0.00  0.00    +0.143 C 
ATOM      9  C   UNL     1      13.872   8.429  19.957  0.00  0.00    +0.115 C 
ATOM     10  C   UNL     1      13.725   8.325  21.495  0.00  0.00    +0.156 C 
ATOM     11  C   UNL     1      12.587   8.006  19.209  0.00  0.00    +0.166 C 
ATOM     12  C   UNL     1      11.253   8.093  20.985  0.00  0.00    +0.270 C 
ATOM     13  C   UNL     1      12.126   6.592  19.514  0.00  0.00    +0.196 C 
ENDROOT
BRANCH   8   5
ATOM      4  O   UNL     1      12.975  13.819  25.351  0.00  0.00    -0.276 OA
ATOM      5  N   UNL     1      12.092  10.024  22.260  0.00  0.00    -0.290 NA
ATOM      7  N   UNL     1      11.898  12.377  23.883  0.00  0.00    -0.299 N 
ATOM     16  C   UNL     1      10.923  10.236  23.127  0.00  0.00    +0.104 C 
ATOM     17  C   UNL     1      13.295  10.614  22.865  0.00  0.00    +0.104 C 
ATOM     20  C   UNL     1      10.687  11.727  23.373  0.00  0.00    +0.123 C 
ATOM     21  C   UNL     1      13.104  12.111  23.100  0.00  0.00    +0.123 C 
ATOM     25  C   UNL     1      11.942  13.285  24.940  0.00  0.00    +0.213 C 
ATOM     26  C   UNL     1      10.629  13.610  25.604  0.00  0.00    +0.109 C 
ENDBRANCH   8   5
BRANCH  10   3
ATOM      3  O   UNL     1      14.085   6.996  21.900  0.00  0.00    -0.388 OA
ATOM     28  H   UNL     1      13.423   6.384  21.533  0.00  0.00    +0.210 HD
ENDBRANCH  10   3
BRANCH   9   6
ATOM      6  N   UNL     1      14.200   9.803  19.563  0.00  0.00    -0.308 NA
ATOM     27  H   UNL     1      14.929  10.187  20.163  0.00  0.00    +0.122 HD
BRANCH   6  15
ATOM     15  C   UNL     1      14.654   9.843  18.184  0.00  0.00    +0.084 C 
BRANCH  15  14
ATOM     14  C   UNL     1      13.905  10.906  17.376  0.00  0.00    +0.003 C 
ATOM     18  C   UNL     1      14.563  12.286  17.507  0.00  0.00    +0.005 C 
ATOM     19  C   UNL     1      13.767  10.504  15.901  0.00  0.00    +0.005 C 
ATOM     22  C   UNL     1      15.874  12.401  16.730  0.00  0.00    +0.000 C 
ATOM     23  C   UNL     1      15.078  10.619  15.125  0.00  0.00    +0.000 C 
ATOM     24  C   UNL     1      15.699  12.005  15.268  0.00  0.00    +0.000 C 
ENDBRANCH  15  14
ENDBRANCH   6  15
ENDBRANCH   9   6
TORSDOF 5
ENDMDL
MODEL 8
REMARK VINA RESULT:      -5.9     26.365     28.380
REMARK  Name = 25314254
REMARK  6 active torsions:
REMARK  status: ('A' for Active; 'I' for Inactive)
REMARK    1  A    between atoms: O_3  and  C_10
REMARK    2  A    between atoms: N_5  and  C_8
REMARK    3  A    between atoms: N_6  and  C_9
REMARK    4  A    between atoms: N_6  and  C_15
REMARK    5  A    between atoms: C_14  and  C_15
REMARK    6  A    between atoms: C_25  and  C_26
REMARK                            x       y       z     vdW  Elec       q    Type
REMARK                         _______ _______ _______ _____ _____    ______ ____
ROOT
ATOM      1  O   UNL     1      -2.264 -10.131  13.727  0.00  0.00    -0.343 OA
ATOM      2  O   UNL     1      -1.689 -12.267  13.028  0.00  0.00    -0.347 OA
ATOM      8  C   UNL     1      -3.945 -11.487  12.648  0.00  0.00    +0.143 C 
ATOM      9  C   UNL     1      -3.677 -11.396  15.227  0.00  0.00    +0.115 C 
ATOM     10  C   UNL     1      -4.393 -12.049  14.019  0.00  0.00    +0.156 C 
ATOM     11  C   UNL     1      -2.232 -10.959  14.895  0.00  0.00    +0.166 C 
ATOM     12  C   UNL     1      -2.456 -11.100  12.687  0.00  0.00    +0.270 C 
ATOM     13  C   UNL     1      -1.338 -12.086  14.408  0.00  0.00    +0.196 C 
ENDROOT
BRANCH   8   5
ATOM      4  O   UNL     1      -8.955  -8.751  10.126  0.00  0.00    -0.276 OA
ATOM      5  N   UNL     1      -4.755 -10.326  12.276  0.00  0.00    -0.290 NA
ATOM      7  N   UNL     1      -6.724  -8.905  10.755  0.00  0.00    -0.299 N 
ATOM     16  C   UNL     1      -4.480  -9.929  10.887  0.00  0.00    +0.104 C 
ATOM     17  C   UNL     1      -6.185 -10.613  12.454  0.00  0.00    +0.104 C 
ATOM     20  C   UNL     1      -5.297  -8.696  10.497  0.00  0.00    +0.123 C 
ATOM     21  C   UNL     1      -7.031  -9.392  12.099  0.00  0.00    +0.123 C 
ATOM     25  C   UNL     1      -7.759  -8.565   9.885  0.00  0.00    +0.213 C 
ATOM     26  C   UNL     1      -7.359  -7.938   8.575  0.00  0.00    +0.109 C 
ENDBRANCH   8   5
BRANCH  10   3
ATOM      3  O   UNL     1      -4.107 -13.455  14.023  0.00  0.00    -0.388 OA
ATOM     28  H   UNL     1      -3.395 -13.616  13.380  0.00  0.00    +0.210 HD
ENDBRANCH  10   3
BRANCH   9   6
ATOM      6  N   UNL     1      -4.417 -10.216  15.688  0.00  0.00    -0.308 NA
ATOM     27  H   UNL     1      -4.798  -9.698  14.897  0.00  0.00    +0.122 HD
BRANCH   6  15
ATOM     15  C   UNL     1      -5.506 -10.609  16.564  0.00  0.00    +0.084 C 
BRANCH  15  14
ATOM     14  C   UNL     1      -5.082 -11.727  17.520  0.00  0.00    +0.003 C 
ATOM     18  C   UNL     1      -4.870 -11.203  18.947  0.00  0.00    +0.005 C 
ATOM     19  C   UNL     1      -6.084 -12.891  17.509  0.00  0.00    +0.005 C 
ATOM     22  C   UNL     1      -6.178 -10.875  19.666  0.00  0.00    +0.000 C 
ATOM     23  C   UNL     1      -7.391 -12.563  18.228  0.00  0.00    +0.000 C 
ATOM     24  C   UNL     1      -7.143 -12.056  19.646  0.00  0.00    +0.000 C 
ENDBRANCH  15  14
ENDBRANCH   6  15
ENDBRANCH   9   6
TORSDOF 5
ENDMDL
MODEL 9
REMARK VINA RESULT:      -5.8     13.490     16.747
REMARK  Name = 25314254
REMARK  6 active torsions:
REMARK  status: ('A' for Active; 'I' for Inactive)
REMARK    1  A    between atoms: O_3  and  C_10
REMARK    2  A    between atoms: N_5  and  C_8
REMARK    3  A    between atoms: N_6  and  C_9
REMARK    4  A    between atoms: N_6  and  C_15
REMARK    5  A    between atoms: C_14  and  C_15
REMARK    6  A    between atoms: C_25  and  C_26
REMARK                            x       y       z     vdW  Elec       q    Type
REMARK                         _______ _______ _______ _____ _____    ______ ____
ROOT
ATOM      1  O   UNL     1      13.083   4.213   2.024  0.00  0.00    -0.343 OA
ATOM      2  O   UNL     1      12.508   5.305   0.061  0.00  0.00    -0.347 OA
ATOM      8  C   UNL     1      12.775   6.606   2.080  0.00  0.00    +0.143 C 
ATOM      9  C   UNL     1      10.866   4.946   2.653  0.00  0.00    +0.115 C 
ATOM     10  C   UNL     1      11.278   6.421   2.423  0.00  0.00    +0.156 C 
ATOM     11  C   UNL     1      11.692   3.960   1.796  0.00  0.00    +0.166 C 
ATOM     12  C   UNL     1      13.291   5.409   1.262  0.00  0.00    +0.270 C 
ATOM     13  C   UNL     1      11.609   4.213   0.301  0.00  0.00    +0.196 C 
ENDROOT
BRANCH   8   5
ATOM      4  O   UNL     1      15.490   9.954   6.593  0.00  0.00    -0.276 OA
ATOM      5  N   UNL     1      13.570   6.759   3.300  0.00  0.00    -0.290 NA
ATOM      7  N   UNL     1      15.260   8.149   5.150  0.00  0.00    -0.299 N 
ATOM     16  C   UNL     1      14.978   7.022   2.969  0.00  0.00    +0.104 C 
ATOM     17  C   UNL     1      13.029   7.838   4.139  0.00  0.00    +0.104 C 
ATOM     20  C   UNL     1      15.825   7.151   4.237  0.00  0.00    +0.123 C 
ATOM     21  C   UNL     1      13.836   7.977   5.429  0.00  0.00    +0.123 C 
ATOM     25  C   UNL     1      15.989   9.124   5.829  0.00  0.00    +0.213 C 
ATOM     26  C   UNL     1      17.477   9.142   5.590  0.00  0.00    +0.109 C 
ENDBRANCH   8   5
BRANCH  10   3
ATOM      3  O   UNL     1      10.516   6.943   1.324  0.00  0.00    -0.388 OA
ATOM     28  H   UNL     1      10.668   6.365   0.556  0.00  0.00    +0.210 HD
ENDBRANCH  10   3
BRANCH   9   6
ATOM      6  N   UNL     1      11.034   4.578   4.063  0.00  0.00    -0.308 NA
ATOM     27  H   UNL     1      12.016   4.415   4.279  0.00  0.00    +0.122 HD
BRANCH   6  15
ATOM     15  C   UNL     1      10.530   5.632   4.927  0.00  0.00    +0.084 C 
BRANCH  15  14
ATOM     14  C   UNL     1       9.327   5.157   5.746  0.00  0.00    +0.003 C 
ATOM     18  C   UNL     1       9.730   4.774   7.177  0.00  0.00    +0.005 C 
ATOM     19  C   UNL     1       8.202   6.202   5.758  0.00  0.00    +0.005 C 
ATOM     22  C   UNL     1      10.045   5.984   8.055  0.00  0.00    +0.000 C 
ATOM     23  C   UNL     1       8.517   7.412   6.636  0.00  0.00    +0.000 C 
ATOM     24  C   UNL     1       8.903   6.995   8.052  0.00  0.00    +0.000 C 
ENDBRANCH  15  14
ENDBRANCH   6  15
ENDBRANCH   9   6
TORSDOF 5
ENDMDL
MODEL 10
REMARK VINA RESULT:      -5.8     13.573     17.153
REMARK  Name = 25314254
REMARK  6 active torsions:
REMARK  status: ('A' for Active; 'I' for Inactive)
REMARK    1  A    between atoms: O_3  and  C_10
REMARK    2  A    between atoms: N_5  and  C_8
REMARK    3  A    between atoms: N_6  and  C_9
REMARK    4  A    between atoms: N_6  and  C_15
REMARK    5  A    between atoms: C_14  and  C_15
REMARK    6  A    between atoms: C_25  and  C_26
REMARK                            x       y       z     vdW  Elec       q    Type
REMARK                         _______ _______ _______ _____ _____    ______ ____
ROOT
ATOM      1  O   UNL     1      15.910   7.786   5.310  0.00  0.00    -0.343 OA
ATOM      2  O   UNL     1      15.784  10.013   4.673  0.00  0.00    -0.347 OA
ATOM      8  C   UNL     1      13.822   8.621   4.431  0.00  0.00    +0.143 C 
ATOM      9  C   UNL     1      15.598   7.466   2.933  0.00  0.00    +0.115 C 
ATOM     10  C   UNL     1      14.251   8.229   2.998  0.00  0.00    +0.156 C 
ATOM     11  C   UNL     1      16.577   7.899   4.048  0.00  0.00    +0.166 C 
ATOM     12  C   UNL     1      15.057   8.939   5.293  0.00  0.00    +0.270 C 
ATOM     13  C   UNL     1      16.908   9.381   4.045  0.00  0.00    +0.196 C 
ENDROOT
BRANCH   8   5
ATOM      4  O   UNL     1       8.490   5.766   5.968  0.00  0.00    -0.276 OA
ATOM      5  N   UNL     1      13.042   7.547   5.050  0.00  0.00    -0.290 NA
ATOM      7  N   UNL     1      10.715   6.373   6.240  0.00  0.00    -0.299 N 
ATOM     16  C   UNL     1      12.628   7.928   6.409  0.00  0.00    +0.104 C 
ATOM     17  C   UNL     1      11.868   7.220   4.228  0.00  0.00    +0.104 C 
ATOM     20  C   UNL     1      11.840   6.800   7.077  0.00  0.00    +0.123 C 
ATOM     21  C   UNL     1      11.071   6.077   4.854  0.00  0.00    +0.123 C 
ATOM     25  C   UNL     1       9.421   6.125   6.694  0.00  0.00    +0.213 C 
ATOM     26  C   UNL     1       9.175   6.322   8.168  0.00  0.00    +0.109 C 
ENDBRANCH   8   5
BRANCH  10   3
ATOM      3  O   UNL     1      14.374   9.439   2.237  0.00  0.00    -0.388 OA
ATOM     28  H   UNL     1      13.875  10.134   2.701  0.00  0.00    +0.210 HD
ENDBRANCH  10   3
BRANCH   9   6
ATOM      6  N   UNL     1      15.378   6.021   3.054  0.00  0.00    -0.308 NA
ATOM     27  H   UNL     1      14.992   5.790   3.969  0.00  0.00    +0.122 HD
BRANCH   6  15
ATOM     15  C   UNL     1      14.463   5.558   2.025  0.00  0.00    +0.084 C 
BRANCH  15  14
ATOM     14  C   UNL     1      14.747   4.105   1.635  0.00  0.00    +0.003 C 
ATOM     18  C   UNL     1      13.454   3.284   1.526  0.00  0.00    +0.005 C 
ATOM     19  C   UNL     1      15.561   4.017   0.336  0.00  0.00    +0.005 C 
ATOM     22  C   UNL     1      12.635   3.619   0.280  0.00  0.00    +0.000 C 
ATOM     23  C   UNL     1      14.741   4.352  -0.909  0.00  0.00    +0.000 C 
ATOM     24  C   UNL     1      13.471   3.510  -0.991  0.00  0.00    +0.000 C 
ENDBRANCH  15  14
ENDBRANCH   6  15
ENDBRANCH   9   6
TORSDOF 5
ENDMDL
