REMARK  Name = 75536087
REMARK  7 active torsions:
REMARK  status: ('A' for Active; 'I' for Inactive)
REMARK    1  A    between atoms: O_1  and  C_10
REMARK    2  A    between atoms: O_2  and  C_12
REMARK    3  A    between atoms: N_5  and  C_9
REMARK    4  A    between atoms: N_7  and  C_18
REMARK    5  A    between atoms: C_8  and  C_13
REMARK    6  A    between atoms: C_16  and  C_19
REMARK    7  A    between atoms: C_24  and  C_27
REMARK                            x       y       z     vdW  Elec       q    Type
REMARK                         _______ _______ _______ _____ _____    ______ ____
ROOT
ATOM      8  C   UNL     1       0.682   2.002  -1.068  0.00  0.00    +0.046 C 
ATOM      9  C   UNL     1       1.688   1.879   0.099  0.00  0.00    +0.112 C 
ATOM     10  C   UNL     1       2.471   3.189   0.032  0.00  0.00    +0.164 C 
ATOM     11  C   UNL     1       0.530   3.521  -1.336  0.00  0.00    +0.044 C 
ATOM     12  C   UNL     1       1.395   4.219  -0.289  0.00  0.00    +0.145 C 
ENDROOT
BRANCH   8  13
ATOM      6  N   UNL     1      -2.592   1.016   0.575  0.00  0.00    -0.240 NA
ATOM     13  C   UNL     1      -0.623   1.281  -0.803  0.00  0.00    -0.024 A 
ATOM     14  C   UNL     1      -1.060   0.258  -1.637  0.00  0.00    +0.009 A 
ATOM     15  C   UNL     1      -1.419   1.619   0.280  0.00  0.00    +0.116 A 
ATOM     17  C   UNL     1      -2.262  -0.386  -1.367  0.00  0.00    +0.044 A 
ATOM     18  C   UNL     1      -2.984   0.026  -0.259  0.00  0.00    +0.121 A 
BRANCH  18   7
ATOM      4  O   UNL     1      -6.557  -1.926   0.793  0.00  0.00    -0.377 OA
ATOM      7  N   UNL     1      -4.191  -0.632   0.001  0.00  0.00    -0.311 N 
ATOM     20  C   UNL     1      -5.263   0.122   0.666  0.00  0.00    +0.134 C 
ATOM     21  C   UNL     1      -4.197  -2.078   0.249  0.00  0.00    +0.134 C 
ATOM     22  C   UNL     1      -6.605  -0.553   0.405  0.00  0.00    +0.178 C 
ATOM     23  C   UNL     1      -5.596  -2.635   0.011  0.00  0.00    +0.178 C 
ENDBRANCH  18   7
ENDBRANCH   8  13
BRANCH   9   5
ATOM      3  O   UNL     1       1.262  -0.734   1.212  0.00  0.00    -0.270 OA
ATOM      5  N   UNL     1       2.547   0.731  -0.047  0.00  0.00    -0.305 N 
ATOM     16  C   UNL     1       2.257  -0.498   0.531  0.00  0.00    +0.245 C 
ATOM     30  H   UNL     1       3.373   0.818  -0.632  0.00  0.00    +0.149 HD
BRANCH  16  19
ATOM     19  C   UNL     1       3.257  -1.574   0.309  0.00  0.00    +0.040 A 
ATOM     24  C   UNL     1       2.909  -2.760  -0.338  0.00  0.00    -0.038 A 
ATOM     25  C   UNL     1       4.563  -1.383   0.760  0.00  0.00    +0.013 A 
ATOM     26  C   UNL     1       3.866  -3.755  -0.535  0.00  0.00    +0.004 A 
ATOM     27  C   UNL     1       1.517  -2.990  -0.832  0.00  0.00    +0.044 C 
ATOM     28  C   UNL     1       5.521  -2.378   0.564  0.00  0.00    +0.001 A 
ATOM     29  C   UNL     1       5.173  -3.564  -0.084  0.00  0.00    +0.000 A 
ENDBRANCH  16  19
ENDBRANCH   9   5
BRANCH  10   1
ATOM      1  O   UNL     1       3.118   3.490   1.255  0.00  0.00    -0.387 OA
ATOM     31  H   UNL     1       3.512   4.374   1.166  0.00  0.00    +0.210 HD
ENDBRANCH  10   1
BRANCH  12   2
ATOM      2  O   UNL     1       0.594   4.494   0.856  0.00  0.00    -0.389 OA
ATOM     32  H   UNL     1      -0.096   5.124   0.585  0.00  0.00    +0.210 HD
ENDBRANCH  12   2
TORSDOF 6
