MODEL 1
REMARK VINA RESULT:      -7.3      0.000      0.000
REMARK  Name = 11911834
REMARK  9 active torsions:
REMARK  status: ('A' for Active; 'I' for Inactive)
REMARK    1  A    between atoms: O_4  and  C_18
REMARK    2  A    between atoms: O_4  and  C_23
REMARK    3  A    between atoms: N_5  and  C_12
REMARK    4  A    between atoms: N_6  and  C_13
REMARK    5  A    between atoms: N_9  and  C_30
REMARK    6  A    between atoms: N_9  and  C_34
REMARK    7  A    between atoms: N_9  and  C_35
REMARK    8  A    between atoms: C_16  and  C_18
REMARK    9  A    between atoms: C_19  and  C_22
REMARK                            x       y       z     vdW  Elec       q    Type
REMARK                         _______ _______ _______ _____ _____    ______ ____
ROOT
ATOM      1  O   UNL     1       9.948  11.563  12.091  0.00  0.00    -0.370 OA
ATOM      2  O   UNL     1      10.905  13.973  10.356  0.00  0.00    -0.370 OA
ATOM     10  C   UNL     1      11.006  12.547  10.202  0.00  0.00    +0.171 C 
ATOM     11  C   UNL     1      11.232  11.959  11.581  0.00  0.00    +0.171 C 
ATOM     12  C   UNL     1       9.677  11.970   9.769  0.00  0.00    +0.130 C 
ATOM     13  C   UNL     1      11.783  13.111  12.387  0.00  0.00    +0.130 C 
ATOM     14  C   UNL     1       8.948  11.806  11.091  0.00  0.00    +0.185 C 
ATOM     15  C   UNL     1      11.138  14.317  11.729  0.00  0.00    +0.185 C 
ENDROOT
BRANCH  13   6
ATOM      6  N   UNL     1      13.222  13.172  12.245  0.00  0.00    -0.306 N 
ATOM      7  N   UNL     1      13.557  11.815  14.099  0.00  0.00    -0.214 NA
ATOM      8  N   UNL     1      15.414  12.679  12.829  0.00  0.00    -0.223 NA
ATOM     17  C   UNL     1      14.103  12.527  13.095  0.00  0.00    +0.216 A 
ATOM     19  C   UNL     1      14.445  11.200  14.908  0.00  0.00    +0.076 A 
ATOM     20  C   UNL     1      16.244  12.037  13.677  0.00  0.00    +0.116 A 
ATOM     21  C   UNL     1      15.813  11.276  14.744  0.00  0.00    +0.048 A 
ATOM     37  H   UNL     1      13.623  13.666  11.456  0.00  0.00    +0.149 HD
BRANCH  19  22
ATOM     22  C   UNL     1      13.864  10.434  15.985  0.00  0.00    +0.001 A 
ATOM     24  C   UNL     1      14.381  10.544  17.277  0.00  0.00    +0.012 A 
ATOM     25  C   UNL     1      12.787   9.585  15.735  0.00  0.00    +0.012 A 
ATOM     26  C   UNL     1      13.819   9.805  18.317  0.00  0.00    +0.024 A 
ATOM     27  C   UNL     1      12.225   8.845  16.776  0.00  0.00    +0.024 A 
ATOM     30  C   UNL     1      12.741   8.956  18.067  0.00  0.00    +0.029 A 
BRANCH  30   9
ATOM      9  N   UNL     1      12.173   8.208  19.120  0.00  0.00    -0.336 N 
ATOM     34  C   UNL     1      11.109   8.769  19.930  0.00  0.00    +0.129 C 
ATOM     35  C   UNL     1      12.657   6.873  19.415  0.00  0.00    +0.129 C 
ENDBRANCH  30   9
ENDBRANCH  19  22
ENDBRANCH  13   6
BRANCH  12   5
ATOM      3  O   UNL     1       9.079  11.335   7.006  0.00  0.00    -0.272 OA
ATOM      5  N   UNL     1       9.851  10.700   9.106  0.00  0.00    -0.305 N 
ATOM     16  C   UNL     1       9.534  10.490   7.772  0.00  0.00    +0.251 C 
ATOM     36  H   UNL     1      10.274   9.941   9.634  0.00  0.00    +0.149 HD
BRANCH  16  18
ATOM     18  C   UNL     1       9.819   9.067   7.345  0.00  0.00    +0.324 C 
BRANCH  18   4
ATOM      4  O   UNL     1       8.820   8.192   7.826  0.00  0.00    -0.483 OA
BRANCH   4  23
ATOM     23  C   UNL     1       9.136   6.857   7.898  0.00  0.00    +0.121 A 
ATOM     28  C   UNL     1       9.092   6.195   9.126  0.00  0.00    +0.045 A 
ATOM     29  C   UNL     1       9.502   6.163   6.745  0.00  0.00    +0.045 A 
ATOM     31  C   UNL     1       9.414   4.839   9.199  0.00  0.00    +0.004 A 
ATOM     32  C   UNL     1       9.823   4.807   6.818  0.00  0.00    +0.004 A 
ATOM     33  C   UNL     1       9.779   4.146   8.045  0.00  0.00    +0.000 A 
ENDBRANCH   4  23
ENDBRANCH  18   4
ENDBRANCH  16  18
ENDBRANCH  12   5
TORSDOF 7
ENDMDL
MODEL 2
REMARK VINA RESULT:      -7.3      9.591     13.032
REMARK  Name = 11911834
REMARK  9 active torsions:
REMARK  status: ('A' for Active; 'I' for Inactive)
REMARK    1  A    between atoms: O_4  and  C_18
REMARK    2  A    between atoms: O_4  and  C_23
REMARK    3  A    between atoms: N_5  and  C_12
REMARK    4  A    between atoms: N_6  and  C_13
REMARK    5  A    between atoms: N_9  and  C_30
REMARK    6  A    between atoms: N_9  and  C_34
REMARK    7  A    between atoms: N_9  and  C_35
REMARK    8  A    between atoms: C_16  and  C_18
REMARK    9  A    between atoms: C_19  and  C_22
REMARK                            x       y       z     vdW  Elec       q    Type
REMARK                         _______ _______ _______ _____ _____    ______ ____
ROOT
ATOM      1  O   UNL     1      16.110   8.577  20.274  0.00  0.00    -0.370 OA
ATOM      2  O   UNL     1      17.041   5.624  19.884  0.00  0.00    -0.370 OA
ATOM     10  C   UNL     1      16.065   6.244  20.738  0.00  0.00    +0.171 C 
ATOM     11  C   UNL     1      16.630   7.582  21.172  0.00  0.00    +0.171 C 
ATOM     12  C   UNL     1      14.828   6.606  19.946  0.00  0.00    +0.130 C 
ATOM     13  C   UNL     1      18.121   7.432  20.982  0.00  0.00    +0.130 C 
ATOM     14  C   UNL     1      15.206   7.951  19.351  0.00  0.00    +0.185 C 
ATOM     15  C   UNL     1      18.212   6.452  19.827  0.00  0.00    +0.185 C 
ENDROOT
BRANCH  13   6
ATOM      6  N   UNL     1      18.717   6.864  22.171  0.00  0.00    -0.306 N 
ATOM      7  N   UNL     1      20.864   7.401  21.464  0.00  0.00    -0.214 NA
ATOM      8  N   UNL     1      20.481   6.284  23.565  0.00  0.00    -0.223 NA
ATOM     17  C   UNL     1      20.080   6.849  22.410  0.00  0.00    +0.216 A 
ATOM     19  C   UNL     1      22.186   7.369  21.730  0.00  0.00    +0.076 A 
ATOM     20  C   UNL     1      21.816   6.287  23.767  0.00  0.00    +0.116 A 
ATOM     21  C   UNL     1      22.725   6.821  22.876  0.00  0.00    +0.048 A 
ATOM     37  H   UNL     1      18.119   6.498  22.902  0.00  0.00    +0.149 HD
BRANCH  19  22
ATOM     22  C   UNL     1      23.029   7.961  20.719  0.00  0.00    +0.001 A 
ATOM     24  C   UNL     1      22.544   9.001  19.927  0.00  0.00    +0.012 A 
ATOM     25  C   UNL     1      24.330   7.492  20.535  0.00  0.00    +0.012 A 
ATOM     26  C   UNL     1      23.359   9.573  18.951  0.00  0.00    +0.024 A 
ATOM     27  C   UNL     1      25.146   8.065  19.559  0.00  0.00    +0.024 A 
ATOM     30  C   UNL     1      24.661   9.106  18.767  0.00  0.00    +0.029 A 
BRANCH  30   9
ATOM      9  N   UNL     1      25.485   9.684  17.779  0.00  0.00    -0.336 N 
ATOM     34  C   UNL     1      26.424   8.867  17.036  0.00  0.00    +0.129 C 
ATOM     35  C   UNL     1      25.413  11.105  17.504  0.00  0.00    +0.129 C 
ENDBRANCH  30   9
ENDBRANCH  19  22
ENDBRANCH  13   6
BRANCH  12   5
ATOM      3  O   UNL     1      12.041   6.422  19.175  0.00  0.00    -0.272 OA
ATOM      5  N   UNL     1      13.674   6.720  20.805  0.00  0.00    -0.305 N 
ATOM     16  C   UNL     1      12.370   6.618  20.342  0.00  0.00    +0.251 C 
ATOM     36  H   UNL     1      13.831   6.829  21.803  0.00  0.00    +0.149 HD
BRANCH  16  18
ATOM     18  C   UNL     1      11.363   6.776  21.460  0.00  0.00    +0.324 C 
BRANCH  18   4
ATOM      4  O   UNL     1      10.504   7.867  21.207  0.00  0.00    -0.483 OA
BRANCH   4  23
ATOM     23  C   UNL     1      10.927   9.108  21.620  0.00  0.00    +0.121 A 
ATOM     28  C   UNL     1      10.639   9.550  22.912  0.00  0.00    +0.045 A 
ATOM     29  C   UNL     1      11.642   9.928  20.747  0.00  0.00    +0.045 A 
ATOM     31  C   UNL     1      11.068  10.810  23.330  0.00  0.00    +0.004 A 
ATOM     32  C   UNL     1      12.072  11.188  21.166  0.00  0.00    +0.004 A 
ATOM     33  C   UNL     1      11.784  11.628  22.457  0.00  0.00    +0.000 A 
ENDBRANCH   4  23
ENDBRANCH  18   4
ENDBRANCH  16  18
ENDBRANCH  12   5
TORSDOF 7
ENDMDL
MODEL 3
REMARK VINA RESULT:      -7.3      7.511     12.244
REMARK  Name = 11911834
REMARK  9 active torsions:
REMARK  status: ('A' for Active; 'I' for Inactive)
REMARK    1  A    between atoms: O_4  and  C_18
REMARK    2  A    between atoms: O_4  and  C_23
REMARK    3  A    between atoms: N_5  and  C_12
REMARK    4  A    between atoms: N_6  and  C_13
REMARK    5  A    between atoms: N_9  and  C_30
REMARK    6  A    between atoms: N_9  and  C_34
REMARK    7  A    between atoms: N_9  and  C_35
REMARK    8  A    between atoms: C_16  and  C_18
REMARK    9  A    between atoms: C_19  and  C_22
REMARK                            x       y       z     vdW  Elec       q    Type
REMARK                         _______ _______ _______ _____ _____    ______ ____
ROOT
ATOM      1  O   UNL     1      13.305  12.934  22.718  0.00  0.00    -0.370 OA
ATOM      2  O   UNL     1      12.938  11.700  25.560  0.00  0.00    -0.370 OA
ATOM     10  C   UNL     1      13.772  11.361  24.439  0.00  0.00    +0.171 C 
ATOM     11  C   UNL     1      12.965  11.617  23.182  0.00  0.00    +0.171 C 
ATOM     12  C   UNL     1      14.932  12.327  24.336  0.00  0.00    +0.130 C 
ATOM     13  C   UNL     1      11.530  11.581  23.651  0.00  0.00    +0.130 C 
ATOM     14  C   UNL     1      14.320  13.486  23.569  0.00  0.00    +0.185 C 
ATOM     15  C   UNL     1      11.636  12.070  25.084  0.00  0.00    +0.185 C 
ENDROOT
BRANCH  13   6
ATOM      6  N   UNL     1      11.032  10.223  23.621  0.00  0.00    -0.306 N 
ATOM      7  N   UNL     1      11.758   9.908  21.436  0.00  0.00    -0.214 NA
ATOM      8  N   UNL     1      10.635   8.152  22.648  0.00  0.00    -0.223 NA
ATOM     17  C   UNL     1      11.147   9.391  22.520  0.00  0.00    +0.216 A 
ATOM     19  C   UNL     1      11.851   9.070  20.383  0.00  0.00    +0.076 A 
ATOM     20  C   UNL     1      10.764   7.369  21.557  0.00  0.00    +0.116 A 
ATOM     21  C   UNL     1      11.368   7.777  20.385  0.00  0.00    +0.048 A 
ATOM     37  H   UNL     1      10.622   9.824  24.456  0.00  0.00    +0.149 HD
BRANCH  19  22
ATOM     22  C   UNL     1      12.506   9.619  19.220  0.00  0.00    +0.001 A 
ATOM     24  C   UNL     1      12.506   8.909  18.019  0.00  0.00    +0.012 A 
ATOM     25  C   UNL     1      13.140  10.859  19.297  0.00  0.00    +0.012 A 
ATOM     26  C   UNL     1      13.138   9.440  16.895  0.00  0.00    +0.024 A 
ATOM     27  C   UNL     1      13.772  11.391  18.172  0.00  0.00    +0.024 A 
ATOM     30  C   UNL     1      13.770  10.681  16.971  0.00  0.00    +0.029 A 
BRANCH  30   9
ATOM      9  N   UNL     1      14.410  11.218  15.834  0.00  0.00    -0.336 N 
ATOM     34  C   UNL     1      15.150  10.356  14.933  0.00  0.00    +0.129 C 
ATOM     35  C   UNL     1      14.349  12.640  15.561  0.00  0.00    +0.129 C 
ENDBRANCH  30   9
ENDBRANCH  19  22
ENDBRANCH  13   6
BRANCH  12   5
ATOM      3  O   UNL     1      17.654  13.308  24.191  0.00  0.00    -0.272 OA
ATOM      5  N   UNL     1      16.034  11.743  23.611  0.00  0.00    -0.305 N 
ATOM     16  C   UNL     1      17.310  12.288  23.600  0.00  0.00    +0.251 C 
ATOM     36  H   UNL     1      15.874  10.862  23.129  0.00  0.00    +0.149 HD
BRANCH  16  18
ATOM     18  C   UNL     1      18.263  11.468  22.759  0.00  0.00    +0.324 C 
BRANCH  18   4
ATOM      4  O   UNL     1      17.707  11.203  21.489  0.00  0.00    -0.483 OA
BRANCH   4  23
ATOM     23  C   UNL     1      17.469   9.887  21.170  0.00  0.00    +0.121 A 
ATOM     28  C   UNL     1      18.389   8.903  21.533  0.00  0.00    +0.045 A 
ATOM     29  C   UNL     1      16.308   9.535  20.481  0.00  0.00    +0.045 A 
ATOM     31  C   UNL     1      18.148   7.568  21.207  0.00  0.00    +0.004 A 
ATOM     32  C   UNL     1      16.066   8.200  20.156  0.00  0.00    +0.004 A 
ATOM     33  C   UNL     1      16.987   7.217  20.520  0.00  0.00    +0.000 A 
ENDBRANCH   4  23
ENDBRANCH  18   4
ENDBRANCH  16  18
ENDBRANCH  12   5
TORSDOF 7
ENDMDL
MODEL 4
REMARK VINA RESULT:      -7.2     26.855     29.454
REMARK  Name = 11911834
REMARK  9 active torsions:
REMARK  status: ('A' for Active; 'I' for Inactive)
REMARK    1  A    between atoms: O_4  and  C_18
REMARK    2  A    between atoms: O_4  and  C_23
REMARK    3  A    between atoms: N_5  and  C_12
REMARK    4  A    between atoms: N_6  and  C_13
REMARK    5  A    between atoms: N_9  and  C_30
REMARK    6  A    between atoms: N_9  and  C_34
REMARK    7  A    between atoms: N_9  and  C_35
REMARK    8  A    between atoms: C_16  and  C_18
REMARK    9  A    between atoms: C_19  and  C_22
REMARK                            x       y       z     vdW  Elec       q    Type
REMARK                         _______ _______ _______ _____ _____    ______ ____
ROOT
ATOM      1  O   UNL     1     -12.209  -7.910  14.389  0.00  0.00    -0.370 OA
ATOM      2  O   UNL     1     -10.979  -6.321  16.776  0.00  0.00    -0.370 OA
ATOM     10  C   UNL     1     -10.887  -6.181  15.348  0.00  0.00    +0.171 C 
ATOM     11  C   UNL     1     -10.860  -7.577  14.759  0.00  0.00    +0.171 C 
ATOM     12  C   UNL     1     -12.157  -5.572  14.797  0.00  0.00    +0.130 C 
ATOM     13  C   UNL     1     -10.399  -8.451  15.901  0.00  0.00    +0.130 C 
ATOM     14  C   UNL     1     -13.060  -6.784  14.650  0.00  0.00    +0.185 C 
ATOM     15  C   UNL     1     -10.926  -7.713  17.118  0.00  0.00    +0.185 C 
ENDROOT
BRANCH  13   6
ATOM      6  N   UNL     1      -8.954  -8.503  15.933  0.00  0.00    -0.306 N 
ATOM      7  N   UNL     1      -8.957 -10.142  17.580  0.00  0.00    -0.214 NA
ATOM      8  N   UNL     1      -6.895  -9.277  16.678  0.00  0.00    -0.223 NA
ATOM     17  C   UNL     1      -8.237  -9.344  16.767  0.00  0.00    +0.216 A 
ATOM     19  C   UNL     1      -8.226 -10.948  18.378  0.00  0.00    +0.076 A 
ATOM     20  C   UNL     1      -6.228 -10.110  17.504  0.00  0.00    +0.116 A 
ATOM     21  C   UNL     1      -6.846 -10.976  18.384  0.00  0.00    +0.048 A 
ATOM     37  H   UNL     1      -8.421  -7.939  15.282  0.00  0.00    +0.149 HD
BRANCH  19  22
ATOM     22  C   UNL     1      -8.992 -11.805  19.250  0.00  0.00    +0.001 A 
ATOM     24  C   UNL     1      -8.455 -13.017  19.686  0.00  0.00    +0.012 A 
ATOM     25  C   UNL     1     -10.270 -11.422  19.658  0.00  0.00    +0.012 A 
ATOM     26  C   UNL     1      -9.195 -13.844  20.529  0.00  0.00    +0.024 A 
ATOM     27  C   UNL     1     -11.011 -12.249  20.502  0.00  0.00    +0.024 A 
ATOM     30  C   UNL     1     -10.473 -13.460  20.938  0.00  0.00    +0.029 A 
BRANCH  30   9
ATOM      9  N   UNL     1     -11.222 -14.298  21.791  0.00  0.00    -0.336 N 
ATOM     34  C   UNL     1     -10.929 -15.716  21.871  0.00  0.00    +0.129 C 
ATOM     35  C   UNL     1     -12.305 -13.754  22.587  0.00  0.00    +0.129 C 
ENDBRANCH  30   9
ENDBRANCH  19  22
ENDBRANCH  13   6
BRANCH  12   5
ATOM      3  O   UNL     1     -13.852  -3.644  13.454  0.00  0.00    -0.272 OA
ATOM      5  N   UNL     1     -11.920  -4.938  13.522  0.00  0.00    -0.305 N 
ATOM     16  C   UNL     1     -12.795  -4.023  12.956  0.00  0.00    +0.251 C 
ATOM     36  H   UNL     1     -11.045  -5.137  13.046  0.00  0.00    +0.149 HD
BRANCH  16  18
ATOM     18  C   UNL     1     -12.295  -3.521  11.619  0.00  0.00    +0.324 C 
BRANCH  18   4
ATOM      4  O   UNL     1     -12.639  -4.422  10.588  0.00  0.00    -0.483 OA
BRANCH   4  23
ATOM     23  C   UNL     1     -11.606  -5.030   9.915  0.00  0.00    +0.121 A 
ATOM     28  C   UNL     1     -10.651  -4.256   9.255  0.00  0.00    +0.045 A 
ATOM     29  C   UNL     1     -11.513  -6.422   9.890  0.00  0.00    +0.045 A 
ATOM     31  C   UNL     1      -9.603  -4.874   8.571  0.00  0.00    +0.004 A 
ATOM     32  C   UNL     1     -10.465  -7.040   9.207  0.00  0.00    +0.004 A 
ATOM     33  C   UNL     1      -9.511  -6.265   8.548  0.00  0.00    +0.000 A 
ENDBRANCH   4  23
ENDBRANCH  18   4
ENDBRANCH  16  18
ENDBRANCH  12   5
TORSDOF 7
ENDMDL
MODEL 5
REMARK VINA RESULT:      -7.2     25.111     27.084
REMARK  Name = 11911834
REMARK  9 active torsions:
REMARK  status: ('A' for Active; 'I' for Inactive)
REMARK    1  A    between atoms: O_4  and  C_18
REMARK    2  A    between atoms: O_4  and  C_23
REMARK    3  A    between atoms: N_5  and  C_12
REMARK    4  A    between atoms: N_6  and  C_13
REMARK    5  A    between atoms: N_9  and  C_30
REMARK    6  A    between atoms: N_9  and  C_34
REMARK    7  A    between atoms: N_9  and  C_35
REMARK    8  A    between atoms: C_16  and  C_18
REMARK    9  A    between atoms: C_19  and  C_22
REMARK                            x       y       z     vdW  Elec       q    Type
REMARK                         _______ _______ _______ _____ _____    ______ ____
ROOT
ATOM      1  O   UNL     1      -6.394 -11.228  10.009  0.00  0.00    -0.370 OA
ATOM      2  O   UNL     1      -5.021  -8.427   9.975  0.00  0.00    -0.370 OA
ATOM     10  C   UNL     1      -4.755  -9.662   9.291  0.00  0.00    +0.171 C 
ATOM     11  C   UNL     1      -5.049 -10.789  10.261  0.00  0.00    +0.171 C 
ATOM     12  C   UNL     1      -5.752  -9.870   8.172  0.00  0.00    +0.130 C 
ATOM     13  C   UNL     1      -4.957 -10.138  11.621  0.00  0.00    +0.130 C 
ATOM     14  C   UNL     1      -6.930 -10.492   8.900  0.00  0.00    +0.185 C 
ATOM     15  C   UNL     1      -5.381  -8.709  11.336  0.00  0.00    +0.185 C 
ENDROOT
BRANCH  13   6
ATOM      6  N   UNL     1      -3.590 -10.170  12.094  0.00  0.00    -0.306 N 
ATOM      7  N   UNL     1      -4.256 -10.622  14.273  0.00  0.00    -0.214 NA
ATOM      8  N   UNL     1      -1.926 -10.411  13.695  0.00  0.00    -0.223 NA
ATOM     17  C   UNL     1      -3.242 -10.412  13.412  0.00  0.00    +0.216 A 
ATOM     19  C   UNL     1      -3.881 -10.854  15.548  0.00  0.00    +0.076 A 
ATOM     20  C   UNL     1      -1.622 -10.650  14.988  0.00  0.00    +0.116 A 
ATOM     21  C   UNL     1      -2.566 -10.880  15.968  0.00  0.00    +0.048 A 
ATOM     37  H   UNL     1      -2.831 -10.063  11.431  0.00  0.00    +0.149 HD
BRANCH  19  22
ATOM     22  C   UNL     1      -4.964 -11.081  16.474  0.00  0.00    +0.001 A 
ATOM     24  C   UNL     1      -4.732 -11.016  17.848  0.00  0.00    +0.012 A 
ATOM     25  C   UNL     1      -6.243 -11.365  15.996  0.00  0.00    +0.012 A 
ATOM     26  C   UNL     1      -5.779 -11.234  18.743  0.00  0.00    +0.024 A 
ATOM     27  C   UNL     1      -7.290 -11.584  16.890  0.00  0.00    +0.024 A 
ATOM     30  C   UNL     1      -7.059 -11.518  18.264  0.00  0.00    +0.029 A 
BRANCH  30   9
ATOM      9  N   UNL     1      -8.117 -11.740  19.170  0.00  0.00    -0.336 N 
ATOM     34  C   UNL     1      -8.132 -12.924  20.006  0.00  0.00    +0.129 C 
ATOM     35  C   UNL     1      -9.211 -10.793  19.265  0.00  0.00    +0.129 C 
ENDBRANCH  30   9
ENDBRANCH  19  22
ENDBRANCH  13   6
BRANCH  12   5
ATOM      3  O   UNL     1      -6.460  -9.955   5.364  0.00  0.00    -0.272 OA
ATOM      5  N   UNL     1      -5.229 -10.761   7.165  0.00  0.00    -0.305 N 
ATOM     16  C   UNL     1      -5.631 -10.727   5.838  0.00  0.00    +0.251 C 
ATOM     36  H   UNL     1      -4.493 -11.408   7.437  0.00  0.00    +0.149 HD
BRANCH  16  18
ATOM     18  C   UNL     1      -4.919 -11.773   5.009  0.00  0.00    +0.324 C 
BRANCH  18   4
ATOM      4  O   UNL     1      -3.658 -12.078   5.568  0.00  0.00    -0.483 OA
BRANCH   4  23
ATOM     23  C   UNL     1      -2.794 -12.820   4.799  0.00  0.00    +0.121 A 
ATOM     28  C   UNL     1      -2.768 -12.648   3.415  0.00  0.00    +0.045 A 
ATOM     29  C   UNL     1      -1.943 -13.747   5.402  0.00  0.00    +0.045 A 
ATOM     31  C   UNL     1      -1.891 -13.402   2.634  0.00  0.00    +0.004 A 
ATOM     32  C   UNL     1      -1.065 -14.500   4.622  0.00  0.00    +0.004 A 
ATOM     33  C   UNL     1      -1.040 -14.327   3.238  0.00  0.00    +0.000 A 
ENDBRANCH   4  23
ENDBRANCH  18   4
ENDBRANCH  16  18
ENDBRANCH  12   5
TORSDOF 7
ENDMDL
MODEL 6
REMARK VINA RESULT:      -7.2      8.411     15.376
REMARK  Name = 11911834
REMARK  9 active torsions:
REMARK  status: ('A' for Active; 'I' for Inactive)
REMARK    1  A    between atoms: O_4  and  C_18
REMARK    2  A    between atoms: O_4  and  C_23
REMARK    3  A    between atoms: N_5  and  C_12
REMARK    4  A    between atoms: N_6  and  C_13
REMARK    5  A    between atoms: N_9  and  C_30
REMARK    6  A    between atoms: N_9  and  C_34
REMARK    7  A    between atoms: N_9  and  C_35
REMARK    8  A    between atoms: C_16  and  C_18
REMARK    9  A    between atoms: C_19  and  C_22
REMARK                            x       y       z     vdW  Elec       q    Type
REMARK                         _______ _______ _______ _____ _____    ______ ____
ROOT
ATOM      1  O   UNL     1      13.199  13.330  23.873  0.00  0.00    -0.370 OA
ATOM      2  O   UNL     1      10.380  13.036  25.179  0.00  0.00    -0.370 OA
ATOM     10  C   UNL     1      11.669  12.471  25.479  0.00  0.00    +0.171 C 
ATOM     11  C   UNL     1      12.360  12.198  24.157  0.00  0.00    +0.171 C 
ATOM     12  C   UNL     1      12.551  13.501  26.150  0.00  0.00    +0.130 C 
ATOM     13  C   UNL     1      11.229  12.121  23.158  0.00  0.00    +0.130 C 
ATOM     14  C   UNL     1      13.124  14.258  24.965  0.00  0.00    +0.185 C 
ATOM     15  C   UNL     1      10.192  13.053  23.757  0.00  0.00    +0.185 C 
ENDROOT
BRANCH  13   6
ATOM      6  N   UNL     1      10.713  10.771  23.098  0.00  0.00    -0.306 N 
ATOM      7  N   UNL     1      11.780  10.355  21.077  0.00  0.00    -0.214 NA
ATOM      8  N   UNL     1      10.435   8.668  22.152  0.00  0.00    -0.223 NA
ATOM     17  C   UNL     1      10.988   9.893  22.064  0.00  0.00    +0.216 A 
ATOM     19  C   UNL     1      12.026   9.473  20.086  0.00  0.00    +0.076 A 
ATOM     20  C   UNL     1      10.724   7.838  21.128  0.00  0.00    +0.116 A 
ATOM     21  C   UNL     1      11.521   8.189  20.058  0.00  0.00    +0.048 A 
ATOM     37  H   UNL     1      10.162  10.413  23.869  0.00  0.00    +0.149 HD
BRANCH  19  22
ATOM     22  C   UNL     1      12.875   9.963  19.027  0.00  0.00    +0.001 A 
ATOM     24  C   UNL     1      13.219   9.127  17.964  0.00  0.00    +0.012 A 
ATOM     25  C   UNL     1      13.352  11.273  19.065  0.00  0.00    +0.012 A 
ATOM     26  C   UNL     1      14.038   9.600  16.941  0.00  0.00    +0.024 A 
ATOM     27  C   UNL     1      14.172  11.748  18.040  0.00  0.00    +0.024 A 
ATOM     30  C   UNL     1      14.514  10.912  16.978  0.00  0.00    +0.029 A 
BRANCH  30   9
ATOM      9  N   UNL     1      15.344  11.391  15.942  0.00  0.00    -0.336 N 
ATOM     34  C   UNL     1      15.476  10.649  14.704  0.00  0.00    +0.129 C 
ATOM     35  C   UNL     1      16.086  12.625  16.110  0.00  0.00    +0.129 C 
ENDBRANCH  30   9
ENDBRANCH  19  22
ENDBRANCH  13   6
BRANCH  12   5
ATOM      3  O   UNL     1      13.851  14.538  28.522  0.00  0.00    -0.272 OA
ATOM      5  N   UNL     1      13.593  12.870  26.922  0.00  0.00    -0.305 N 
ATOM     16  C   UNL     1      14.159  13.447  28.050  0.00  0.00    +0.251 C 
ATOM     36  H   UNL     1      13.888  11.935  26.651  0.00  0.00    +0.149 HD
BRANCH  16  18
ATOM     18  C   UNL     1      15.226  12.564  28.657  0.00  0.00    +0.324 C 
BRANCH  18   4
ATOM      4  O   UNL     1      15.238  12.692  30.063  0.00  0.00    -0.483 OA
BRANCH   4  23
ATOM     23  C   UNL     1      14.509  11.776  30.784  0.00  0.00    +0.121 A 
ATOM     28  C   UNL     1      14.784  10.414  30.661  0.00  0.00    +0.045 A 
ATOM     29  C   UNL     1      13.494  12.208  31.637  0.00  0.00    +0.045 A 
ATOM     31  C   UNL     1      14.043   9.484  31.391  0.00  0.00    +0.004 A 
ATOM     32  C   UNL     1      12.754  11.279  32.369  0.00  0.00    +0.004 A 
ATOM     33  C   UNL     1      13.029   9.917  32.245  0.00  0.00    +0.000 A 
ENDBRANCH   4  23
ENDBRANCH  18   4
ENDBRANCH  16  18
ENDBRANCH  12   5
TORSDOF 7
ENDMDL
MODEL 7
REMARK VINA RESULT:      -7.1     10.950     16.083
REMARK  Name = 11911834
REMARK  9 active torsions:
REMARK  status: ('A' for Active; 'I' for Inactive)
REMARK    1  A    between atoms: O_4  and  C_18
REMARK    2  A    between atoms: O_4  and  C_23
REMARK    3  A    between atoms: N_5  and  C_12
REMARK    4  A    between atoms: N_6  and  C_13
REMARK    5  A    between atoms: N_9  and  C_30
REMARK    6  A    between atoms: N_9  and  C_34
REMARK    7  A    between atoms: N_9  and  C_35
REMARK    8  A    between atoms: C_16  and  C_18
REMARK    9  A    between atoms: C_19  and  C_22
REMARK                            x       y       z     vdW  Elec       q    Type
REMARK                         _______ _______ _______ _____ _____    ______ ____
ROOT
ATOM      1  O   UNL     1      14.747  12.440  24.782  0.00  0.00    -0.370 OA
ATOM      2  O   UNL     1      12.086  14.067  24.692  0.00  0.00    -0.370 OA
ATOM     10  C   UNL     1      12.612  13.089  25.604  0.00  0.00    +0.171 C 
ATOM     11  C   UNL     1      13.361  12.060  24.781  0.00  0.00    +0.171 C 
ATOM     12  C   UNL     1      13.678  13.707  26.481  0.00  0.00    +0.130 C 
ATOM     13  C   UNL     1      12.779  12.202  23.394  0.00  0.00    +0.130 C 
ATOM     14  C   UNL     1      14.916  13.602  25.608  0.00  0.00    +0.185 C 
ATOM     15  C   UNL     1      12.388  13.668  23.347  0.00  0.00    +0.185 C 
ENDROOT
BRANCH  13   6
ATOM      6  N   UNL     1      11.607  11.366  23.260  0.00  0.00    -0.306 N 
ATOM      7  N   UNL     1      12.836   9.633  22.322  0.00  0.00    -0.214 NA
ATOM      8  N   UNL     1      10.460   9.435  22.672  0.00  0.00    -0.223 NA
ATOM     17  C   UNL     1      11.636  10.088  22.728  0.00  0.00    +0.216 A 
ATOM     19  C   UNL     1      12.827   8.385  21.808  0.00  0.00    +0.076 A 
ATOM     20  C   UNL     1      10.524   8.192  22.148  0.00  0.00    +0.116 A 
ATOM     21  C   UNL     1      11.690   7.610  21.696  0.00  0.00    +0.048 A 
ATOM     37  H   UNL     1      10.717  11.695  23.616  0.00  0.00    +0.149 HD
BRANCH  19  22
ATOM     22  C   UNL     1      14.111   7.892  21.372  0.00  0.00    +0.001 A 
ATOM     24  C   UNL     1      14.182   6.872  20.423  0.00  0.00    +0.012 A 
ATOM     25  C   UNL     1      15.282   8.436  21.900  0.00  0.00    +0.012 A 
ATOM     26  C   UNL     1      15.422   6.396  20.002  0.00  0.00    +0.024 A 
ATOM     27  C   UNL     1      16.524   7.960  21.478  0.00  0.00    +0.024 A 
ATOM     30  C   UNL     1      16.594   6.941  20.528  0.00  0.00    +0.029 A 
BRANCH  30   9
ATOM      9  N   UNL     1      17.850   6.459  20.102  0.00  0.00    -0.336 N 
ATOM     34  C   UNL     1      17.945   5.559  18.969  0.00  0.00    +0.129 C 
ATOM     35  C   UNL     1      19.059   6.847  20.801  0.00  0.00    +0.129 C 
ENDBRANCH  30   9
ENDBRANCH  19  22
ENDBRANCH  13   6
BRANCH  12   5
ATOM      3  O   UNL     1      15.086  14.549  28.869  0.00  0.00    -0.272 OA
ATOM      5  N   UNL     1      13.839  12.965  27.708  0.00  0.00    -0.305 N 
ATOM     16  C   UNL     1      14.535  13.454  28.805  0.00  0.00    +0.251 C 
ATOM     36  H   UNL     1      13.374  12.064  27.785  0.00  0.00    +0.149 HD
BRANCH  16  18
ATOM     18  C   UNL     1      14.542  12.465  29.950  0.00  0.00    +0.324 C 
BRANCH  18   4
ATOM      4  O   UNL     1      13.833  12.980  31.058  0.00  0.00    -0.483 OA
BRANCH   4  23
ATOM     23  C   UNL     1      13.147  12.080  31.838  0.00  0.00    +0.121 A 
ATOM     28  C   UNL     1      13.505  10.732  31.828  0.00  0.00    +0.045 A 
ATOM     29  C   UNL     1      12.090  12.515  32.639  0.00  0.00    +0.045 A 
ATOM     31  C   UNL     1      12.807   9.819  32.618  0.00  0.00    +0.004 A 
ATOM     32  C   UNL     1      11.393  11.602  33.430  0.00  0.00    +0.004 A 
ATOM     33  C   UNL     1      11.752  10.254  33.419  0.00  0.00    +0.000 A 
ENDBRANCH   4  23
ENDBRANCH  18   4
ENDBRANCH  16  18
ENDBRANCH  12   5
TORSDOF 7
ENDMDL
MODEL 8
REMARK VINA RESULT:      -7.1     26.189     30.137
REMARK  Name = 11911834
REMARK  9 active torsions:
REMARK  status: ('A' for Active; 'I' for Inactive)
REMARK    1  A    between atoms: O_4  and  C_18
REMARK    2  A    between atoms: O_4  and  C_23
REMARK    3  A    between atoms: N_5  and  C_12
REMARK    4  A    between atoms: N_6  and  C_13
REMARK    5  A    between atoms: N_9  and  C_30
REMARK    6  A    between atoms: N_9  and  C_34
REMARK    7  A    between atoms: N_9  and  C_35
REMARK    8  A    between atoms: C_16  and  C_18
REMARK    9  A    between atoms: C_19  and  C_22
REMARK                            x       y       z     vdW  Elec       q    Type
REMARK                         _______ _______ _______ _____ _____    ______ ____
ROOT
ATOM      1  O   UNL     1      -7.034 -10.408  16.531  0.00  0.00    -0.370 OA
ATOM      2  O   UNL     1      -5.209 -10.553  19.058  0.00  0.00    -0.370 OA
ATOM     10  C   UNL     1      -5.252 -11.299  17.830  0.00  0.00    +0.171 C 
ATOM     11  C   UNL     1      -6.711 -11.463  17.452  0.00  0.00    +0.171 C 
ATOM     12  C   UNL     1      -4.668 -10.485  16.698  0.00  0.00    +0.130 C 
ATOM     13  C   UNL     1      -7.454 -11.267  18.753  0.00  0.00    +0.130 C 
ATOM     14  C   UNL     1      -5.851  -9.640  16.261  0.00  0.00    +0.185 C 
ATOM     15  C   UNL     1      -6.549 -10.314  19.512  0.00  0.00    +0.185 C 
ENDROOT
BRANCH  13   6
ATOM      6  N   UNL     1      -7.558 -12.526  19.458  0.00  0.00    -0.306 N 
ATOM      7  N   UNL     1      -9.796 -12.163  19.965  0.00  0.00    -0.214 NA
ATOM      8  N   UNL     1      -8.661 -14.167  20.676  0.00  0.00    -0.223 NA
ATOM     17  C   UNL     1      -8.723 -12.971  20.059  0.00  0.00    +0.216 A 
ATOM     19  C   UNL     1     -10.912 -12.628  20.562  0.00  0.00    +0.076 A 
ATOM     20  C   UNL     1      -9.813 -14.570  21.251  0.00  0.00    +0.116 A 
ATOM     21  C   UNL     1     -10.981 -13.836  21.226  0.00  0.00    +0.048 A 
ATOM     37  H   UNL     1      -6.762 -13.153  19.479  0.00  0.00    +0.149 HD
BRANCH  19  22
ATOM     22  C   UNL     1     -12.065 -11.765  20.463  0.00  0.00    +0.001 A 
ATOM     24  C   UNL     1     -13.343 -12.317  20.368  0.00  0.00    +0.012 A 
ATOM     25  C   UNL     1     -11.902 -10.380  20.463  0.00  0.00    +0.012 A 
ATOM     26  C   UNL     1     -14.457 -11.483  20.273  0.00  0.00    +0.024 A 
ATOM     27  C   UNL     1     -13.016  -9.546  20.369  0.00  0.00    +0.024 A 
ATOM     30  C   UNL     1     -14.294 -10.098  20.274  0.00  0.00    +0.029 A 
BRANCH  30   9
ATOM      9  N   UNL     1     -15.420  -9.254  20.177  0.00  0.00    -0.336 N 
ATOM     34  C   UNL     1     -15.690  -8.268  21.205  0.00  0.00    +0.129 C 
ATOM     35  C   UNL     1     -16.330  -9.373  19.055  0.00  0.00    +0.129 C 
ENDBRANCH  30   9
ENDBRANCH  19  22
ENDBRANCH  13   6
BRANCH  12   5
ATOM      3  O   UNL     1      -1.945 -10.814  15.764  0.00  0.00    -0.272 OA
ATOM      5  N   UNL     1      -4.207 -11.335  15.627  0.00  0.00    -0.305 N 
ATOM     16  C   UNL     1      -2.876 -11.427  15.248  0.00  0.00    +0.251 C 
ATOM     36  H   UNL     1      -4.890 -11.931  15.165  0.00  0.00    +0.149 HD
BRANCH  16  18
ATOM     18  C   UNL     1      -2.684 -12.393  14.100  0.00  0.00    +0.324 C 
BRANCH  18   4
ATOM      4  O   UNL     1      -1.768 -11.874  13.159  0.00  0.00    -0.483 OA
BRANCH   4  23
ATOM     23  C   UNL     1      -2.285 -11.134  12.122  0.00  0.00    +0.121 A 
ATOM     28  C   UNL     1      -3.400 -11.597  11.422  0.00  0.00    +0.045 A 
ATOM     29  C   UNL     1      -1.693  -9.922  11.767  0.00  0.00    +0.045 A 
ATOM     31  C   UNL     1      -3.923 -10.847  10.369  0.00  0.00    +0.004 A 
ATOM     32  C   UNL     1      -2.217  -9.171  10.714  0.00  0.00    +0.004 A 
ATOM     33  C   UNL     1      -3.332  -9.635  10.015  0.00  0.00    +0.000 A 
ENDBRANCH   4  23
ENDBRANCH  18   4
ENDBRANCH  16  18
ENDBRANCH  12   5
TORSDOF 7
ENDMDL
MODEL 9
REMARK VINA RESULT:      -7.1      9.405     12.420
REMARK  Name = 11911834
REMARK  9 active torsions:
REMARK  status: ('A' for Active; 'I' for Inactive)
REMARK    1  A    between atoms: O_4  and  C_18
REMARK    2  A    between atoms: O_4  and  C_23
REMARK    3  A    between atoms: N_5  and  C_12
REMARK    4  A    between atoms: N_6  and  C_13
REMARK    5  A    between atoms: N_9  and  C_30
REMARK    6  A    between atoms: N_9  and  C_34
REMARK    7  A    between atoms: N_9  and  C_35
REMARK    8  A    between atoms: C_16  and  C_18
REMARK    9  A    between atoms: C_19  and  C_22
REMARK                            x       y       z     vdW  Elec       q    Type
REMARK                         _______ _______ _______ _____ _____    ______ ____
ROOT
ATOM      1  O   UNL     1      13.487   8.329   1.979  0.00  0.00    -0.370 OA
ATOM      2  O   UNL     1      15.439   6.707   3.794  0.00  0.00    -0.370 OA
ATOM     10  C   UNL     1      14.539   6.335   2.737  0.00  0.00    +0.171 C 
ATOM     11  C   UNL     1      13.307   7.210   2.863  0.00  0.00    +0.171 C 
ATOM     12  C   UNL     1      15.122   6.711   1.393  0.00  0.00    +0.130 C 
ATOM     13  C   UNL     1      13.329   7.671   4.302  0.00  0.00    +0.130 C 
ATOM     14  C   UNL     1      14.720   8.170   1.263  0.00  0.00    +0.185 C 
ATOM     15  C   UNL     1      14.812   7.698   4.621  0.00  0.00    +0.185 C 
ENDROOT
BRANCH  13   6
ATOM      6  N   UNL     1      12.654   6.705   5.141  0.00  0.00    -0.306 N 
ATOM      7  N   UNL     1      10.559   7.394   4.410  0.00  0.00    -0.214 NA
ATOM      8  N   UNL     1      10.800   5.621   6.024  0.00  0.00    -0.223 NA
ATOM     17  C   UNL     1      11.277   6.567   5.194  0.00  0.00    +0.216 A 
ATOM     19  C   UNL     1       9.222   7.232   4.487  0.00  0.00    +0.076 A 
ATOM     20  C   UNL     1       9.455   5.513   6.051  0.00  0.00    +0.116 A 
ATOM     21  C   UNL     1       8.607   6.299   5.298  0.00  0.00    +0.048 A 
ATOM     37  H   UNL     1      13.202   6.051   5.688  0.00  0.00    +0.149 HD
BRANCH  19  22
ATOM     22  C   UNL     1       8.449   8.116   3.648  0.00  0.00    +0.001 A 
ATOM     24  C   UNL     1       7.445   8.908   4.207  0.00  0.00    +0.012 A 
ATOM     25  C   UNL     1       8.704   8.178   2.279  0.00  0.00    +0.012 A 
ATOM     26  C   UNL     1       6.699   9.762   3.397  0.00  0.00    +0.024 A 
ATOM     27  C   UNL     1       7.958   9.033   1.467  0.00  0.00    +0.024 A 
ATOM     30  C   UNL     1       6.955   9.825   2.026  0.00  0.00    +0.029 A 
BRANCH  30   9
ATOM      9  N   UNL     1       6.199  10.689   1.206  0.00  0.00    -0.336 N 
ATOM     34  C   UNL     1       6.446  12.117   1.219  0.00  0.00    +0.129 C 
ATOM     35  C   UNL     1       5.156  10.159   0.350  0.00  0.00    +0.129 C 
ENDBRANCH  30   9
ENDBRANCH  19  22
ENDBRANCH  13   6
BRANCH  12   5
ATOM      3  O   UNL     1      15.870   4.021   0.622  0.00  0.00    -0.272 OA
ATOM      5  N   UNL     1      14.550   5.914   0.335  0.00  0.00    -0.305 N 
ATOM     16  C   UNL     1      14.977   4.628   0.038  0.00  0.00    +0.251 C 
ATOM     36  H   UNL     1      13.763   6.300  -0.180  0.00  0.00    +0.149 HD
BRANCH  16  18
ATOM     18  C   UNL     1      14.201   4.032  -1.117  0.00  0.00    +0.324 C 
BRANCH  18   4
ATOM      4  O   UNL     1      13.222   3.130  -0.647  0.00  0.00    -0.483 OA
BRANCH   4  23
ATOM     23  C   UNL     1      12.300   3.616   0.250  0.00  0.00    +0.121 A 
ATOM     28  C   UNL     1      11.237   4.401  -0.198  0.00  0.00    +0.045 A 
ATOM     29  C   UNL     1      12.427   3.324   1.608  0.00  0.00    +0.045 A 
ATOM     31  C   UNL     1      10.303   4.894   0.713  0.00  0.00    +0.004 A 
ATOM     32  C   UNL     1      11.492   3.816   2.519  0.00  0.00    +0.004 A 
ATOM     33  C   UNL     1      10.430   4.601   2.070  0.00  0.00    +0.000 A 
ENDBRANCH   4  23
ENDBRANCH  18   4
ENDBRANCH  16  18
ENDBRANCH  12   5
TORSDOF 7
ENDMDL
MODEL 10
REMARK VINA RESULT:      -7.1     11.269     16.282
REMARK  Name = 11911834
REMARK  9 active torsions:
REMARK  status: ('A' for Active; 'I' for Inactive)
REMARK    1  A    between atoms: O_4  and  C_18
REMARK    2  A    between atoms: O_4  and  C_23
REMARK    3  A    between atoms: N_5  and  C_12
REMARK    4  A    between atoms: N_6  and  C_13
REMARK    5  A    between atoms: N_9  and  C_30
REMARK    6  A    between atoms: N_9  and  C_34
REMARK    7  A    between atoms: N_9  and  C_35
REMARK    8  A    between atoms: C_16  and  C_18
REMARK    9  A    between atoms: C_19  and  C_22
REMARK                            x       y       z     vdW  Elec       q    Type
REMARK                         _______ _______ _______ _____ _____    ______ ____
ROOT
ATOM      1  O   UNL     1       5.215   7.068  -2.291  0.00  0.00    -0.370 OA
ATOM      2  O   UNL     1       6.867   8.161  -4.702  0.00  0.00    -0.370 OA
ATOM     10  C   UNL     1       5.869   7.133  -4.576  0.00  0.00    +0.171 C 
ATOM     11  C   UNL     1       6.094   6.447  -3.243  0.00  0.00    +0.171 C 
ATOM     12  C   UNL     1       4.494   7.747  -4.447  0.00  0.00    +0.130 C 
ATOM     13  C   UNL     1       7.534   6.756  -2.907  0.00  0.00    +0.130 C 
ATOM     14  C   UNL     1       4.412   8.050  -2.962  0.00  0.00    +0.185 C 
ATOM     15  C   UNL     1       7.749   8.103  -3.572  0.00  0.00    +0.185 C 
ENDROOT
BRANCH  13   6
ATOM      6  N   UNL     1       8.405   5.762  -3.496  0.00  0.00    -0.306 N 
ATOM      7  N   UNL     1       9.420   5.308  -1.457  0.00  0.00    -0.214 NA
ATOM      8  N   UNL     1      10.076   4.150  -3.466  0.00  0.00    -0.223 NA
ATOM     17  C   UNL     1       9.341   5.042  -2.775  0.00  0.00    +0.216 A 
ATOM     19  C   UNL     1      10.343   4.588  -0.785  0.00  0.00    +0.076 A 
ATOM     20  C   UNL     1      10.979   3.466  -2.732  0.00  0.00    +0.116 A 
ATOM     21  C   UNL     1      11.158   3.644  -1.376  0.00  0.00    +0.048 A 
ATOM     37  H   UNL     1       8.303   5.530  -4.477  0.00  0.00    +0.149 HD
BRANCH  19  22
ATOM     22  C   UNL     1      10.430   4.869   0.628  0.00  0.00    +0.001 A 
ATOM     24  C   UNL     1      10.954   3.913   1.498  0.00  0.00    +0.012 A 
ATOM     25  C   UNL     1       9.991   6.097   1.123  0.00  0.00    +0.012 A 
ATOM     26  C   UNL     1      11.039   4.185   2.863  0.00  0.00    +0.024 A 
ATOM     27  C   UNL     1      10.077   6.370   2.488  0.00  0.00    +0.024 A 
ATOM     30  C   UNL     1      10.601   5.414   3.358  0.00  0.00    +0.029 A 
BRANCH  30   9
ATOM      9  N   UNL     1      10.687   5.689   4.739  0.00  0.00    -0.336 N 
ATOM     34  C   UNL     1       9.880   4.945   5.687  0.00  0.00    +0.129 C 
ATOM     35  C   UNL     1      11.572   6.727   5.227  0.00  0.00    +0.129 C 
ENDBRANCH  30   9
ENDBRANCH  19  22
ENDBRANCH  13   6
BRANCH  12   5
ATOM      3  O   UNL     1       1.731   8.347  -5.083  0.00  0.00    -0.272 OA
ATOM      5  N   UNL     1       3.467   6.816  -4.849  0.00  0.00    -0.305 N 
ATOM     16  C   UNL     1       2.164   7.199  -5.133  0.00  0.00    +0.251 C 
ATOM     36  H   UNL     1       3.730   5.843  -4.976  0.00  0.00    +0.149 HD
BRANCH  16  18
ATOM     18  C   UNL     1       1.305   6.018  -5.527  0.00  0.00    +0.324 C 
BRANCH  18   4
ATOM      4  O   UNL     1       1.159   5.124  -4.444  0.00  0.00    -0.483 OA
BRANCH   4  23
ATOM     23  C   UNL     1       1.304   3.784  -4.711  0.00  0.00    +0.121 A 
ATOM     28  C   UNL     1       2.469   3.315  -5.320  0.00  0.00    +0.045 A 
ATOM     29  C   UNL     1       0.286   2.891  -4.375  0.00  0.00    +0.045 A 
ATOM     31  C   UNL     1       2.615   1.955  -5.593  0.00  0.00    +0.004 A 
ATOM     32  C   UNL     1       0.432   1.530  -4.647  0.00  0.00    +0.004 A 
ATOM     33  C   UNL     1       1.597   1.063  -5.255  0.00  0.00    +0.000 A 
ENDBRANCH   4  23
ENDBRANCH  18   4
ENDBRANCH  16  18
ENDBRANCH  12   5
TORSDOF 7
ENDMDL
