MODEL 1
REMARK VINA RESULT:      -6.7      0.000      0.000
REMARK  Name = 40777718
REMARK  13 active torsions:
REMARK  status: ('A' for Active; 'I' for Inactive)
REMARK    1  A    between atoms: O_2  and  C_30
REMARK    2  A    between atoms: N_4  and  C_9
REMARK    3  A    between atoms: N_5  and  C_16
REMARK    4  A    between atoms: C_7  and  C_10
REMARK    5  A    between atoms: C_13  and  C_17
REMARK    6  A    between atoms: C_14  and  C_19
REMARK    7  A    between atoms: C_15  and  C_18
REMARK    8  A    between atoms: C_15  and  C_25
REMARK    9  A    between atoms: C_15  and  C_26
REMARK   10  A    between atoms: C_15  and  C_27
REMARK   11  A    between atoms: C_20  and  C_28
REMARK   12  A    between atoms: C_28  and  C_29
REMARK   13  A    between atoms: C_29  and  C_30
REMARK                            x       y       z     vdW  Elec       q    Type
REMARK                         _______ _______ _______ _____ _____    ______ ____
ROOT
ATOM      5  N   UNL     1      19.819   5.465  20.549  0.00  0.00    -0.236 N 
ATOM      6  N   UNL     1      19.067   5.209  19.465  0.00  0.00    -0.171 NA
ATOM     10  C   UNL     1      17.987   6.592  20.928  0.00  0.00    +0.003 A 
ATOM     13  C   UNL     1      19.218   6.287  21.455  0.00  0.00    +0.046 A 
ATOM     14  C   UNL     1      17.949   5.900  19.703  0.00  0.00    +0.064 A 
ATOM     17  C   UNL     1      19.857   6.703  22.721  0.00  0.00    +0.066 C 
ATOM     19  C   UNL     1      16.854   5.869  18.716  0.00  0.00    +0.068 C 
ENDROOT
BRANCH   5  16
ATOM     16  C   UNL     1      21.091   4.899  20.658  0.00  0.00    +0.066 A 
ATOM     18  C   UNL     1      23.632   3.772  20.882  0.00  0.00    -0.042 A 
ATOM     21  C   UNL     1      21.233   3.581  21.090  0.00  0.00    +0.028 A 
ATOM     22  C   UNL     1      22.218   5.654  20.339  0.00  0.00    +0.028 A 
ATOM     23  C   UNL     1      22.504   3.018  21.202  0.00  0.00    +0.006 A 
ATOM     24  C   UNL     1      23.489   5.091  20.450  0.00  0.00    +0.006 A 
BRANCH  18  15
ATOM     15  C   UNL     1      24.991   3.170  21.003  0.00  0.00    -0.013 C 
ATOM     25  C   UNL     1      24.908   1.631  21.250  0.00  0.00    +0.015 C 
ATOM     26  C   UNL     1      25.783   3.794  22.194  0.00  0.00    +0.015 C 
ATOM     27  C   UNL     1      25.916   3.341  19.752  0.00  0.00    +0.015 C 
ENDBRANCH  18  15
ENDBRANCH   5  16
BRANCH  10   7
ATOM      7  C   UNL     1      16.916   7.470  21.532  0.00  0.00    +0.047 C 
ATOM      8  C   UNL     1      16.745   8.816  20.797  0.00  0.00    +0.039 C 
ATOM      9  C   UNL     1      15.249   9.148  20.876  0.00  0.00    +0.097 C 
ATOM     11  C   UNL     1      15.530   6.895  21.479  0.00  0.00    -0.021 C 
ATOM     12  C   UNL     1      14.626   7.814  21.125  0.00  0.00    -0.009 C 
BRANCH   9   4
ATOM      1  O   UNL     1      12.762  10.551  21.318  0.00  0.00    -0.276 OA
ATOM      4  N   UNL     1      14.932  10.030  21.966  0.00  0.00    -0.309 N 
ATOM     20  C   UNL     1      13.704  10.662  22.097  0.00  0.00    +0.214 C 
ATOM     31  H   UNL     1      15.655  10.227  22.654  0.00  0.00    +0.149 HD
BRANCH  20  28
ATOM     28  C   UNL     1      13.654  11.532  23.341  0.00  0.00    +0.107 C 
BRANCH  28  29
ATOM     29  C   UNL     1      12.320  12.255  23.493  0.00  0.00    +0.129 C 
BRANCH  29  30
ATOM      3  O   UNL     1      11.239  11.188  25.394  0.00  0.00    -0.251 OA
ATOM     30  C   UNL     1      11.288  11.399  24.190  0.00  0.00    +0.305 C 
BRANCH  30   2
ATOM      2  O   UNL     1      10.398  10.877  23.307  0.00  0.00    -0.481 OA
ATOM     32  H   UNL     1      10.572  11.181  22.390  0.00  0.00    +0.295 HD
ENDBRANCH  30   2
ENDBRANCH  29  30
ENDBRANCH  28  29
ENDBRANCH  20  28
ENDBRANCH   9   4
ENDBRANCH  10   7
TORSDOF 8
ENDMDL
MODEL 2
REMARK VINA RESULT:      -6.3     30.538     32.839
REMARK  Name = 40777718
REMARK  13 active torsions:
REMARK  status: ('A' for Active; 'I' for Inactive)
REMARK    1  A    between atoms: O_2  and  C_30
REMARK    2  A    between atoms: N_4  and  C_9
REMARK    3  A    between atoms: N_5  and  C_16
REMARK    4  A    between atoms: C_7  and  C_10
REMARK    5  A    between atoms: C_13  and  C_17
REMARK    6  A    between atoms: C_14  and  C_19
REMARK    7  A    between atoms: C_15  and  C_18
REMARK    8  A    between atoms: C_15  and  C_25
REMARK    9  A    between atoms: C_15  and  C_26
REMARK   10  A    between atoms: C_15  and  C_27
REMARK   11  A    between atoms: C_20  and  C_28
REMARK   12  A    between atoms: C_28  and  C_29
REMARK   13  A    between atoms: C_29  and  C_30
REMARK                            x       y       z     vdW  Elec       q    Type
REMARK                         _______ _______ _______ _____ _____    ______ ____
ROOT
ATOM      5  N   UNL     1      -7.320 -10.095  16.843  0.00  0.00    -0.236 N 
ATOM      6  N   UNL     1      -7.904  -8.890  16.731  0.00  0.00    -0.171 NA
ATOM     10  C   UNL     1      -9.233 -10.365  17.861  0.00  0.00    +0.003 A 
ATOM     13  C   UNL     1      -8.075 -11.013  17.511  0.00  0.00    +0.046 A 
ATOM     14  C   UNL     1      -9.073  -9.061  17.355  0.00  0.00    +0.064 A 
ATOM     17  C   UNL     1      -7.634 -12.403  17.752  0.00  0.00    +0.066 C 
ATOM     19  C   UNL     1     -10.019  -7.935  17.443  0.00  0.00    +0.068 C 
ENDROOT
BRANCH   5  16
ATOM     16  C   UNL     1      -6.052 -10.303  16.297  0.00  0.00    +0.066 A 
ATOM     18  C   UNL     1      -3.519 -10.710  15.202  0.00  0.00    -0.042 A 
ATOM     21  C   UNL     1      -4.936 -10.378  17.129  0.00  0.00    +0.028 A 
ATOM     22  C   UNL     1      -5.902 -10.430  14.916  0.00  0.00    +0.028 A 
ATOM     23  C   UNL     1      -3.670 -10.582  16.582  0.00  0.00    +0.006 A 
ATOM     24  C   UNL     1      -4.636 -10.634  14.368  0.00  0.00    +0.006 A 
BRANCH  18  15
ATOM     15  C   UNL     1      -2.165 -10.927  14.616  0.00  0.00    -0.013 C 
ATOM     25  C   UNL     1      -1.879 -12.446  14.401  0.00  0.00    +0.015 C 
ATOM     26  C   UNL     1      -1.048 -10.366  15.550  0.00  0.00    +0.015 C 
ATOM     27  C   UNL     1      -1.919 -10.256  13.224  0.00  0.00    +0.015 C 
ENDBRANCH  18  15
ENDBRANCH   5  16
BRANCH  10   7
ATOM      7  C   UNL     1     -10.414 -10.928  18.617  0.00  0.00    +0.047 C 
ATOM      8  C   UNL     1     -10.579 -10.325  20.027  0.00  0.00    +0.039 C 
ATOM      9  C   UNL     1     -12.091 -10.262  20.281  0.00  0.00    +0.097 C 
ATOM     11  C   UNL     1     -11.750 -10.652  17.990  0.00  0.00    -0.021 C 
ATOM     12  C   UNL     1     -12.660 -10.293  18.901  0.00  0.00    -0.009 C 
BRANCH   9   4
ATOM      1  O   UNL     1     -14.729 -10.604  21.409  0.00  0.00    -0.276 OA
ATOM      4  N   UNL     1     -12.579 -11.395  21.020  0.00  0.00    -0.309 N 
ATOM     20  C   UNL     1     -13.868 -11.472  21.526  0.00  0.00    +0.214 C 
ATOM     31  H   UNL     1     -11.936 -12.160  21.211  0.00  0.00    +0.149 HD
BRANCH  20  28
ATOM     28  C   UNL     1     -14.102 -12.779  22.261  0.00  0.00    +0.107 C 
BRANCH  28  29
ATOM     29  C   UNL     1     -13.502 -12.776  23.664  0.00  0.00    +0.129 C 
BRANCH  29  30
ATOM      3  O   UNL     1     -14.463 -11.757  25.653  0.00  0.00    -0.251 OA
ATOM     30  C   UNL     1     -14.551 -12.551  24.727  0.00  0.00    +0.305 C 
BRANCH  30   2
ATOM      2  O   UNL     1     -15.632 -13.352  24.535  0.00  0.00    -0.481 OA
ATOM     32  H   UNL     1     -15.407 -14.301  24.641  0.00  0.00    +0.295 HD
ENDBRANCH  30   2
ENDBRANCH  29  30
ENDBRANCH  28  29
ENDBRANCH  20  28
ENDBRANCH   9   4
ENDBRANCH  10   7
TORSDOF 8
ENDMDL
MODEL 3
REMARK VINA RESULT:      -6.2     19.715     22.657
REMARK  Name = 40777718
REMARK  13 active torsions:
REMARK  status: ('A' for Active; 'I' for Inactive)
REMARK    1  A    between atoms: O_2  and  C_30
REMARK    2  A    between atoms: N_4  and  C_9
REMARK    3  A    between atoms: N_5  and  C_16
REMARK    4  A    between atoms: C_7  and  C_10
REMARK    5  A    between atoms: C_13  and  C_17
REMARK    6  A    between atoms: C_14  and  C_19
REMARK    7  A    between atoms: C_15  and  C_18
REMARK    8  A    between atoms: C_15  and  C_25
REMARK    9  A    between atoms: C_15  and  C_26
REMARK   10  A    between atoms: C_15  and  C_27
REMARK   11  A    between atoms: C_20  and  C_28
REMARK   12  A    between atoms: C_28  and  C_29
REMARK   13  A    between atoms: C_29  and  C_30
REMARK                            x       y       z     vdW  Elec       q    Type
REMARK                         _______ _______ _______ _____ _____    ______ ____
ROOT
ATOM      5  N   UNL     1      12.965   4.013  -1.095  0.00  0.00    -0.236 N 
ATOM      6  N   UNL     1      14.147   3.670  -0.556  0.00  0.00    -0.171 NA
ATOM     10  C   UNL     1      12.627   4.239   1.051  0.00  0.00    +0.003 A 
ATOM     13  C   UNL     1      12.022   4.362  -0.175  0.00  0.00    +0.046 A 
ATOM     14  C   UNL     1      13.935   3.811   0.755  0.00  0.00    +0.064 A 
ATOM     17  C   UNL     1      10.650   4.776  -0.538  0.00  0.00    +0.066 C 
ATOM     19  C   UNL     1      15.027   3.520   1.701  0.00  0.00    +0.068 C 
ENDROOT
BRANCH   5  16
ATOM     16  C   UNL     1      12.803   3.987  -2.481  0.00  0.00    +0.066 A 
ATOM     18  C   UNL     1      12.487   3.934  -5.252  0.00  0.00    -0.042 A 
ATOM     21  C   UNL     1      12.445   2.800  -3.120  0.00  0.00    +0.028 A 
ATOM     22  C   UNL     1      13.004   5.147  -3.227  0.00  0.00    +0.028 A 
ATOM     23  C   UNL     1      12.287   2.774  -4.505  0.00  0.00    +0.006 A 
ATOM     24  C   UNL     1      12.846   5.121  -4.613  0.00  0.00    +0.006 A 
BRANCH  18  15
ATOM     15  C   UNL     1      12.318   3.906  -6.734  0.00  0.00    -0.013 C 
ATOM     25  C   UNL     1      13.293   4.904  -7.433  0.00  0.00    +0.015 C 
ATOM     26  C   UNL     1      10.866   4.302  -7.145  0.00  0.00    +0.015 C 
ATOM     27  C   UNL     1      12.582   2.522  -7.414  0.00  0.00    +0.015 C 
ENDBRANCH  18  15
ENDBRANCH   5  16
BRANCH  10   7
ATOM      7  C   UNL     1      12.024   4.507   2.410  0.00  0.00    +0.047 C 
ATOM      8  C   UNL     1      12.250   5.950   2.905  0.00  0.00    +0.039 C 
ATOM      9  C   UNL     1      10.993   6.322   3.701  0.00  0.00    +0.097 C 
ATOM     11  C   UNL     1      10.529   4.376   2.470  0.00  0.00    -0.021 C 
ATOM     12  C   UNL     1       9.973   5.365   3.177  0.00  0.00    -0.009 C 
BRANCH   9   4
ATOM      1  O   UNL     1       9.365   7.430   5.816  0.00  0.00    -0.276 OA
ATOM      4  N   UNL     1      11.150   6.117   5.116  0.00  0.00    -0.309 N 
ATOM     20  C   UNL     1      10.316   6.693   6.062  0.00  0.00    +0.214 C 
ATOM     31  H   UNL     1      11.933   5.553   5.438  0.00  0.00    +0.149 HD
BRANCH  20  28
ATOM     28  C   UNL     1      10.719   6.304   7.473  0.00  0.00    +0.107 C 
BRANCH  28  29
ATOM     29  C   UNL     1       9.517   6.012   8.365  0.00  0.00    +0.129 C 
BRANCH  29  30
ATOM      3  O   UNL     1       9.097   4.347  10.089  0.00  0.00    -0.251 OA
ATOM     30  C   UNL     1       9.619   4.658   9.028  0.00  0.00    +0.305 C 
BRANCH  30   2
ATOM      2  O   UNL     1      10.375   3.802   8.291  0.00  0.00    -0.481 OA
ATOM     32  H   UNL     1       9.888   3.465   7.509  0.00  0.00    +0.295 HD
ENDBRANCH  30   2
ENDBRANCH  29  30
ENDBRANCH  28  29
ENDBRANCH  20  28
ENDBRANCH   9   4
ENDBRANCH  10   7
TORSDOF 8
ENDMDL
MODEL 4
REMARK VINA RESULT:      -6.1     29.099     32.040
REMARK  Name = 40777718
REMARK  13 active torsions:
REMARK  status: ('A' for Active; 'I' for Inactive)
REMARK    1  A    between atoms: O_2  and  C_30
REMARK    2  A    between atoms: N_4  and  C_9
REMARK    3  A    between atoms: N_5  and  C_16
REMARK    4  A    between atoms: C_7  and  C_10
REMARK    5  A    between atoms: C_13  and  C_17
REMARK    6  A    between atoms: C_14  and  C_19
REMARK    7  A    between atoms: C_15  and  C_18
REMARK    8  A    between atoms: C_15  and  C_25
REMARK    9  A    between atoms: C_15  and  C_26
REMARK   10  A    between atoms: C_15  and  C_27
REMARK   11  A    between atoms: C_20  and  C_28
REMARK   12  A    between atoms: C_28  and  C_29
REMARK   13  A    between atoms: C_29  and  C_30
REMARK                            x       y       z     vdW  Elec       q    Type
REMARK                         _______ _______ _______ _____ _____    ______ ____
ROOT
ATOM      5  N   UNL     1      -3.841 -10.626  13.509  0.00  0.00    -0.236 N 
ATOM      6  N   UNL     1      -2.550 -10.265  13.421  0.00  0.00    -0.171 NA
ATOM     10  C   UNL     1      -3.523 -10.405  11.359  0.00  0.00    +0.003 A 
ATOM     13  C   UNL     1      -4.469 -10.725  12.302  0.00  0.00    +0.046 A 
ATOM     14  C   UNL     1      -2.361 -10.132  12.105  0.00  0.00    +0.064 A 
ATOM     17  C   UNL     1      -5.888 -11.108  12.156  0.00  0.00    +0.066 C 
ATOM     19  C   UNL     1      -1.035  -9.737  11.599  0.00  0.00    +0.068 C 
ENDROOT
BRANCH   5  16
ATOM     16  C   UNL     1      -4.410 -10.861  14.762  0.00  0.00    +0.066 A 
ATOM     18  C   UNL     1      -5.555 -11.331  17.261  0.00  0.00    -0.042 A 
ATOM     21  C   UNL     1      -4.086 -12.017  15.471  0.00  0.00    +0.028 A 
ATOM     22  C   UNL     1      -5.307  -9.939  15.301  0.00  0.00    +0.028 A 
ATOM     23  C   UNL     1      -4.658 -12.251  16.721  0.00  0.00    +0.006 A 
ATOM     24  C   UNL     1      -5.880 -10.174  16.551  0.00  0.00    +0.006 A 
BRANCH  18  15
ATOM     15  C   UNL     1      -6.167 -11.582  18.598  0.00  0.00    -0.013 C 
ATOM     25  C   UNL     1      -5.073 -11.799  19.689  0.00  0.00    +0.015 C 
ATOM     26  C   UNL     1      -7.068 -12.856  18.577  0.00  0.00    +0.015 C 
ATOM     27  C   UNL     1      -7.079 -10.435  19.146  0.00  0.00    +0.015 C 
ENDBRANCH  18  15
ENDBRANCH   5  16
BRANCH  10   7
ATOM      7  C   UNL     1      -3.694 -10.361   9.859  0.00  0.00    +0.047 C 
ATOM      8  C   UNL     1      -4.305 -11.652   9.275  0.00  0.00    +0.039 C 
ATOM      9  C   UNL     1      -5.177 -11.207   8.095  0.00  0.00    +0.097 C 
ATOM     11  C   UNL     1      -4.642  -9.305   9.365  0.00  0.00    -0.021 C 
ATOM     12  C   UNL     1      -5.444  -9.770   8.403  0.00  0.00    -0.009 C 
BRANCH   9   4
ATOM      1  O   UNL     1      -5.161 -13.458   6.284  0.00  0.00    -0.276 OA
ATOM      4  N   UNL     1      -4.494 -11.301   6.833  0.00  0.00    -0.309 N 
ATOM     20  C   UNL     1      -4.545 -12.428   6.026  0.00  0.00    +0.214 C 
ATOM     31  H   UNL     1      -3.918 -10.517   6.536  0.00  0.00    +0.149 HD
BRANCH  20  28
ATOM     28  C   UNL     1      -3.730 -12.244   4.758  0.00  0.00    +0.107 C 
BRANCH  28  29
ATOM     29  C   UNL     1      -2.803 -13.424   4.484  0.00  0.00    +0.129 C 
BRANCH  29  30
ATOM      3  O   UNL     1      -1.081 -13.935   2.843  0.00  0.00    -0.251 OA
ATOM     30  C   UNL     1      -2.022 -13.243   3.203  0.00  0.00    +0.305 C 
BRANCH  30   2
ATOM      2  O   UNL     1      -2.497 -12.198   2.476  0.00  0.00    -0.481 OA
ATOM     32  H   UNL     1      -2.328 -12.314   1.516  0.00  0.00    +0.295 HD
ENDBRANCH  30   2
ENDBRANCH  29  30
ENDBRANCH  28  29
ENDBRANCH  20  28
ENDBRANCH   9   4
ENDBRANCH  10   7
TORSDOF 8
ENDMDL
MODEL 5
REMARK VINA RESULT:      -6.1      2.149      3.102
REMARK  Name = 40777718
REMARK  13 active torsions:
REMARK  status: ('A' for Active; 'I' for Inactive)
REMARK    1  A    between atoms: O_2  and  C_30
REMARK    2  A    between atoms: N_4  and  C_9
REMARK    3  A    between atoms: N_5  and  C_16
REMARK    4  A    between atoms: C_7  and  C_10
REMARK    5  A    between atoms: C_13  and  C_17
REMARK    6  A    between atoms: C_14  and  C_19
REMARK    7  A    between atoms: C_15  and  C_18
REMARK    8  A    between atoms: C_15  and  C_25
REMARK    9  A    between atoms: C_15  and  C_26
REMARK   10  A    between atoms: C_15  and  C_27
REMARK   11  A    between atoms: C_20  and  C_28
REMARK   12  A    between atoms: C_28  and  C_29
REMARK   13  A    between atoms: C_29  and  C_30
REMARK                            x       y       z     vdW  Elec       q    Type
REMARK                         _______ _______ _______ _____ _____    ______ ____
ROOT
ATOM      5  N   UNL     1      19.748   6.224  20.703  0.00  0.00    -0.236 N 
ATOM      6  N   UNL     1      19.142   5.484  19.759  0.00  0.00    -0.171 NA
ATOM     10  C   UNL     1      17.820   7.218  20.440  0.00  0.00    +0.003 A 
ATOM     13  C   UNL     1      18.998   7.274  21.144  0.00  0.00    +0.046 A 
ATOM     14  C   UNL     1      17.965   6.096  19.603  0.00  0.00    +0.064 A 
ATOM     17  C   UNL     1      19.461   8.222  22.179  0.00  0.00    +0.066 C 
ATOM     19  C   UNL     1      16.995   5.564  18.629  0.00  0.00    +0.068 C 
ENDROOT
BRANCH   5  16
ATOM     16  C   UNL     1      21.029   5.880  21.135  0.00  0.00    +0.066 A 
ATOM     18  C   UNL     1      23.591   5.199  22.004  0.00  0.00    -0.042 A 
ATOM     21  C   UNL     1      21.192   5.009  22.212  0.00  0.00    +0.028 A 
ATOM     22  C   UNL     1      22.147   6.412  20.493  0.00  0.00    +0.028 A 
ATOM     23  C   UNL     1      22.473   4.668  22.646  0.00  0.00    +0.006 A 
ATOM     24  C   UNL     1      23.428   6.071  20.926  0.00  0.00    +0.006 A 
BRANCH  18  15
ATOM     15  C   UNL     1      24.961   4.835  22.468  0.00  0.00    -0.013 C 
ATOM     25  C   UNL     1      25.090   4.979  24.016  0.00  0.00    +0.015 C 
ATOM     26  C   UNL     1      26.041   5.756  21.820  0.00  0.00    +0.015 C 
ATOM     27  C   UNL     1      25.413   3.373  22.147  0.00  0.00    +0.015 C 
ENDBRANCH  18  15
ENDBRANCH   5  16
BRANCH  10   7
ATOM      7  C   UNL     1      16.637   8.151  20.546  0.00  0.00    +0.047 C 
ATOM      8  C   UNL     1      15.550   7.651  21.520  0.00  0.00    +0.039 C 
ATOM      9  C   UNL     1      14.960   8.909  22.170  0.00  0.00    +0.097 C 
ATOM     11  C   UNL     1      16.957   9.513  21.092  0.00  0.00    -0.021 C 
ATOM     12  C   UNL     1      16.039   9.921  21.973  0.00  0.00    -0.009 C 
BRANCH   9   4
ATOM      1  O   UNL     1      12.412   7.550  22.063  0.00  0.00    -0.276 OA
ATOM      4  N   UNL     1      13.761   9.362  21.517  0.00  0.00    -0.309 N 
ATOM     20  C   UNL     1      12.578   8.638  21.519  0.00  0.00    +0.214 C 
ATOM     31  H   UNL     1      13.794  10.237  20.999  0.00  0.00    +0.149 HD
BRANCH  20  28
ATOM     28  C   UNL     1      11.482   9.358  20.752  0.00  0.00    +0.107 C 
BRANCH  28  29
ATOM     29  C   UNL     1      10.918   8.516  19.613  0.00  0.00    +0.129 C 
BRANCH  29  30
ATOM      3  O   UNL     1      12.001   7.325  17.789  0.00  0.00    -0.251 OA
ATOM     30  C   UNL     1      11.927   8.311  18.507  0.00  0.00    +0.305 C 
BRANCH  30   2
ATOM      2  O   UNL     1      12.765   9.375  18.398  0.00  0.00    -0.481 OA
ATOM     32  H   UNL     1      12.629  10.022  19.122  0.00  0.00    +0.295 HD
ENDBRANCH  30   2
ENDBRANCH  29  30
ENDBRANCH  28  29
ENDBRANCH  20  28
ENDBRANCH   9   4
ENDBRANCH  10   7
TORSDOF 8
ENDMDL
MODEL 6
REMARK VINA RESULT:      -6.1     31.282     33.860
REMARK  Name = 40777718
REMARK  13 active torsions:
REMARK  status: ('A' for Active; 'I' for Inactive)
REMARK    1  A    between atoms: O_2  and  C_30
REMARK    2  A    between atoms: N_4  and  C_9
REMARK    3  A    between atoms: N_5  and  C_16
REMARK    4  A    between atoms: C_7  and  C_10
REMARK    5  A    between atoms: C_13  and  C_17
REMARK    6  A    between atoms: C_14  and  C_19
REMARK    7  A    between atoms: C_15  and  C_18
REMARK    8  A    between atoms: C_15  and  C_25
REMARK    9  A    between atoms: C_15  and  C_26
REMARK   10  A    between atoms: C_15  and  C_27
REMARK   11  A    between atoms: C_20  and  C_28
REMARK   12  A    between atoms: C_28  and  C_29
REMARK   13  A    between atoms: C_29  and  C_30
REMARK                            x       y       z     vdW  Elec       q    Type
REMARK                         _______ _______ _______ _____ _____    ______ ____
ROOT
ATOM      5  N   UNL     1      -6.607  -8.680   8.491  0.00  0.00    -0.236 N 
ATOM      6  N   UNL     1      -7.338  -7.604   8.830  0.00  0.00    -0.171 NA
ATOM     10  C   UNL     1      -7.859  -8.348   6.733  0.00  0.00    +0.003 A 
ATOM     13  C   UNL     1      -6.880  -9.163   7.246  0.00  0.00    +0.046 A 
ATOM     14  C   UNL     1      -8.101  -7.406   7.751  0.00  0.00    +0.064 A 
ATOM     17  C   UNL     1      -6.198 -10.337   6.664  0.00  0.00    +0.066 C 
ATOM     19  C   UNL     1      -9.060  -6.287   7.738  0.00  0.00    +0.068 C 
ENDROOT
BRANCH   5  16
ATOM     16  C   UNL     1      -5.673  -9.193   9.394  0.00  0.00    +0.066 A 
ATOM     18  C   UNL     1      -3.807 -10.210  11.200  0.00  0.00    -0.042 A 
ATOM     21  C   UNL     1      -6.084 -10.056  10.409  0.00  0.00    +0.028 A 
ATOM     22  C   UNL     1      -4.330  -8.837   9.282  0.00  0.00    +0.028 A 
ATOM     23  C   UNL     1      -5.151 -10.565  11.312  0.00  0.00    +0.006 A 
ATOM     24  C   UNL     1      -3.396  -9.345  10.184  0.00  0.00    +0.006 A 
BRANCH  18  15
ATOM     15  C   UNL     1      -2.809 -10.753  12.166  0.00  0.00    -0.013 C 
ATOM     25  C   UNL     1      -3.253 -10.500  13.640  0.00  0.00    +0.015 C 
ATOM     26  C   UNL     1      -1.413 -10.083  11.974  0.00  0.00    +0.015 C 
ATOM     27  C   UNL     1      -2.549 -12.293  12.069  0.00  0.00    +0.015 C 
ENDBRANCH  18  15
ENDBRANCH   5  16
BRANCH  10   7
ATOM      7  C   UNL     1      -8.523  -8.441   5.379  0.00  0.00    +0.047 C 
ATOM      8  C   UNL     1      -7.546  -8.229   4.204  0.00  0.00    +0.039 C 
ATOM      9  C   UNL     1      -8.041  -9.144   3.077  0.00  0.00    +0.097 C 
ATOM     11  C   UNL     1      -9.119  -9.783   5.064  0.00  0.00    -0.021 C 
ATOM     12  C   UNL     1      -8.856 -10.159   3.808  0.00  0.00    -0.009 C 
BRANCH   9   4
ATOM      1  O   UNL     1      -8.254  -9.660   0.242  0.00  0.00    -0.276 OA
ATOM      4  N   UNL     1      -8.878  -8.457   2.131  0.00  0.00    -0.309 N 
ATOM     20  C   UNL     1      -8.915  -8.776   0.781  0.00  0.00    +0.214 C 
ATOM     31  H   UNL     1      -9.441  -7.677   2.461  0.00  0.00    +0.149 HD
BRANCH  20  28
ATOM     28  C   UNL     1      -9.885  -7.886   0.024  0.00  0.00    +0.107 C 
BRANCH  28  29
ATOM     29  C   UNL     1     -10.980  -7.321   0.922  0.00  0.00    +0.129 C 
BRANCH  29  30
ATOM      3  O   UNL     1     -11.441  -4.998   0.363  0.00  0.00    -0.251 OA
ATOM     30  C   UNL     1     -10.874  -5.820   1.067  0.00  0.00    +0.305 C 
BRANCH  30   2
ATOM      2  O   UNL     1     -10.055  -5.479   2.097  0.00  0.00    -0.481 OA
ATOM     32  H   UNL     1      -9.337  -6.135   2.225  0.00  0.00    +0.295 HD
ENDBRANCH  30   2
ENDBRANCH  29  30
ENDBRANCH  28  29
ENDBRANCH  20  28
ENDBRANCH   9   4
ENDBRANCH  10   7
TORSDOF 8
ENDMDL
MODEL 7
REMARK VINA RESULT:      -6.1     29.637     32.561
REMARK  Name = 40777718
REMARK  13 active torsions:
REMARK  status: ('A' for Active; 'I' for Inactive)
REMARK    1  A    between atoms: O_2  and  C_30
REMARK    2  A    between atoms: N_4  and  C_9
REMARK    3  A    between atoms: N_5  and  C_16
REMARK    4  A    between atoms: C_7  and  C_10
REMARK    5  A    between atoms: C_13  and  C_17
REMARK    6  A    between atoms: C_14  and  C_19
REMARK    7  A    between atoms: C_15  and  C_18
REMARK    8  A    between atoms: C_15  and  C_25
REMARK    9  A    between atoms: C_15  and  C_26
REMARK   10  A    between atoms: C_15  and  C_27
REMARK   11  A    between atoms: C_20  and  C_28
REMARK   12  A    between atoms: C_28  and  C_29
REMARK   13  A    between atoms: C_29  and  C_30
REMARK                            x       y       z     vdW  Elec       q    Type
REMARK                         _______ _______ _______ _____ _____    ______ ____
ROOT
ATOM      5  N   UNL     1      -5.742  -9.439   8.803  0.00  0.00    -0.236 N 
ATOM      6  N   UNL     1      -4.435  -9.130   8.843  0.00  0.00    -0.171 NA
ATOM     10  C   UNL     1      -5.142 -10.043  10.814  0.00  0.00    +0.003 A 
ATOM     13  C   UNL     1      -6.214  -9.988   9.958  0.00  0.00    +0.046 A 
ATOM     14  C   UNL     1      -4.074  -9.501  10.075  0.00  0.00    +0.064 A 
ATOM     17  C   UNL     1      -7.620 -10.404  10.143  0.00  0.00    +0.066 C 
ATOM     19  C   UNL     1      -2.677  -9.315  10.507  0.00  0.00    +0.068 C 
ENDROOT
BRANCH   5  16
ATOM     16  C   UNL     1      -6.477  -9.188   7.643  0.00  0.00    +0.066 A 
ATOM     18  C   UNL     1      -7.941  -8.680   5.324  0.00  0.00    -0.042 A 
ATOM     21  C   UNL     1      -6.290  -9.982   6.512  0.00  0.00    +0.028 A 
ATOM     22  C   UNL     1      -7.395  -8.139   7.615  0.00  0.00    +0.028 A 
ATOM     23  C   UNL     1      -7.022  -9.728   5.353  0.00  0.00    +0.006 A 
ATOM     24  C   UNL     1      -8.127  -7.885   6.455  0.00  0.00    +0.006 A 
BRANCH  18  15
ATOM     15  C   UNL     1      -8.723  -8.408   4.084  0.00  0.00    -0.013 C 
ATOM     25  C   UNL     1      -7.792  -7.956   2.915  0.00  0.00    +0.015 C 
ATOM     26  C   UNL     1      -9.771  -7.274   4.313  0.00  0.00    +0.015 C 
ATOM     27  C   UNL     1      -9.537  -9.620   3.522  0.00  0.00    +0.015 C 
ENDBRANCH  18  15
ENDBRANCH   5  16
BRANCH  10   7
ATOM      7  C   UNL     1      -5.118 -10.565  12.232  0.00  0.00    +0.047 C 
ATOM      8  C   UNL     1      -6.006  -9.753  13.197  0.00  0.00    +0.039 C 
ATOM      9  C   UNL     1      -6.568 -10.767  14.202  0.00  0.00    +0.097 C 
ATOM     11  C   UNL     1      -5.652 -11.958  12.397  0.00  0.00    -0.021 C 
ATOM     12  C   UNL     1      -6.439 -12.063  13.473  0.00  0.00    -0.009 C 
BRANCH   9   4
ATOM      1  O   UNL     1      -7.124  -9.402  16.688  0.00  0.00    -0.276 OA
ATOM      4  N   UNL     1      -5.801 -10.829  15.417  0.00  0.00    -0.309 N 
ATOM     20  C   UNL     1      -6.146 -10.136  16.567  0.00  0.00    +0.214 C 
ATOM     31  H   UNL     1      -4.945 -11.378  15.420  0.00  0.00    +0.149 HD
BRANCH  20  28
ATOM     28  C   UNL     1      -5.155 -10.388  17.690  0.00  0.00    +0.107 C 
BRANCH  28  29
ATOM     29  C   UNL     1      -5.601 -11.513  18.619  0.00  0.00    +0.129 C 
BRANCH  29  30
ATOM      3  O   UNL     1      -5.842 -11.474  21.040  0.00  0.00    -0.251 OA
ATOM     30  C   UNL     1      -6.094 -10.987  19.947  0.00  0.00    +0.305 C 
BRANCH  30   2
ATOM      2  O   UNL     1      -6.869  -9.882  19.786  0.00  0.00    -0.481 OA
ATOM     32  H   UNL     1      -6.335  -9.094  19.551  0.00  0.00    +0.295 HD
ENDBRANCH  30   2
ENDBRANCH  29  30
ENDBRANCH  28  29
ENDBRANCH  20  28
ENDBRANCH   9   4
ENDBRANCH  10   7
TORSDOF 8
ENDMDL
MODEL 8
REMARK VINA RESULT:      -6.1     29.932     33.263
REMARK  Name = 40777718
REMARK  13 active torsions:
REMARK  status: ('A' for Active; 'I' for Inactive)
REMARK    1  A    between atoms: O_2  and  C_30
REMARK    2  A    between atoms: N_4  and  C_9
REMARK    3  A    between atoms: N_5  and  C_16
REMARK    4  A    between atoms: C_7  and  C_10
REMARK    5  A    between atoms: C_13  and  C_17
REMARK    6  A    between atoms: C_14  and  C_19
REMARK    7  A    between atoms: C_15  and  C_18
REMARK    8  A    between atoms: C_15  and  C_25
REMARK    9  A    between atoms: C_15  and  C_26
REMARK   10  A    between atoms: C_15  and  C_27
REMARK   11  A    between atoms: C_20  and  C_28
REMARK   12  A    between atoms: C_28  and  C_29
REMARK   13  A    between atoms: C_29  and  C_30
REMARK                            x       y       z     vdW  Elec       q    Type
REMARK                         _______ _______ _______ _____ _____    ______ ____
ROOT
ATOM      5  N   UNL     1      -8.730 -10.943  18.267  0.00  0.00    -0.236 N 
ATOM      6  N   UNL     1      -7.668 -10.755  19.070  0.00  0.00    -0.171 NA
ATOM     10  C   UNL     1      -7.030 -11.144  16.911  0.00  0.00    +0.003 A 
ATOM     13  C   UNL     1      -8.402 -11.180  16.966  0.00  0.00    +0.046 A 
ATOM     14  C   UNL     1      -6.633 -10.880  18.235  0.00  0.00    +0.064 A 
ATOM     17  C   UNL     1      -9.405 -11.415  15.907  0.00  0.00    +0.066 C 
ATOM     19  C   UNL     1      -5.261 -10.737  18.756  0.00  0.00    +0.068 C 
ENDROOT
BRANCH   5  16
ATOM     16  C   UNL     1     -10.019 -10.884  18.801  0.00  0.00    +0.066 A 
ATOM     18  C   UNL     1     -12.597 -10.768  19.859  0.00  0.00    -0.042 A 
ATOM     21  C   UNL     1     -10.491 -11.922  19.603  0.00  0.00    +0.028 A 
ATOM     22  C   UNL     1     -10.836  -9.788  18.526  0.00  0.00    +0.028 A 
ATOM     23  C   UNL     1     -11.780 -11.864  20.132  0.00  0.00    +0.006 A 
ATOM     24  C   UNL     1     -12.125  -9.729  19.056  0.00  0.00    +0.006 A 
BRANCH  18  15
ATOM     15  C   UNL     1     -13.976 -10.706  20.424  0.00  0.00    -0.013 C 
ATOM     25  C   UNL     1     -14.387  -9.237  20.751  0.00  0.00    +0.015 C 
ATOM     26  C   UNL     1     -14.083 -11.528  21.746  0.00  0.00    +0.015 C 
ATOM     27  C   UNL     1     -15.108 -11.258  19.497  0.00  0.00    +0.015 C 
ENDBRANCH  18  15
ENDBRANCH   5  16
BRANCH  10   7
ATOM      7  C   UNL     1      -6.149 -11.347  15.700  0.00  0.00    +0.047 C 
ATOM      8  C   UNL     1      -5.330 -10.094  15.325  0.00  0.00    +0.039 C 
ATOM      9  C   UNL     1      -3.993 -10.616  14.782  0.00  0.00    +0.097 C 
ATOM     11  C   UNL     1      -5.083 -12.391  15.867  0.00  0.00    -0.021 C 
ATOM     12  C   UNL     1      -3.913 -11.989  15.363  0.00  0.00    -0.009 C 
BRANCH   9   4
ATOM      1  O   UNL     1      -1.722 -10.218  13.040  0.00  0.00    -0.276 OA
ATOM      4  N   UNL     1      -3.974 -10.707  13.347  0.00  0.00    -0.309 N 
ATOM     20  C   UNL     1      -2.830 -10.499  12.590  0.00  0.00    +0.214 C 
ATOM     31  H   UNL     1      -4.848 -10.897  12.864  0.00  0.00    +0.149 HD
BRANCH  20  28
ATOM     28  C   UNL     1      -3.107 -10.658  11.106  0.00  0.00    +0.107 C 
BRANCH  28  29
ATOM     29  C   UNL     1      -3.096  -9.326  10.364  0.00  0.00    +0.129 C 
BRANCH  29  30
ATOM      3  O   UNL     1      -5.293  -8.632  11.146  0.00  0.00    -0.251 OA
ATOM     30  C   UNL     1      -4.483  -8.738  10.237  0.00  0.00    +0.305 C 
BRANCH  30   2
ATOM      2  O   UNL     1      -4.734  -8.330   8.966  0.00  0.00    -0.481 OA
ATOM     32  H   UNL     1      -5.540  -8.752   8.600  0.00  0.00    +0.295 HD
ENDBRANCH  30   2
ENDBRANCH  29  30
ENDBRANCH  28  29
ENDBRANCH  20  28
ENDBRANCH   9   4
ENDBRANCH  10   7
TORSDOF 8
ENDMDL
MODEL 9
REMARK VINA RESULT:      -5.9     29.616     32.714
REMARK  Name = 40777718
REMARK  13 active torsions:
REMARK  status: ('A' for Active; 'I' for Inactive)
REMARK    1  A    between atoms: O_2  and  C_30
REMARK    2  A    between atoms: N_4  and  C_9
REMARK    3  A    between atoms: N_5  and  C_16
REMARK    4  A    between atoms: C_7  and  C_10
REMARK    5  A    between atoms: C_13  and  C_17
REMARK    6  A    between atoms: C_14  and  C_19
REMARK    7  A    between atoms: C_15  and  C_18
REMARK    8  A    between atoms: C_15  and  C_25
REMARK    9  A    between atoms: C_15  and  C_26
REMARK   10  A    between atoms: C_15  and  C_27
REMARK   11  A    between atoms: C_20  and  C_28
REMARK   12  A    between atoms: C_28  and  C_29
REMARK   13  A    between atoms: C_29  and  C_30
REMARK                            x       y       z     vdW  Elec       q    Type
REMARK                         _______ _______ _______ _____ _____    ______ ____
ROOT
ATOM      5  N   UNL     1      -6.221  -9.956   7.824  0.00  0.00    -0.236 N 
ATOM      6  N   UNL     1      -5.694 -11.181   7.659  0.00  0.00    -0.171 NA
ATOM     10  C   UNL     1      -4.901 -10.173   9.549  0.00  0.00    +0.003 A 
ATOM     13  C   UNL     1      -5.778  -9.311   8.940  0.00  0.00    +0.046 A 
ATOM     14  C   UNL     1      -4.888 -11.308   8.717  0.00  0.00    +0.064 A 
ATOM     17  C   UNL     1      -6.221  -7.953   9.321  0.00  0.00    +0.066 C 
ATOM     19  C   UNL     1      -4.113 -12.549   8.892  0.00  0.00    +0.068 C 
ENDROOT
BRANCH   5  16
ATOM     16  C   UNL     1      -7.134  -9.464   6.888  0.00  0.00    +0.066 A 
ATOM     18  C   UNL     1      -8.955  -8.488   5.015  0.00  0.00    -0.042 A 
ATOM     21  C   UNL     1      -8.502  -9.526   7.149  0.00  0.00    +0.028 A 
ATOM     22  C   UNL     1      -6.675  -8.915   5.692  0.00  0.00    +0.028 A 
ATOM     23  C   UNL     1      -9.412  -9.037   6.212  0.00  0.00    +0.006 A 
ATOM     24  C   UNL     1      -7.585  -8.426   4.755  0.00  0.00    +0.006 A 
BRANCH  18  15
ATOM     15  C   UNL     1      -9.929  -7.966   4.013  0.00  0.00    -0.013 C 
ATOM     25  C   UNL     1     -10.566  -9.126   3.187  0.00  0.00    +0.015 C 
ATOM     26  C   UNL     1      -9.238  -6.996   3.005  0.00  0.00    +0.015 C 
ATOM     27  C   UNL     1     -11.135  -7.164   4.603  0.00  0.00    +0.015 C 
ENDBRANCH  18  15
ENDBRANCH   5  16
BRANCH  10   7
ATOM      7  C   UNL     1      -4.123  -9.950  10.826  0.00  0.00    +0.047 C 
ATOM      8  C   UNL     1      -3.921 -11.238  11.650  0.00  0.00    +0.039 C 
ATOM      9  C   UNL     1      -2.541 -11.103  12.307  0.00  0.00    +0.097 C 
ATOM     11  C   UNL     1      -2.714  -9.471  10.626  0.00  0.00    -0.021 C 
ATOM     12  C   UNL     1      -1.858 -10.099  11.437  0.00  0.00    -0.009 C 
BRANCH   9   4
ATOM      1  O   UNL     1      -2.673 -12.643  14.748  0.00  0.00    -0.276 OA
ATOM      4  N   UNL     1      -2.611 -10.595  13.650  0.00  0.00    -0.309 N 
ATOM     20  C   UNL     1      -2.672 -11.415  14.768  0.00  0.00    +0.214 C 
ATOM     31  H   UNL     1      -2.656  -9.588  13.784  0.00  0.00    +0.149 HD
BRANCH  20  28
ATOM     28  C   UNL     1      -2.740 -10.605  16.051  0.00  0.00    +0.107 C 
BRANCH  28  29
ATOM     29  C   UNL     1      -4.167 -10.451  16.568  0.00  0.00    +0.129 C 
BRANCH  29  30
ATOM      3  O   UNL     1      -4.884 -10.963  18.836  0.00  0.00    -0.251 OA
ATOM     30  C   UNL     1      -4.434 -11.337  17.762  0.00  0.00    +0.305 C 
BRANCH  30   2
ATOM      2  O   UNL     1      -4.109 -12.631  17.503  0.00  0.00    -0.481 OA
ATOM     32  H   UNL     1      -4.360 -13.226  18.241  0.00  0.00    +0.295 HD
ENDBRANCH  30   2
ENDBRANCH  29  30
ENDBRANCH  28  29
ENDBRANCH  20  28
ENDBRANCH   9   4
ENDBRANCH  10   7
TORSDOF 8
ENDMDL
MODEL 10
REMARK VINA RESULT:      -5.9     13.386     18.141
REMARK  Name = 40777718
REMARK  13 active torsions:
REMARK  status: ('A' for Active; 'I' for Inactive)
REMARK    1  A    between atoms: O_2  and  C_30
REMARK    2  A    between atoms: N_4  and  C_9
REMARK    3  A    between atoms: N_5  and  C_16
REMARK    4  A    between atoms: C_7  and  C_10
REMARK    5  A    between atoms: C_13  and  C_17
REMARK    6  A    between atoms: C_14  and  C_19
REMARK    7  A    between atoms: C_15  and  C_18
REMARK    8  A    between atoms: C_15  and  C_25
REMARK    9  A    between atoms: C_15  and  C_26
REMARK   10  A    between atoms: C_15  and  C_27
REMARK   11  A    between atoms: C_20  and  C_28
REMARK   12  A    between atoms: C_28  and  C_29
REMARK   13  A    between atoms: C_29  and  C_30
REMARK                            x       y       z     vdW  Elec       q    Type
REMARK                         _______ _______ _______ _____ _____    ______ ____
ROOT
ATOM      5  N   UNL     1      20.235  -7.074  23.179  0.00  0.00    -0.236 N 
ATOM      6  N   UNL     1      20.704  -7.639  24.305  0.00  0.00    -0.171 NA
ATOM     10  C   UNL     1      21.435  -8.744  22.444  0.00  0.00    +0.003 A 
ATOM     13  C   UNL     1      20.643  -7.698  22.038  0.00  0.00    +0.046 A 
ATOM     14  C   UNL     1      21.436  -8.659  23.849  0.00  0.00    +0.064 A 
ATOM     17  C   UNL     1      20.250  -7.252  20.685  0.00  0.00    +0.066 C 
ATOM     19  C   UNL     1      22.128  -9.539  24.807  0.00  0.00    +0.068 C 
ENDROOT
BRANCH   5  16
ATOM     16  C   UNL     1      19.410  -5.951  23.261  0.00  0.00    +0.066 A 
ATOM     18  C   UNL     1      17.759  -3.709  23.431  0.00  0.00    -0.042 A 
ATOM     21  C   UNL     1      19.955  -4.705  23.572  0.00  0.00    +0.028 A 
ATOM     22  C   UNL     1      18.040  -6.076  23.035  0.00  0.00    +0.028 A 
ATOM     23  C   UNL     1      19.129  -3.585  23.657  0.00  0.00    +0.006 A 
ATOM     24  C   UNL     1      17.214  -4.956  23.120  0.00  0.00    +0.006 A 
BRANCH  18  15
ATOM     15  C   UNL     1      16.875  -2.511  23.522  0.00  0.00    -0.013 C 
ATOM     25  C   UNL     1      16.733  -2.025  24.998  0.00  0.00    +0.015 C 
ATOM     26  C   UNL     1      15.442  -2.823  22.991  0.00  0.00    +0.015 C 
ATOM     27  C   UNL     1      17.355  -1.259  22.717  0.00  0.00    +0.015 C 
ENDBRANCH  18  15
ENDBRANCH   5  16
BRANCH  10   7
ATOM      7  C   UNL     1      22.142  -9.758  21.575  0.00  0.00    +0.047 C 
ATOM      8  C   UNL     1      21.970  -9.494  20.065  0.00  0.00    +0.039 C 
ATOM      9  C   UNL     1      23.288  -9.929  19.412  0.00  0.00    +0.097 C 
ATOM     11  C   UNL     1      23.635  -9.785  21.730  0.00  0.00    -0.021 C 
ATOM     12  C   UNL     1      24.254  -9.882  20.549  0.00  0.00    -0.009 C 
BRANCH   9   4
ATOM      1  O   UNL     1      22.276 -10.762  16.836  0.00  0.00    -0.276 OA
ATOM      4  N   UNL     1      23.235 -11.269  18.891  0.00  0.00    -0.309 N 
ATOM     20  C   UNL     1      22.729 -11.575  17.637  0.00  0.00    +0.214 C 
ATOM     31  H   UNL     1      23.550 -12.031  19.487  0.00  0.00    +0.149 HD
BRANCH  20  28
ATOM     28  C   UNL     1      22.798 -13.066  17.356  0.00  0.00    +0.107 C 
BRANCH  28  29
ATOM     29  C   UNL     1      21.975 -13.884  18.345  0.00  0.00    +0.129 C 
BRANCH  29  30
ATOM      3  O   UNL     1      19.715 -13.075  17.949  0.00  0.00    -0.251 OA
ATOM     30  C   UNL     1      20.673 -13.203  18.697  0.00  0.00    +0.305 C 
BRANCH  30   2
ATOM      2  O   UNL     1      20.686 -12.738  19.974  0.00  0.00    -0.481 OA
ATOM     32  H   UNL     1      21.532 -12.290  20.190  0.00  0.00    +0.295 HD
ENDBRANCH  30   2
ENDBRANCH  29  30
ENDBRANCH  28  29
ENDBRANCH  20  28
ENDBRANCH   9   4
ENDBRANCH  10   7
TORSDOF 8
ENDMDL
