MODEL 1
REMARK VINA RESULT:      -6.0      0.000      0.000
REMARK  Name = 7682015
REMARK  5 active torsions:
REMARK  status: ('A' for Active; 'I' for Inactive)
REMARK    1  A    between atoms: N_7  and  C_16
REMARK    2  A    between atoms: N_9  and  C_29
REMARK    3  A    between atoms: C_12  and  C_17
REMARK    4  A    between atoms: C_20  and  C_24
REMARK    5  A    between atoms: C_22  and  C_25
REMARK                            x       y       z     vdW  Elec       q    Type
REMARK                         _______ _______ _______ _____ _____    ______ ____
ROOT
ATOM      2  O   UNL     1      -8.652 -12.887  19.391  0.00  0.00    -0.268 OA
ATOM      4  O   UNL     1      -9.951  -7.235  15.225  0.00  0.00    -0.268 OA
ATOM      5  N   UNL     1      -9.879  -9.176  16.534  0.00  0.00    -0.282 N 
ATOM      6  N   UNL     1      -8.594 -10.734  18.543  0.00  0.00    -0.293 N 
ATOM     12  C   UNL     1      -8.415  -9.165  16.631  0.00  0.00    +0.179 C 
ATOM     13  C   UNL     1      -7.888  -9.561  18.010  0.00  0.00    +0.140 C 
ATOM     14  C   UNL     1     -10.575 -10.316  17.158  0.00  0.00    +0.128 C 
ATOM     15  C   UNL     1     -10.047 -10.596  18.559  0.00  0.00    +0.127 C 
ATOM     20  C   UNL     1      -7.995 -11.928  18.983  0.00  0.00    +0.263 C 
ATOM     22  C   UNL     1     -10.509  -8.195  15.756  0.00  0.00    +0.267 C 
ENDROOT
BRANCH  20  24
ATOM      9  N   UNL     1      -5.826 -12.691  17.988  0.00  0.00    -0.346 N 
ATOM     24  C   UNL     1      -6.540 -12.002  18.935  0.00  0.00    +0.104 A 
ATOM     26  C   UNL     1      -5.640 -11.420  19.800  0.00  0.00    +0.032 A 
ATOM     27  C   UNL     1      -4.485 -12.555  18.236  0.00  0.00    +0.086 A 
ATOM     28  C   UNL     1      -4.340 -11.770  19.358  0.00  0.00    +0.020 A 
ATOM     29  C   UNL     1      -6.386 -13.447  16.889  0.00  0.00    +0.149 C 
ENDBRANCH  20  24
BRANCH  22  25
ATOM     10  N   UNL     1     -12.756  -7.671  16.408  0.00  0.00    -0.247 NA
ATOM     11  N   UNL     1     -13.790  -9.140  14.254  0.00  0.00    -0.259 NA
ATOM     25  C   UNL     1     -11.957  -8.308  15.530  0.00  0.00    +0.144 A 
ATOM     30  C   UNL     1     -12.465  -9.030  14.472  0.00  0.00    +0.143 A 
ATOM     31  C   UNL     1     -14.082  -7.782  16.190  0.00  0.00    +0.131 A 
ATOM     32  C   UNL     1     -14.589  -8.504  15.133  0.00  0.00    +0.130 A 
ENDBRANCH  22  25
BRANCH  12  17
ATOM      1  O   UNL     1      -8.469 -11.168  15.329  0.00  0.00    -0.274 OA
ATOM      7  N   UNL     1      -6.792  -9.604  14.923  0.00  0.00    -0.302 N 
ATOM     17  C   UNL     1      -7.918 -10.094  15.561  0.00  0.00    +0.236 C 
ATOM     33  H   UNL     1      -6.427  -8.695  15.193  0.00  0.00    +0.150 HD
BRANCH   7  16
ATOM      3  O   UNL     1      -4.338 -10.673  15.477  0.00  0.00    -0.274 OA
ATOM      8  N   UNL     1      -3.728 -10.562  13.279  0.00  0.00    -0.314 N 
ATOM     16  C   UNL     1      -6.108 -10.316  13.875  0.00  0.00    +0.159 C 
ATOM     18  C   UNL     1      -6.288  -9.615  12.536  0.00  0.00    +0.033 C 
ATOM     19  C   UNL     1      -5.417 -10.286  11.487  0.00  0.00    +0.021 C 
ATOM     21  C   UNL     1      -3.962 -10.168  11.902  0.00  0.00    +0.104 C 
ATOM     23  C   UNL     1      -4.655 -10.494  14.300  0.00  0.00    +0.233 C 
ATOM     34  H   UNL     1      -2.764 -10.739  13.546  0.00  0.00    +0.149 HD
ENDBRANCH   7  16
ENDBRANCH  12  17
TORSDOF 4
ENDMDL
MODEL 2
REMARK VINA RESULT:      -6.0     25.429     28.899
REMARK  Name = 7682015
REMARK  5 active torsions:
REMARK  status: ('A' for Active; 'I' for Inactive)
REMARK    1  A    between atoms: N_7  and  C_16
REMARK    2  A    between atoms: N_9  and  C_29
REMARK    3  A    between atoms: C_12  and  C_17
REMARK    4  A    between atoms: C_20  and  C_24
REMARK    5  A    between atoms: C_22  and  C_25
REMARK                            x       y       z     vdW  Elec       q    Type
REMARK                         _______ _______ _______ _____ _____    ______ ____
ROOT
ATOM      2  O   UNL     1       9.793   3.953   0.937  0.00  0.00    -0.268 OA
ATOM      4  O   UNL     1      12.473   7.671   6.411  0.00  0.00    -0.268 OA
ATOM      5  N   UNL     1      11.325   6.357   4.849  0.00  0.00    -0.282 N 
ATOM      6  N   UNL     1      11.313   4.913   2.394  0.00  0.00    -0.293 N 
ATOM     12  C   UNL     1      12.117   6.851   3.717  0.00  0.00    +0.179 C 
ATOM     13  C   UNL     1      12.469   5.768   2.696  0.00  0.00    +0.140 C 
ATOM     14  C   UNL     1      10.227   5.425   4.533  0.00  0.00    +0.128 C 
ATOM     15  C   UNL     1      10.680   4.332   3.574  0.00  0.00    +0.127 C 
ATOM     20  C   UNL     1      10.787   4.659   1.115  0.00  0.00    +0.263 C 
ATOM     22  C   UNL     1      11.565   6.893   6.122  0.00  0.00    +0.267 C 
ENDROOT
BRANCH  20  24
ATOM      9  N   UNL     1      12.536   4.727  -0.677  0.00  0.00    -0.346 N 
ATOM     24  C   UNL     1      11.464   5.274  -0.020  0.00  0.00    +0.104 A 
ATOM     26  C   UNL     1      11.169   6.476  -0.624  0.00  0.00    +0.032 A 
ATOM     27  C   UNL     1      12.928   5.561  -1.690  0.00  0.00    +0.086 A 
ATOM     28  C   UNL     1      12.095   6.658  -1.681  0.00  0.00    +0.020 A 
ATOM     29  C   UNL     1      13.167   3.463  -0.362  0.00  0.00    +0.149 C 
ENDBRANCH  20  24
BRANCH  22  25
ATOM     10  N   UNL     1      11.025   5.453   7.961  0.00  0.00    -0.247 NA
ATOM     11  N   UNL     1       8.668   6.886   8.471  0.00  0.00    -0.259 NA
ATOM     25  C   UNL     1      10.662   6.517   7.219  0.00  0.00    +0.144 A 
ATOM     30  C   UNL     1       9.504   7.221   7.469  0.00  0.00    +0.143 A 
ATOM     31  C   UNL     1      10.188   5.118   8.964  0.00  0.00    +0.131 A 
ATOM     32  C   UNL     1       9.031   5.822   9.214  0.00  0.00    +0.130 A 
ENDBRANCH  22  25
BRANCH  12  17
ATOM      1  O   UNL     1      11.722   8.583   2.120  0.00  0.00    -0.274 OA
ATOM      7  N   UNL     1      10.120   8.174   3.760  0.00  0.00    -0.302 N 
ATOM     17  C   UNL     1      11.315   7.957   3.095  0.00  0.00    +0.236 C 
ATOM     33  H   UNL     1       9.881   7.585   4.552  0.00  0.00    +0.150 HD
BRANCH   7  16
ATOM      3  O   UNL     1       9.470  10.089   5.598  0.00  0.00    -0.274 OA
ATOM      8  N   UNL     1       7.442  10.436   4.607  0.00  0.00    -0.314 N 
ATOM     16  C   UNL     1       9.180   9.194   3.375  0.00  0.00    +0.159 C 
ATOM     18  C   UNL     1       8.053   8.606   2.538  0.00  0.00    +0.033 C 
ATOM     19  C   UNL     1       6.989   9.664   2.296  0.00  0.00    +0.021 C 
ATOM     21  C   UNL     1       6.419  10.108   3.631  0.00  0.00    +0.104 C 
ATOM     23  C   UNL     1       8.716   9.906   4.641  0.00  0.00    +0.233 C 
ATOM     34  H   UNL     1       7.143  10.962   5.423  0.00  0.00    +0.149 HD
ENDBRANCH   7  16
ENDBRANCH  12  17
TORSDOF 4
ENDMDL
MODEL 3
REMARK VINA RESULT:      -6.0      2.881      4.862
REMARK  Name = 7682015
REMARK  5 active torsions:
REMARK  status: ('A' for Active; 'I' for Inactive)
REMARK    1  A    between atoms: N_7  and  C_16
REMARK    2  A    between atoms: N_9  and  C_29
REMARK    3  A    between atoms: C_12  and  C_17
REMARK    4  A    between atoms: C_20  and  C_24
REMARK    5  A    between atoms: C_22  and  C_25
REMARK                            x       y       z     vdW  Elec       q    Type
REMARK                         _______ _______ _______ _____ _____    ______ ____
ROOT
ATOM      2  O   UNL     1      -3.714 -13.303  15.614  0.00  0.00    -0.268 OA
ATOM      4  O   UNL     1      -9.026  -8.749  17.033  0.00  0.00    -0.268 OA
ATOM      5  N   UNL     1      -7.479 -10.487  16.765  0.00  0.00    -0.282 N 
ATOM      6  N   UNL     1      -4.843 -11.344  16.107  0.00  0.00    -0.293 N 
ATOM     12  C   UNL     1      -6.727  -9.776  15.724  0.00  0.00    +0.179 C 
ATOM     13  C   UNL     1      -5.211  -9.948  15.837  0.00  0.00    +0.140 C 
ATOM     14  C   UNL     1      -7.033 -11.854  17.087  0.00  0.00    +0.128 C 
ATOM     15  C   UNL     1      -5.522 -11.925  17.262  0.00  0.00    +0.127 C 
ATOM     20  C   UNL     1      -3.954 -12.125  15.347  0.00  0.00    +0.263 C 
ATOM     22  C   UNL     1      -8.635  -9.888  17.286  0.00  0.00    +0.267 C 
ENDROOT
BRANCH  20  24
ATOM      9  N   UNL     1      -2.155 -10.756  14.267  0.00  0.00    -0.346 N 
ATOM     24  C   UNL     1      -3.314 -11.486  14.203  0.00  0.00    +0.104 A 
ATOM     26  C   UNL     1      -3.737 -11.492  12.892  0.00  0.00    +0.032 A 
ATOM     27  C   UNL     1      -1.832 -10.297  13.018  0.00  0.00    +0.086 A 
ATOM     28  C   UNL     1      -2.799 -10.739  12.142  0.00  0.00    +0.020 A 
ATOM     29  C   UNL     1      -1.380 -10.501  15.462  0.00  0.00    +0.149 C 
ENDBRANCH  20  24
BRANCH  22  25
ATOM     10  N   UNL     1     -10.472 -11.384  17.651  0.00  0.00    -0.247 NA
ATOM     11  N   UNL     1     -10.002 -11.386  20.416  0.00  0.00    -0.259 NA
ATOM     25  C   UNL     1      -9.472 -10.671  18.205  0.00  0.00    +0.144 A 
ATOM     30  C   UNL     1      -9.240 -10.672  19.564  0.00  0.00    +0.143 A 
ATOM     31  C   UNL     1     -11.233 -12.098  18.505  0.00  0.00    +0.131 A 
ATOM     32  C   UNL     1     -11.002 -12.098  19.862  0.00  0.00    +0.130 A 
ENDBRANCH  22  25
BRANCH  12  17
ATOM      1  O   UNL     1      -7.834 -11.362  14.321  0.00  0.00    -0.274 OA
ATOM      7  N   UNL     1      -6.954  -9.430  13.364  0.00  0.00    -0.302 N 
ATOM     17  C   UNL     1      -7.244 -10.288  14.411  0.00  0.00    +0.236 C 
ATOM     33  H   UNL     1      -6.468  -8.560  13.558  0.00  0.00    +0.150 HD
BRANCH   7  16
ATOM      3  O   UNL     1      -5.310  -8.522  11.379  0.00  0.00    -0.274 OA
ATOM      8  N   UNL     1      -7.045  -8.444   9.895  0.00  0.00    -0.314 N 
ATOM     16  C   UNL     1      -7.323  -9.702  11.999  0.00  0.00    +0.159 C 
ATOM     18  C   UNL     1      -8.824  -9.547  11.800  0.00  0.00    +0.033 C 
ATOM     19  C   UNL     1      -9.159  -9.666  10.322  0.00  0.00    +0.021 C 
ATOM     21  C   UNL     1      -8.453  -8.557   9.563  0.00  0.00    +0.104 C 
ATOM     23  C   UNL     1      -6.475  -8.811  11.098  0.00  0.00    +0.233 C 
ATOM     34  H   UNL     1      -6.468  -7.899   9.262  0.00  0.00    +0.149 HD
ENDBRANCH   7  16
ENDBRANCH  12  17
TORSDOF 4
ENDMDL
MODEL 4
REMARK VINA RESULT:      -5.9      2.163      5.777
REMARK  Name = 7682015
REMARK  5 active torsions:
REMARK  status: ('A' for Active; 'I' for Inactive)
REMARK    1  A    between atoms: N_7  and  C_16
REMARK    2  A    between atoms: N_9  and  C_29
REMARK    3  A    between atoms: C_12  and  C_17
REMARK    4  A    between atoms: C_20  and  C_24
REMARK    5  A    between atoms: C_22  and  C_25
REMARK                            x       y       z     vdW  Elec       q    Type
REMARK                         _______ _______ _______ _____ _____    ______ ____
ROOT
ATOM      2  O   UNL     1      -4.339 -13.908  14.586  0.00  0.00    -0.268 OA
ATOM      4  O   UNL     1      -7.546 -10.436  19.937  0.00  0.00    -0.268 OA
ATOM      5  N   UNL     1      -6.775 -11.814  18.207  0.00  0.00    -0.282 N 
ATOM      6  N   UNL     1      -4.648 -12.672  16.518  0.00  0.00    -0.293 N 
ATOM     12  C   UNL     1      -5.770 -10.842  17.760  0.00  0.00    +0.179 C 
ATOM     13  C   UNL     1      -4.441 -11.478  17.349  0.00  0.00    +0.140 C 
ATOM     14  C   UNL     1      -6.900 -13.048  17.412  0.00  0.00    +0.128 C 
ATOM     15  C   UNL     1      -5.539 -13.663  17.112  0.00  0.00    +0.127 C 
ATOM     20  C   UNL     1      -4.099 -12.894  15.243  0.00  0.00    +0.263 C 
ATOM     22  C   UNL     1      -7.631 -11.460  19.259  0.00  0.00    +0.267 C 
ENDROOT
BRANCH  20  24
ATOM      9  N   UNL     1      -3.486 -11.121  13.581  0.00  0.00    -0.346 N 
ATOM     24  C   UNL     1      -3.220 -11.862  14.704  0.00  0.00    +0.104 A 
ATOM     26  C   UNL     1      -2.003 -11.452  15.201  0.00  0.00    +0.032 A 
ATOM     27  C   UNL     1      -2.458 -10.245  13.355  0.00  0.00    +0.086 A 
ATOM     28  C   UNL     1      -1.520 -10.429  14.348  0.00  0.00    +0.020 A 
ATOM     29  C   UNL     1      -4.666 -11.234  12.753  0.00  0.00    +0.149 C 
ENDBRANCH  20  24
BRANCH  22  25
ATOM     10  N   UNL     1      -8.433 -13.436  20.353  0.00  0.00    -0.247 NA
ATOM     11  N   UNL     1     -11.043 -12.954  19.446  0.00  0.00    -0.259 NA
ATOM     25  C   UNL     1      -8.738 -12.367  19.593  0.00  0.00    +0.144 A 
ATOM     30  C   UNL     1     -10.020 -12.130  19.147  0.00  0.00    +0.143 A 
ATOM     31  C   UNL     1      -9.457 -14.261  20.651  0.00  0.00    +0.131 A 
ATOM     32  C   UNL     1     -10.738 -14.024  20.206  0.00  0.00    +0.130 A 
ENDBRANCH  22  25
BRANCH  12  17
ATOM      1  O   UNL     1      -5.721  -9.600  15.719  0.00  0.00    -0.274 OA
ATOM      7  N   UNL     1      -7.771  -9.996  16.750  0.00  0.00    -0.302 N 
ATOM     17  C   UNL     1      -6.395 -10.085  16.624  0.00  0.00    +0.236 C 
ATOM     33  H   UNL     1      -8.226 -10.446  17.538  0.00  0.00    +0.150 HD
BRANCH   7  16
ATOM      3  O   UNL     1      -9.588  -8.193  17.708  0.00  0.00    -0.274 OA
ATOM      8  N   UNL     1     -10.931  -8.487  15.883  0.00  0.00    -0.314 N 
ATOM     16  C   UNL     1      -8.604  -9.302  15.803  0.00  0.00    +0.159 C 
ATOM     18  C   UNL     1      -9.055 -10.236  14.688  0.00  0.00    +0.033 C 
ATOM     19  C   UNL     1     -10.068  -9.528  13.805  0.00  0.00    +0.021 C 
ATOM     21  C   UNL     1     -11.278  -9.154  14.642  0.00  0.00    +0.104 C 
ATOM     23  C   UNL     1      -9.746  -8.647  16.573  0.00  0.00    +0.233 C 
ATOM     34  H   UNL     1     -11.680  -8.001  16.366  0.00  0.00    +0.149 HD
ENDBRANCH   7  16
ENDBRANCH  12  17
TORSDOF 4
ENDMDL
MODEL 5
REMARK VINA RESULT:      -5.8     26.332     30.379
REMARK  Name = 7682015
REMARK  5 active torsions:
REMARK  status: ('A' for Active; 'I' for Inactive)
REMARK    1  A    between atoms: N_7  and  C_16
REMARK    2  A    between atoms: N_9  and  C_29
REMARK    3  A    between atoms: C_12  and  C_17
REMARK    4  A    between atoms: C_20  and  C_24
REMARK    5  A    between atoms: C_22  and  C_25
REMARK                            x       y       z     vdW  Elec       q    Type
REMARK                         _______ _______ _______ _____ _____    ______ ____
ROOT
ATOM      2  O   UNL     1      15.045   9.668   1.668  0.00  0.00    -0.268 OA
ATOM      4  O   UNL     1      11.232   3.653   1.160  0.00  0.00    -0.268 OA
ATOM      5  N   UNL     1      12.327   5.717   1.004  0.00  0.00    -0.282 N 
ATOM      6  N   UNL     1      14.446   7.437   1.820  0.00  0.00    -0.293 N 
ATOM     12  C   UNL     1      12.800   5.672   2.392  0.00  0.00    +0.179 C 
ATOM     13  C   UNL     1      14.226   6.195   2.572  0.00  0.00    +0.140 C 
ATOM     14  C   UNL     1      12.641   6.936   0.237  0.00  0.00    +0.128 C 
ATOM     15  C   UNL     1      14.098   7.345   0.405  0.00  0.00    +0.127 C 
ATOM     20  C   UNL     1      14.912   8.652   2.352  0.00  0.00    +0.263 C 
ATOM     22  C   UNL     1      11.507   4.679   0.539  0.00  0.00    +0.267 C 
ENDROOT
BRANCH  20  24
ATOM      9  N   UNL     1      14.396   9.136   4.756  0.00  0.00    -0.346 N 
ATOM     24  C   UNL     1      15.236   8.678   3.774  0.00  0.00    +0.104 A 
ATOM     26  C   UNL     1      16.404   8.265   4.377  0.00  0.00    +0.032 A 
ATOM     27  C   UNL     1      15.010   9.021   5.975  0.00  0.00    +0.086 A 
ATOM     28  C   UNL     1      16.261   8.482   5.770  0.00  0.00    +0.020 A 
ATOM     29  C   UNL     1      13.064   9.662   4.553  0.00  0.00    +0.149 C 
ENDBRANCH  20  24
BRANCH  22  25
ATOM     10  N   UNL     1       9.641   5.275  -0.842  0.00  0.00    -0.247 NA
ATOM     11  N   UNL     1      11.060   4.590  -3.163  0.00  0.00    -0.259 NA
ATOM     25  C   UNL     1      10.905   4.811  -0.795  0.00  0.00    +0.144 A 
ATOM     30  C   UNL     1      11.602   4.474  -1.934  0.00  0.00    +0.143 A 
ATOM     31  C   UNL     1       9.099   5.391  -2.072  0.00  0.00    +0.131 A 
ATOM     32  C   UNL     1       9.796   5.054  -3.210  0.00  0.00    +0.130 A 
ENDBRANCH  22  25
BRANCH  12  17
ATOM      1  O   UNL     1      11.178   7.399   2.704  0.00  0.00    -0.274 OA
ATOM      7  N   UNL     1      11.746   6.045   4.512  0.00  0.00    -0.302 N 
ATOM     17  C   UNL     1      11.814   6.470   3.196  0.00  0.00    +0.236 C 
ATOM     33  H   UNL     1      12.314   5.256   4.807  0.00  0.00    +0.150 HD
BRANCH   7  16
ATOM      3  O   UNL     1      12.791   6.568   6.982  0.00  0.00    -0.274 OA
ATOM      8  N   UNL     1      10.723   6.455   7.946  0.00  0.00    -0.314 N 
ATOM     16  C   UNL     1      10.893   6.661   5.494  0.00  0.00    +0.159 C 
ATOM     18  C   UNL     1       9.485   6.084   5.429  0.00  0.00    +0.033 C 
ATOM     19  C   UNL     1       8.658   6.621   6.585  0.00  0.00    +0.021 C 
ATOM     21  C   UNL     1       9.297   6.191   7.893  0.00  0.00    +0.104 C 
ATOM     23  C   UNL     1      11.566   6.520   6.855  0.00  0.00    +0.233 C 
ATOM     34  H   UNL     1      11.161   6.420   8.862  0.00  0.00    +0.149 HD
ENDBRANCH   7  16
ENDBRANCH  12  17
TORSDOF 4
ENDMDL
MODEL 6
REMARK VINA RESULT:      -5.8     27.424     30.009
REMARK  Name = 7682015
REMARK  5 active torsions:
REMARK  status: ('A' for Active; 'I' for Inactive)
REMARK    1  A    between atoms: N_7  and  C_16
REMARK    2  A    between atoms: N_9  and  C_29
REMARK    3  A    between atoms: C_12  and  C_17
REMARK    4  A    between atoms: C_20  and  C_24
REMARK    5  A    between atoms: C_22  and  C_25
REMARK                            x       y       z     vdW  Elec       q    Type
REMARK                         _______ _______ _______ _____ _____    ______ ____
ROOT
ATOM      2  O   UNL     1      11.071   6.796  -1.873  0.00  0.00    -0.268 OA
ATOM      4  O   UNL     1      10.430   4.371   4.811  0.00  0.00    -0.268 OA
ATOM      5  N   UNL     1      10.699   5.496   2.775  0.00  0.00    -0.282 N 
ATOM      6  N   UNL     1      10.332   5.578  -0.049  0.00  0.00    -0.293 N 
ATOM     12  C   UNL     1      10.788   4.254   1.998  0.00  0.00    +0.179 C 
ATOM     13  C   UNL     1      10.060   4.317   0.654  0.00  0.00    +0.140 C 
ATOM     14  C   UNL     1      10.881   6.755   2.031  0.00  0.00    +0.128 C 
ATOM     15  C   UNL     1      10.063   6.772   0.747  0.00  0.00    +0.127 C 
ATOM     20  C   UNL     1      10.838   5.703  -1.355  0.00  0.00    +0.263 C 
ATOM     22  C   UNL     1      10.583   5.409   4.169  0.00  0.00    +0.267 C 
ENDROOT
BRANCH  20  24
ATOM      9  N   UNL     1      10.253   3.950  -3.047  0.00  0.00    -0.346 N 
ATOM     24  C   UNL     1      11.090   4.471  -2.094  0.00  0.00    +0.104 A 
ATOM     26  C   UNL     1      12.173   3.628  -1.977  0.00  0.00    +0.032 A 
ATOM     27  C   UNL     1      10.787   2.789  -3.541  0.00  0.00    +0.086 A 
ATOM     28  C   UNL     1      11.982   2.563  -2.893  0.00  0.00    +0.020 A 
ATOM     29  C   UNL     1       8.998   4.526  -3.478  0.00  0.00    +0.149 C 
ENDBRANCH  20  24
BRANCH  22  25
ATOM     10  N   UNL     1       9.512   7.341   5.101  0.00  0.00    -0.247 NA
ATOM     11  N   UNL     1      11.929   8.214   6.226  0.00  0.00    -0.259 NA
ATOM     25  C   UNL     1      10.659   6.650   4.953  0.00  0.00    +0.144 A 
ATOM     30  C   UNL     1      11.846   7.078   5.506  0.00  0.00    +0.143 A 
ATOM     31  C   UNL     1       9.595   8.478   5.822  0.00  0.00    +0.131 A 
ATOM     32  C   UNL     1      10.782   8.906   6.374  0.00  0.00    +0.130 A 
ENDBRANCH  22  25
BRANCH  12  17
ATOM      1  O   UNL     1      12.708   2.836   1.890  0.00  0.00    -0.274 OA
ATOM      7  N   UNL     1      12.982   5.130   1.603  0.00  0.00    -0.302 N 
ATOM     17  C   UNL     1      12.252   3.975   1.821  0.00  0.00    +0.236 C 
ATOM     33  H   UNL     1      12.496   6.021   1.555  0.00  0.00    +0.150 HD
BRANCH   7  16
ATOM      3  O   UNL     1      14.466   6.836   3.139  0.00  0.00    -0.274 OA
ATOM      8  N   UNL     1      16.119   6.910   1.565  0.00  0.00    -0.314 N 
ATOM     16  C   UNL     1      14.411   5.137   1.426  0.00  0.00    +0.159 C 
ATOM     18  C   UNL     1      14.776   5.012  -0.047  0.00  0.00    +0.033 C 
ATOM     19  C   UNL     1      16.274   5.198  -0.220  0.00  0.00    +0.021 C 
ATOM     21  C   UNL     1      16.660   6.586   0.258  0.00  0.00    +0.104 C 
ATOM     23  C   UNL     1      14.963   6.385   2.105  0.00  0.00    +0.233 C 
ATOM     34  H   UNL     1      16.528   7.707   2.044  0.00  0.00    +0.149 HD
ENDBRANCH   7  16
ENDBRANCH  12  17
TORSDOF 4
ENDMDL
MODEL 7
REMARK VINA RESULT:      -5.7      2.877      4.475
REMARK  Name = 7682015
REMARK  5 active torsions:
REMARK  status: ('A' for Active; 'I' for Inactive)
REMARK    1  A    between atoms: N_7  and  C_16
REMARK    2  A    between atoms: N_9  and  C_29
REMARK    3  A    between atoms: C_12  and  C_17
REMARK    4  A    between atoms: C_20  and  C_24
REMARK    5  A    between atoms: C_22  and  C_25
REMARK                            x       y       z     vdW  Elec       q    Type
REMARK                         _______ _______ _______ _____ _____    ______ ____
ROOT
ATOM      2  O   UNL     1     -13.678 -13.295  18.365  0.00  0.00    -0.268 OA
ATOM      4  O   UNL     1     -10.679  -6.931  17.150  0.00  0.00    -0.268 OA
ATOM      5  N   UNL     1     -11.836  -8.966  17.226  0.00  0.00    -0.282 N 
ATOM      6  N   UNL     1     -12.795 -11.187  18.730  0.00  0.00    -0.293 N 
ATOM     12  C   UNL     1     -11.037  -9.480  18.345  0.00  0.00    +0.179 C 
ATOM     13  C   UNL     1     -11.855 -10.261  19.375  0.00  0.00    +0.140 C 
ATOM     14  C   UNL     1     -12.840  -9.880  16.654  0.00  0.00    +0.128 C 
ATOM     15  C   UNL     1     -13.665 -10.557  17.741  0.00  0.00    +0.127 C 
ATOM     20  C   UNL     1     -12.884 -12.570  18.966  0.00  0.00    +0.263 C 
ATOM     22  C   UNL     1     -11.513  -7.711  16.691  0.00  0.00    +0.267 C 
ENDROOT
BRANCH  20  24
ATOM      9  N   UNL     1     -12.278 -13.268  21.295  0.00  0.00    -0.346 N 
ATOM     24  C   UNL     1     -11.982 -13.137  19.962  0.00  0.00    +0.104 A 
ATOM     26  C   UNL     1     -10.711 -13.627  19.763  0.00  0.00    +0.032 A 
ATOM     27  C   UNL     1     -11.215 -13.834  21.947  0.00  0.00    +0.086 A 
ATOM     28  C   UNL     1     -10.225 -14.069  21.019  0.00  0.00    +0.020 A 
ATOM     29  C   UNL     1     -13.517 -12.874  21.929  0.00  0.00    +0.149 C 
ENDBRANCH  20  24
BRANCH  22  25
ATOM     10  N   UNL     1     -13.311  -6.523  15.642  0.00  0.00    -0.247 NA
ATOM     11  N   UNL     1     -12.370  -7.224  13.094  0.00  0.00    -0.259 NA
ATOM     25  C   UNL     1     -12.206  -7.274  15.471  0.00  0.00    +0.144 A 
ATOM     30  C   UNL     1     -11.743  -7.618  14.220  0.00  0.00    +0.143 A 
ATOM     31  C   UNL     1     -13.939  -6.129  14.515  0.00  0.00    +0.131 A 
ATOM     32  C   UNL     1     -13.476  -6.473  13.265  0.00  0.00    +0.130 A 
ENDBRANCH  22  25
BRANCH  12  17
ATOM      1  O   UNL     1     -10.224 -11.294  17.019  0.00  0.00    -0.274 OA
ATOM      7  N   UNL     1      -8.693  -9.909  18.095  0.00  0.00    -0.302 N 
ATOM     17  C   UNL     1      -9.961 -10.331  17.734  0.00  0.00    +0.236 C 
ATOM     33  H   UNL     1      -8.594  -9.089  18.686  0.00  0.00    +0.150 HD
BRANCH   7  16
ATOM      3  O   UNL     1      -6.917 -10.740  19.998  0.00  0.00    -0.274 OA
ATOM      8  N   UNL     1      -5.179 -10.606  18.521  0.00  0.00    -0.314 N 
ATOM     16  C   UNL     1      -7.491 -10.570  17.660  0.00  0.00    +0.159 C 
ATOM     18  C   UNL     1      -6.929  -9.909  16.409  0.00  0.00    +0.033 C 
ATOM     19  C   UNL     1      -5.574 -10.511  16.076  0.00  0.00    +0.021 C 
ATOM     21  C   UNL     1      -4.620 -10.255  17.229  0.00  0.00    +0.104 C 
ATOM     23  C   UNL     1      -6.523 -10.608  18.838  0.00  0.00    +0.233 C 
ATOM     34  H   UNL     1      -4.526 -10.689  19.294  0.00  0.00    +0.149 HD
ENDBRANCH   7  16
ENDBRANCH  12  17
TORSDOF 4
ENDMDL
MODEL 8
REMARK VINA RESULT:      -5.5      2.564      8.307
REMARK  Name = 7682015
REMARK  5 active torsions:
REMARK  status: ('A' for Active; 'I' for Inactive)
REMARK    1  A    between atoms: N_7  and  C_16
REMARK    2  A    between atoms: N_9  and  C_29
REMARK    3  A    between atoms: C_12  and  C_17
REMARK    4  A    between atoms: C_20  and  C_24
REMARK    5  A    between atoms: C_22  and  C_25
REMARK                            x       y       z     vdW  Elec       q    Type
REMARK                         _______ _______ _______ _____ _____    ______ ____
ROOT
ATOM      2  O   UNL     1     -11.351  -8.924  13.480  0.00  0.00    -0.268 OA
ATOM      4  O   UNL     1      -6.955  -9.927  19.016  0.00  0.00    -0.268 OA
ATOM      5  N   UNL     1      -8.152  -9.797  17.007  0.00  0.00    -0.282 N 
ATOM      6  N   UNL     1     -10.156  -8.534  15.423  0.00  0.00    -0.293 N 
ATOM     12  C   UNL     1      -9.356  -9.263  17.655  0.00  0.00    +0.179 C 
ATOM     13  C   UNL     1     -10.058  -8.173  16.844  0.00  0.00    +0.140 C 
ATOM     14  C   UNL     1      -8.243 -10.064  15.560  0.00  0.00    +0.128 C 
ATOM     15  C   UNL     1      -8.880  -8.899  14.814  0.00  0.00    +0.127 C 
ATOM     20  C   UNL     1     -11.338  -8.581  14.663  0.00  0.00    +0.263 C 
ATOM     22  C   UNL     1      -7.054 -10.140  17.808  0.00  0.00    +0.267 C 
ENDROOT
BRANCH  20  24
ATOM      9  N   UNL     1     -13.111  -6.947  15.342  0.00  0.00    -0.346 N 
ATOM     24  C   UNL     1     -12.578  -8.210  15.334  0.00  0.00    +0.104 A 
ATOM     26  C   UNL     1     -13.417  -9.026  16.061  0.00  0.00    +0.032 A 
ATOM     27  C   UNL     1     -14.276  -6.944  16.062  0.00  0.00    +0.086 A 
ATOM     28  C   UNL     1     -14.492  -8.225  16.521  0.00  0.00    +0.020 A 
ATOM     29  C   UNL     1     -12.543  -5.784  14.694  0.00  0.00    +0.149 C 
ENDBRANCH  20  24
BRANCH  22  25
ATOM     10  N   UNL     1      -4.923 -10.041  16.714  0.00  0.00    -0.247 NA
ATOM     11  N   UNL     1      -4.841 -12.835  16.486  0.00  0.00    -0.259 NA
ATOM     25  C   UNL     1      -5.917 -10.824  17.176  0.00  0.00    +0.144 A 
ATOM     30  C   UNL     1      -5.877 -12.197  17.063  0.00  0.00    +0.143 A 
ATOM     31  C   UNL     1      -3.886 -10.680  16.136  0.00  0.00    +0.131 A 
ATOM     32  C   UNL     1      -3.846 -12.052  16.024  0.00  0.00    +0.130 A 
ENDBRANCH  22  25
BRANCH  12  17
ATOM      1  O   UNL     1     -10.641 -11.161  16.979  0.00  0.00    -0.274 OA
ATOM      7  N   UNL     1     -10.598 -10.572  19.232  0.00  0.00    -0.302 N 
ATOM     17  C   UNL     1     -10.258 -10.439  17.897  0.00  0.00    +0.236 C 
ATOM     33  H   UNL     1     -10.212  -9.919  19.908  0.00  0.00    +0.150 HD
BRANCH   7  16
ATOM      3  O   UNL     1     -13.019  -9.838  20.266  0.00  0.00    -0.274 OA
ATOM      8  N   UNL     1     -13.093 -11.707  21.577  0.00  0.00    -0.314 N 
ATOM     16  C   UNL     1     -11.470 -11.607  19.722  0.00  0.00    +0.159 C 
ATOM     18  C   UNL     1     -10.680 -12.678  20.462  0.00  0.00    +0.033 C 
ATOM     19  C   UNL     1     -11.638 -13.660  21.116  0.00  0.00    +0.021 C 
ATOM     21  C   UNL     1     -12.502 -12.917  22.119  0.00  0.00    +0.104 C 
ATOM     23  C   UNL     1     -12.563 -10.946  20.555  0.00  0.00    +0.233 C 
ATOM     34  H   UNL     1     -13.861 -11.299  22.102  0.00  0.00    +0.149 HD
ENDBRANCH   7  16
ENDBRANCH  12  17
TORSDOF 4
ENDMDL
MODEL 9
REMARK VINA RESULT:      -5.5     28.491     30.283
REMARK  Name = 7682015
REMARK  5 active torsions:
REMARK  status: ('A' for Active; 'I' for Inactive)
REMARK    1  A    between atoms: N_7  and  C_16
REMARK    2  A    between atoms: N_9  and  C_29
REMARK    3  A    between atoms: C_12  and  C_17
REMARK    4  A    between atoms: C_20  and  C_24
REMARK    5  A    between atoms: C_22  and  C_25
REMARK                            x       y       z     vdW  Elec       q    Type
REMARK                         _______ _______ _______ _____ _____    ______ ____
ROOT
ATOM      2  O   UNL     1      -7.290  11.452  33.949  0.00  0.00    -0.268 OA
ATOM      4  O   UNL     1      -1.044  12.784  37.140  0.00  0.00    -0.268 OA
ATOM      5  N   UNL     1      -2.919  12.436  35.780  0.00  0.00    -0.282 N 
ATOM      6  N   UNL     1      -5.741  12.153  35.519  0.00  0.00    -0.293 N 
ATOM     12  C   UNL     1      -3.680  11.773  36.845  0.00  0.00    +0.179 C 
ATOM     13  C   UNL     1      -5.161  12.153  36.868  0.00  0.00    +0.140 C 
ATOM     14  C   UNL     1      -3.560  12.508  34.455  0.00  0.00    +0.128 C 
ATOM     15  C   UNL     1      -5.008  12.970  34.557  0.00  0.00    +0.127 C 
ATOM     20  C   UNL     1      -6.875  11.430  35.108  0.00  0.00    +0.263 C 
ATOM     22  C   UNL     1      -1.600  12.834  36.043  0.00  0.00    +0.267 C 
ENDROOT
BRANCH  20  24
ATOM      9  N   UNL     1      -8.498  11.114  36.991  0.00  0.00    -0.346 N 
ATOM     24  C   UNL     1      -7.558  10.629  36.117  0.00  0.00    +0.104 A 
ATOM     26  C   UNL     1      -7.394   9.287  36.377  0.00  0.00    +0.032 A 
ATOM     27  C   UNL     1      -8.936  10.101  37.802  0.00  0.00    +0.086 A 
ATOM     28  C   UNL     1      -8.266   8.952  37.443  0.00  0.00    +0.020 A 
ATOM     29  C   UNL     1      -8.967  12.481  37.057  0.00  0.00    +0.149 C 
ENDBRANCH  20  24
BRANCH  22  25
ATOM     10  N   UNL     1       0.047  12.471  34.340  0.00  0.00    -0.247 NA
ATOM     11  N   UNL     1      -0.151  15.138  33.494  0.00  0.00    -0.259 NA
ATOM     25  C   UNL     1      -0.791  13.346  34.929  0.00  0.00    +0.144 A 
ATOM     30  C   UNL     1      -0.888  14.656  34.514  0.00  0.00    +0.143 A 
ATOM     31  C   UNL     1       0.785  12.953  33.320  0.00  0.00    +0.131 A 
ATOM     32  C   UNL     1       0.687  14.263  32.905  0.00  0.00    +0.130 A 
ENDBRANCH  22  25
BRANCH  12  17
ATOM      1  O   UNL     1      -4.141   9.672  35.805  0.00  0.00    -0.274 OA
ATOM      7  N   UNL     1      -2.544   9.766  37.496  0.00  0.00    -0.302 N 
ATOM     17  C   UNL     1      -3.491  10.298  36.638  0.00  0.00    +0.236 C 
ATOM     33  H   UNL     1      -2.059  10.383  38.141  0.00  0.00    +0.150 HD
BRANCH   7  16
ATOM      3  O   UNL     1      -3.826   8.138  39.277  0.00  0.00    -0.274 OA
ATOM      8  N   UNL     1      -2.062   6.688  39.313  0.00  0.00    -0.314 N 
ATOM     16  C   UNL     1      -2.194   8.370  37.514  0.00  0.00    +0.159 C 
ATOM     18  C   UNL     1      -0.693   8.183  37.339  0.00  0.00    +0.033 C 
ATOM     19  C   UNL     1      -0.333   6.720  37.537  0.00  0.00    +0.021 C 
ATOM     21  C   UNL     1      -0.711   6.303  38.947  0.00  0.00    +0.104 C 
ATOM     23  C   UNL     1      -2.757   7.762  38.794  0.00  0.00    +0.233 C 
ATOM     34  H   UNL     1      -2.459   6.238  40.133  0.00  0.00    +0.149 HD
ENDBRANCH   7  16
ENDBRANCH  12  17
TORSDOF 4
ENDMDL
MODEL 10
REMARK VINA RESULT:      -5.5     26.969     30.498
REMARK  Name = 7682015
REMARK  5 active torsions:
REMARK  status: ('A' for Active; 'I' for Inactive)
REMARK    1  A    between atoms: N_7  and  C_16
REMARK    2  A    between atoms: N_9  and  C_29
REMARK    3  A    between atoms: C_12  and  C_17
REMARK    4  A    between atoms: C_20  and  C_24
REMARK    5  A    between atoms: C_22  and  C_25
REMARK                            x       y       z     vdW  Elec       q    Type
REMARK                         _______ _______ _______ _____ _____    ______ ____
ROOT
ATOM      2  O   UNL     1      12.294   8.489   3.892  0.00  0.00    -0.268 OA
ATOM      4  O   UNL     1      12.748   2.843  -0.453  0.00  0.00    -0.268 OA
ATOM      5  N   UNL     1      12.879   4.833   0.774  0.00  0.00    -0.282 N 
ATOM      6  N   UNL     1      12.271   6.302   3.138  0.00  0.00    -0.293 N 
ATOM     12  C   UNL     1      11.606   4.596   1.465  0.00  0.00    +0.179 C 
ATOM     13  C   UNL     1      11.624   4.998   2.940  0.00  0.00    +0.140 C 
ATOM     14  C   UNL     1      13.559   6.109   1.060  0.00  0.00    +0.128 C 
ATOM     15  C   UNL     1      13.605   6.398   2.555  0.00  0.00    +0.127 C 
ATOM     20  C   UNL     1      11.705   7.413   3.788  0.00  0.00    +0.263 C 
ATOM     22  C   UNL     1      13.299   3.914  -0.197  0.00  0.00    +0.267 C 
ENDROOT
BRANCH  20  24
ATOM      9  N   UNL     1      10.095   6.721   5.579  0.00  0.00    -0.346 N 
ATOM     24  C   UNL     1      10.367   7.252   4.344  0.00  0.00    +0.104 A 
ATOM     26  C   UNL     1       9.167   7.587   3.756  0.00  0.00    +0.032 A 
ATOM     27  C   UNL     1       8.741   6.713   5.788  0.00  0.00    +0.086 A 
ATOM     28  C   UNL     1       8.138   7.246   4.669  0.00  0.00    +0.020 A 
ATOM     29  C   UNL     1      11.075   6.240   6.528  0.00  0.00    +0.149 C 
ENDBRANCH  20  24
BRANCH  22  25
ATOM     10  N   UNL     1      15.682   4.067  -0.402  0.00  0.00    -0.247 NA
ATOM     11  N   UNL     1      15.458   4.999  -3.038  0.00  0.00    -0.259 NA
ATOM     25  C   UNL     1      14.486   4.239  -0.999  0.00  0.00    +0.144 A 
ATOM     30  C   UNL     1      14.376   4.697  -2.293  0.00  0.00    +0.143 A 
ATOM     31  C   UNL     1      16.764   4.369  -1.147  0.00  0.00    +0.131 A 
ATOM     32  C   UNL     1      16.653   4.827  -2.441  0.00  0.00    +0.130 A 
ENDBRANCH  22  25
BRANCH  12  17
ATOM      1  O   UNL     1       9.805   6.151   1.248  0.00  0.00    -0.274 OA
ATOM      7  N   UNL     1      10.569   5.039  -0.650  0.00  0.00    -0.302 N 
ATOM     17  C   UNL     1      10.565   5.359   0.697  0.00  0.00    +0.236 C 
ATOM     33  H   UNL     1      11.254   4.374  -0.998  0.00  0.00    +0.150 HD
BRANCH   7  16
ATOM      3  O   UNL     1       9.688   3.474  -2.709  0.00  0.00    -0.274 OA
ATOM      8  N   UNL     1       9.318   5.306  -4.022  0.00  0.00    -0.314 N 
ATOM     16  C   UNL     1       9.654   5.617  -1.598  0.00  0.00    +0.159 C 
ATOM     18  C   UNL     1      10.037   7.055  -1.918  0.00  0.00    +0.033 C 
ATOM     19  C   UNL     1       9.163   7.579  -3.046  0.00  0.00    +0.021 C 
ATOM     21  C   UNL     1       9.393   6.732  -4.284  0.00  0.00    +0.104 C 
ATOM     23  C   UNL     1       9.596   4.698  -2.814  0.00  0.00    +0.233 C 
ATOM     34  H   UNL     1       9.220   4.698  -4.829  0.00  0.00    +0.149 HD
ENDBRANCH   7  16
ENDBRANCH  12  17
TORSDOF 4
ENDMDL
