REMARK  Name = 11882003
REMARK  15 active torsions:
REMARK  status: ('A' for Active; 'I' for Inactive)
REMARK    1  A    between atoms: S_1  and  C_25
REMARK    2  A    between atoms: S_1  and  C_29
REMARK    3  A    between atoms: O_2  and  C_13
REMARK    4  A    between atoms: O_3  and  C_15
REMARK    5  A    between atoms: N_9  and  C_14
REMARK    6  A    between atoms: N_10  and  C_23
REMARK    7  A    between atoms: N_11  and  C_19
REMARK    8  A    between atoms: C_17  and  C_20
REMARK    9  A    between atoms: C_19  and  C_21
REMARK   10  A    between atoms: C_19  and  C_22
REMARK   11  A    between atoms: C_22  and  C_26
REMARK   12  A    between atoms: C_22  and  C_27
REMARK   13  A    between atoms: C_23  and  C_24
REMARK   14  A    between atoms: C_23  and  C_28
REMARK   15  A    between atoms: C_24  and  C_25
REMARK                            x       y       z     vdW  Elec       q    Type
REMARK                         _______ _______ _______ _____ _____    ______ ____
ROOT
ATOM     13  C   UNL     1      -1.983   1.648   0.591  0.00  0.00    +0.167 C 
ATOM     14  C   UNL     1      -2.151   0.884  -0.734  0.00  0.00    +0.127 C 
ATOM     15  C   UNL     1      -1.383   0.756   1.685  0.00  0.00    +0.149 C 
ATOM     16  C   UNL     1      -0.032   0.173   1.246  0.00  0.00    +0.074 C 
ATOM     17  C   UNL     1       0.011  -0.235  -0.194  0.00  0.00    +0.015 C 
ATOM     18  C   UNL     1      -0.938   0.071  -1.091  0.00  0.00    +0.006 C 
ENDROOT
BRANCH  17  20
ATOM      4  O   UNL     1       1.031  -1.838  -1.575  0.00  0.00    -0.271 OA
ATOM     10  N   UNL     1       2.317  -0.755   0.040  0.00  0.00    -0.300 N 
ATOM     20  C   UNL     1       1.153  -1.027  -0.658  0.00  0.00    +0.241 C 
ATOM     33  H   UNL     1       2.324  -0.086   0.800  0.00  0.00    +0.150 HD
BRANCH  10  23
ATOM     23  C   UNL     1       3.574  -1.414  -0.235  0.00  0.00    +0.160 C 
BRANCH  23  28
ATOM      8  O   UNL     1       3.100  -2.813   1.694  0.00  0.00    -0.274 OA
ATOM     12  N   UNL     1       4.213  -3.742  -0.087  0.00  0.00    -0.328 N 
ATOM     28  C   UNL     1       3.604  -2.700   0.579  0.00  0.00    +0.231 C 
ATOM     36  H   UNL     1       4.622  -3.635  -1.010  0.00  0.00    +0.145 HD
ATOM     37  H   UNL     1       4.286  -4.660   0.338  0.00  0.00    +0.145 HD
ENDBRANCH  23  28
BRANCH  23  24
ATOM     24  C   UNL     1       4.774  -0.530   0.113  0.00  0.00    +0.054 C 
BRANCH  24  25
ATOM     25  C   UNL     1       4.805   0.754  -0.706  0.00  0.00    +0.168 C 
BRANCH  25   1
ATOM      1  S   UNL     1       6.213   1.739  -0.301  0.00  0.00    -0.034 S 
ATOM      6  O   UNL     1       6.093   2.155   1.086  0.00  0.00    -0.175 OA
ATOM      7  O   UNL     1       7.402   1.044  -0.764  0.00  0.00    -0.175 OA
ATOM     29  C   UNL     1       6.008   3.185  -1.315  0.00  0.00    +0.194 C 
ENDBRANCH  25   1
ENDBRANCH  24  25
ENDBRANCH  23  24
ENDBRANCH  10  23
ENDBRANCH  17  20
BRANCH  14   9
ATOM      5  O   UNL     1      -4.875   1.494  -1.433  0.00  0.00    -0.274 OA
ATOM      9  N   UNL     1      -3.279  -0.020  -0.700  0.00  0.00    -0.305 N 
ATOM     21  C   UNL     1      -4.563   0.365  -1.057  0.00  0.00    +0.231 C 
ATOM     30  H   UNL     1      -3.126  -0.966  -0.360  0.00  0.00    +0.149 HD
BRANCH  21  19
ATOM     19  C   UNL     1      -5.574  -0.773  -0.923  0.00  0.00    +0.140 C 
BRANCH  19  11
ATOM     11  N   UNL     1      -6.562  -0.593  -1.990  0.00  0.00    -0.320 NA
ATOM     34  H   UNL     1      -7.288  -1.303  -1.907  0.00  0.00    +0.119 HD
ATOM     35  H   UNL     1      -7.032   0.306  -1.891  0.00  0.00    +0.119 HD
ENDBRANCH  19  11
BRANCH  19  22
ATOM     22  C   UNL     1      -6.249  -0.827   0.468  0.00  0.00    +0.009 C 
ATOM     26  C   UNL     1      -7.061   0.426   0.816  0.00  0.00    +0.009 C 
ATOM     27  C   UNL     1      -5.236  -1.112   1.581  0.00  0.00    +0.009 C 
ENDBRANCH  19  22
ENDBRANCH  21  19
ENDBRANCH  14   9
BRANCH  13   2
ATOM      2  O   UNL     1      -3.247   2.164   0.999  0.00  0.00    -0.387 OA
ATOM     31  H   UNL     1      -3.117   2.607   1.855  0.00  0.00    +0.210 HD
ENDBRANCH  13   2
BRANCH  15   3
ATOM      3  O   UNL     1      -1.163   1.522   2.868  0.00  0.00    -0.389 OA
ATOM     32  H   UNL     1      -0.793   0.923   3.539  0.00  0.00    +0.210 HD
ENDBRANCH  15   3
TORSDOF 12
