REMARK  Name = 7662948
REMARK  7 active torsions:
REMARK  status: ('A' for Active; 'I' for Inactive)
REMARK    1  A    between atoms: S_1  and  C_22
REMARK    2  A    between atoms: S_1  and  C_28
REMARK    3  A    between atoms: O_4  and  C_30
REMARK    4  A    between atoms: C_16  and  C_21
REMARK    5  A    between atoms: C_18  and  C_22
REMARK    6  A    between atoms: C_25  and  C_29
REMARK    7  A    between atoms: C_28  and  C_30
REMARK                            x       y       z     vdW  Elec       q    Type
REMARK                         _______ _______ _______ _____ _____    ______ ____
ROOT
ATOM      2  O   UNL     1       3.636  -0.618   2.695  0.00  0.00    -0.268 OA
ATOM      3  O   UNL     1       2.495   3.049  -0.910  0.00  0.00    -0.275 OA
ATOM      6  N   UNL     1       1.786   0.967  -1.659  0.00  0.00    -0.300 N 
ATOM      7  N   UNL     1       2.411  -1.027   0.741  0.00  0.00    -0.311 N 
ATOM      9  C   UNL     1       3.487  -0.850  -1.579  0.00  0.00    +0.027 C 
ATOM     10  C   UNL     1       1.103  -1.409  -1.372  0.00  0.00    +0.054 C 
ATOM     11  C   UNL     1       2.426  -1.859  -1.989  0.00  0.00    +0.018 C 
ATOM     12  C   UNL     1       3.126   0.558  -2.080  0.00  0.00    +0.113 C 
ATOM     13  C   UNL     1       3.637  -0.894  -0.057  0.00  0.00    +0.130 C 
ATOM     14  C   UNL     1       0.728  -0.016  -1.920  0.00  0.00    +0.117 C 
ATOM     15  C   UNL     1       1.176  -1.374   0.157  0.00  0.00    +0.034 A 
ATOM     16  C   UNL     1       0.103  -1.635   0.949  0.00  0.00    +0.002 A 
ATOM     17  C   UNL     1       2.579  -0.904   2.132  0.00  0.00    +0.252 A 
ATOM     18  C   UNL     1       1.589   2.239  -1.121  0.00  0.00    +0.225 C 
ATOM     19  C   UNL     1       0.238  -1.514   2.388  0.00  0.00    +0.015 A 
ATOM     20  C   UNL     1       1.384  -1.159   2.968  0.00  0.00    +0.071 A 
ENDROOT
BRANCH  16  21
ATOM     21  C   UNL     1      -1.208  -2.021   0.382  0.00  0.00    -0.015 A 
ATOM     23  C   UNL     1      -2.134  -1.037   0.049  0.00  0.00    +0.027 A 
ATOM     24  C   UNL     1      -1.506  -3.366   0.186  0.00  0.00    +0.008 A 
ATOM     25  C   UNL     1      -3.370  -1.402  -0.485  0.00  0.00    +0.052 A 
ATOM     26  C   UNL     1      -2.742  -3.731  -0.348  0.00  0.00    +0.002 A 
ATOM     27  C   UNL     1      -3.674  -2.749  -0.684  0.00  0.00    +0.019 A 
BRANCH  25  29
ATOM      8  N   UNL     1      -5.104   0.420  -1.107  0.00  0.00    -0.191 NA
ATOM     29  C   UNL     1      -4.326  -0.397  -0.829  0.00  0.00    +0.099 C 
ENDBRANCH  25  29
ENDBRANCH  16  21
BRANCH  18  22
ATOM     22  C   UNL     1       0.170   2.615  -0.778  0.00  0.00    +0.165 C 
BRANCH  22   1
ATOM      1  S   UNL     1       0.194   4.282  -0.103  0.00  0.00    -0.140 S 
BRANCH   1  28
ATOM     28  C   UNL     1      -1.577   4.480   0.215  0.00  0.00    +0.189 C 
BRANCH  28  30
ATOM      5  O   UNL     1      -1.585   3.293   2.312  0.00  0.00    -0.250 OA
ATOM     30  C   UNL     1      -2.032   3.424   1.180  0.00  0.00    +0.315 C 
BRANCH  30   4
ATOM      4  O   UNL     1      -3.009   2.633   0.668  0.00  0.00    -0.480 OA
ATOM     31  H   UNL     1      -3.301   1.951   1.310  0.00  0.00    +0.295 HD
ENDBRANCH  30   4
ENDBRANCH  28  30
ENDBRANCH   1  28
ENDBRANCH  22   1
ENDBRANCH  18  22
TORSDOF 7
