REMARK  Name = 11882607
REMARK  14 active torsions:
REMARK  status: ('A' for Active; 'I' for Inactive)
REMARK    1  A    between atoms: O_6  and  C_35
REMARK    2  A    between atoms: O_6  and  C_37
REMARK    3  A    between atoms: N_8  and  C_12
REMARK    4  A    between atoms: N_9  and  C_21
REMARK    5  A    between atoms: N_10  and  C_19
REMARK    6  A    between atoms: N_10  and  C_27
REMARK    7  A    between atoms: C_13  and  C_17
REMARK    8  A    between atoms: C_18  and  C_19
REMARK    9  A    between atoms: C_19  and  C_22
REMARK   10  A    between atoms: C_20  and  C_24
REMARK   11  A    between atoms: C_21  and  C_23
REMARK   12  A    between atoms: C_21  and  C_25
REMARK   13  A    between atoms: C_23  and  C_26
REMARK   14  A    between atoms: C_24  and  C_28
REMARK                            x       y       z     vdW  Elec       q    Type
REMARK                         _______ _______ _______ _____ _____    ______ ____
ROOT
ATOM      3  O   UNL     1       2.262   4.165  -0.840  0.00  0.00    -0.274 OA
ATOM      7  N   UNL     1       0.628   2.529  -0.571  0.00  0.00    -0.289 N 
ATOM     12  C   UNL     1      -2.160   1.724  -0.891  0.00  0.00    +0.077 C 
ATOM     13  C   UNL     1       0.185   1.253   0.015  0.00  0.00    +0.164 C 
ATOM     14  C   UNL     1      -1.322   1.201   0.278  0.00  0.00    +0.054 C 
ATOM     15  C   UNL     1      -1.665   3.103  -1.323  0.00  0.00    +0.041 C 
ATOM     16  C   UNL     1      -0.183   3.063  -1.671  0.00  0.00    +0.110 C 
ATOM     18  C   UNL     1       1.831   3.169  -0.252  0.00  0.00    +0.233 C 
ENDROOT
BRANCH  13  17
ATOM      2  O   UNL     1       1.214   0.415  -1.972  0.00  0.00    -0.274 OA
ATOM      9  N   UNL     1       0.290  -1.094  -0.459  0.00  0.00    -0.302 N 
ATOM     17  C   UNL     1       0.632   0.166  -0.919  0.00  0.00    +0.234 C 
ATOM     39  H   UNL     1      -0.169  -1.195   0.441  0.00  0.00    +0.150 HD
BRANCH   9  21
ATOM     21  C   UNL     1       0.587  -2.308  -1.185  0.00  0.00    +0.163 C 
BRANCH  21  25
ATOM      5  O   UNL     1      -1.742  -2.908  -0.831  0.00  0.00    -0.274 OA
ATOM     11  N   UNL     1      -0.731  -3.538  -2.795  0.00  0.00    -0.328 N 
ATOM     25  C   UNL     1      -0.745  -2.949  -1.548  0.00  0.00    +0.231 C 
ATOM     41  H   UNL     1      -1.560  -3.989  -3.167  0.00  0.00    +0.145 HD
ATOM     42  H   UNL     1       0.099  -3.561  -3.379  0.00  0.00    +0.145 HD
ENDBRANCH  21  25
BRANCH  21  23
ATOM     23  C   UNL     1       1.440  -3.280  -0.363  0.00  0.00    +0.067 C 
BRANCH  23  26
ATOM     26  C   UNL     1       2.765  -2.687   0.052  0.00  0.00    -0.045 A 
ATOM     29  C   UNL     1       3.882  -2.828  -0.771  0.00  0.00    +0.007 A 
ATOM     30  C   UNL     1       2.872  -1.998   1.260  0.00  0.00    +0.007 A 
ATOM     32  C   UNL     1       5.105  -2.279  -0.387  0.00  0.00    +0.046 A 
ATOM     33  C   UNL     1       4.095  -1.449   1.644  0.00  0.00    +0.046 A 
ATOM     35  C   UNL     1       5.212  -1.590   0.821  0.00  0.00    +0.120 A 
BRANCH  35   6
ATOM      6  O   UNL     1       6.406  -1.054   1.195  0.00  0.00    -0.495 OA
ATOM     37  C   UNL     1       6.444  -0.362   2.442  0.00  0.00    +0.277 C 
ENDBRANCH  35   6
ENDBRANCH  23  26
ENDBRANCH  21  23
ENDBRANCH   9  21
ENDBRANCH  13  17
BRANCH  12   8
ATOM      4  O   UNL     1      -4.093  -0.385  -1.205  0.00  0.00    -0.275 OA
ATOM      8  N   UNL     1      -3.559   1.774  -0.538  0.00  0.00    -0.312 N 
ATOM     20  C   UNL     1      -4.416   0.702  -0.727  0.00  0.00    +0.218 C 
ATOM     38  H   UNL     1      -3.902   2.610  -0.074  0.00  0.00    +0.149 HD
BRANCH  20  24
ATOM     24  C   UNL     1      -5.832   0.984  -0.265  0.00  0.00    +0.138 C 
BRANCH  24  28
ATOM      1  S   UNL     1      -7.509  -1.056   0.603  0.00  0.00    -0.101 S 
ATOM     28  C   UNL     1      -6.194   0.018   0.829  0.00  0.00    -0.001 A 
ATOM     31  C   UNL     1      -5.597  -0.147   2.059  0.00  0.00    +0.011 A 
ATOM     34  C   UNL     1      -6.227  -1.169   2.826  0.00  0.00    +0.008 A 
ATOM     36  C   UNL     1      -7.282  -1.746   2.154  0.00  0.00    +0.045 A 
ENDBRANCH  24  28
ENDBRANCH  20  24
ENDBRANCH  12   8
BRANCH  18  19
ATOM     19  C   UNL     1       2.625   2.592   0.894  0.00  0.00    +0.137 C 
ATOM     22  C   UNL     1       2.211   3.251   2.194  0.00  0.00    +0.034 C 
BRANCH  19  10
ATOM     10  N   UNL     1       4.026   2.844   0.603  0.00  0.00    -0.309 NA
ATOM     27  C   UNL     1       4.545   1.876  -0.356  0.00  0.00    +0.101 C 
ATOM     40  H   UNL     1       4.571   2.765   1.462  0.00  0.00    +0.122 HD
ENDBRANCH  19  10
ENDBRANCH  18  19
TORSDOF 11
