MODEL 1
REMARK VINA RESULT:      -7.4      0.000      0.000
REMARK  Name = 71693844
REMARK  6 active torsions:
REMARK  status: ('A' for Active; 'I' for Inactive)
REMARK    1  A    between atoms: O_1  and  C_8
REMARK    2  A    between atoms: O_2  and  C_10
REMARK    3  A    between atoms: N_4  and  C_7
REMARK    4  A    between atoms: C_6  and  C_11
REMARK    5  A    between atoms: C_14  and  C_18
REMARK    6  A    between atoms: C_15  and  C_19
REMARK                            x       y       z     vdW  Elec       q    Type
REMARK                         _______ _______ _______ _____ _____    ______ ____
ROOT
ATOM      6  C   UNL     1      14.106   9.025  19.007  0.00  0.00    +0.044 C 
ATOM      7  C   UNL     1      12.839   8.799  19.862  0.00  0.00    +0.112 C 
ATOM      8  C   UNL     1      11.698   8.993  18.864  0.00  0.00    +0.164 C 
ATOM      9  C   UNL     1      13.684   8.744  17.542  0.00  0.00    +0.044 C 
ATOM     10  C   UNL     1      12.220   8.312  17.605  0.00  0.00    +0.145 C 
ENDROOT
BRANCH   6  11
ATOM     11  C   UNL     1      15.292   8.211  19.481  0.00  0.00    -0.042 A 
ATOM     12  C   UNL     1      16.214   8.770  20.366  0.00  0.00    +0.007 A 
ATOM     13  C   UNL     1      15.463   6.901  19.033  0.00  0.00    +0.004 A 
ATOM     15  C   UNL     1      17.305   8.020  20.803  0.00  0.00    -0.050 A 
ATOM     16  C   UNL     1      16.555   6.151  19.469  0.00  0.00    +0.001 A 
ATOM     17  C   UNL     1      17.477   6.711  20.355  0.00  0.00    +0.003 A 
ATOM     19  C   UNL     1      18.291   8.619  21.749  0.00  0.00    +0.044 C 
ENDBRANCH   6  11
BRANCH   7   4
ATOM      3  O   UNL     1      11.311   8.472  22.271  0.00  0.00    -0.270 OA
ATOM      4  N   UNL     1      12.756   9.727  20.961  0.00  0.00    -0.305 N 
ATOM     14  C   UNL     1      11.986   9.482  22.090  0.00  0.00    +0.246 C 
ATOM     24  H   UNL     1      13.278  10.593  20.874  0.00  0.00    +0.149 HD
BRANCH  14  18
ATOM      5  N   UNL     1      10.799  11.748  24.854  0.00  0.00    -0.263 NA
ATOM     18  C   UNL     1      11.986  10.549  23.123  0.00  0.00    +0.055 A 
ATOM     20  C   UNL     1      13.112  11.334  23.342  0.00  0.00    +0.016 A 
ATOM     21  C   UNL     1      10.864  10.794  23.898  0.00  0.00    +0.123 A 
ATOM     22  C   UNL     1      13.083  12.326  24.317  0.00  0.00    +0.020 A 
ATOM     23  C   UNL     1      11.913  12.490  25.039  0.00  0.00    +0.111 A 
ENDBRANCH  14  18
ENDBRANCH   7   4
BRANCH   8   1
ATOM      1  O   UNL     1      10.492   8.398  19.305  0.00  0.00    -0.387 OA
ATOM     25  H   UNL     1       9.959   9.093  19.724  0.00  0.00    +0.210 HD
ENDBRANCH   8   1
BRANCH  10   2
ATOM      2  O   UNL     1      12.167   6.894  17.732  0.00  0.00    -0.389 OA
ATOM     26  H   UNL     1      11.881   6.534  16.876  0.00  0.00    +0.210 HD
ENDBRANCH  10   2
TORSDOF 5
ENDMDL
MODEL 2
REMARK VINA RESULT:      -7.2      2.729      6.255
REMARK  Name = 71693844
REMARK  6 active torsions:
REMARK  status: ('A' for Active; 'I' for Inactive)
REMARK    1  A    between atoms: O_1  and  C_8
REMARK    2  A    between atoms: O_2  and  C_10
REMARK    3  A    between atoms: N_4  and  C_7
REMARK    4  A    between atoms: C_6  and  C_11
REMARK    5  A    between atoms: C_14  and  C_18
REMARK    6  A    between atoms: C_15  and  C_19
REMARK                            x       y       z     vdW  Elec       q    Type
REMARK                         _______ _______ _______ _____ _____    ______ ____
ROOT
ATOM      6  C   UNL     1      13.002   9.216  20.151  0.00  0.00    +0.044 C 
ATOM      7  C   UNL     1      13.199   7.719  20.484  0.00  0.00    +0.112 C 
ATOM      8  C   UNL     1      12.361   7.522  21.746  0.00  0.00    +0.164 C 
ATOM      9  C   UNL     1      11.667   9.626  20.826  0.00  0.00    +0.044 C 
ATOM     10  C   UNL     1      11.115   8.354  21.467  0.00  0.00    +0.145 C 
ENDROOT
BRANCH   6  11
ATOM     11  C   UNL     1      13.064   9.505  18.666  0.00  0.00    -0.042 A 
ATOM     12  C   UNL     1      11.999   9.146  17.840  0.00  0.00    +0.007 A 
ATOM     13  C   UNL     1      14.188  10.130  18.124  0.00  0.00    +0.004 A 
ATOM     15  C   UNL     1      12.057   9.414  16.472  0.00  0.00    -0.050 A 
ATOM     16  C   UNL     1      14.245  10.396  16.756  0.00  0.00    +0.001 A 
ATOM     17  C   UNL     1      13.180  10.038  15.930  0.00  0.00    +0.003 A 
ATOM     19  C   UNL     1      10.918   9.030  15.588  0.00  0.00    +0.044 C 
ENDBRANCH   6  11
BRANCH   7   4
ATOM      3  O   UNL     1      15.056   6.726  18.531  0.00  0.00    -0.270 OA
ATOM      4  N   UNL     1      14.585   7.393  20.702  0.00  0.00    -0.305 N 
ATOM     14  C   UNL     1      15.410   6.916  19.692  0.00  0.00    +0.246 C 
ATOM     24  H   UNL     1      14.944   7.511  21.644  0.00  0.00    +0.149 HD
BRANCH  14  18
ATOM      5  N   UNL     1      18.857   5.400  19.641  0.00  0.00    -0.263 NA
ATOM     18  C   UNL     1      16.807   6.601  20.085  0.00  0.00    +0.055 A 
ATOM     20  C   UNL     1      17.381   7.177  21.214  0.00  0.00    +0.016 A 
ATOM     21  C   UNL     1      17.581   5.727  19.339  0.00  0.00    +0.123 A 
ATOM     22  C   UNL     1      18.692   6.866  21.557  0.00  0.00    +0.020 A 
ATOM     23  C   UNL     1      19.381   5.980  20.744  0.00  0.00    +0.111 A 
ENDBRANCH  14  18
ENDBRANCH   7   4
BRANCH   8   1
ATOM      1  O   UNL     1      12.029   6.163  21.964  0.00  0.00    -0.387 OA
ATOM     25  H   UNL     1      12.854   5.651  21.920  0.00  0.00    +0.210 HD
ENDBRANCH   8   1
BRANCH  10   2
ATOM      2  O   UNL     1      10.264   7.702  20.529  0.00  0.00    -0.389 OA
ATOM     26  H   UNL     1       9.689   7.097  21.027  0.00  0.00    +0.210 HD
ENDBRANCH  10   2
TORSDOF 5
ENDMDL
MODEL 3
REMARK VINA RESULT:      -7.2      2.515      6.367
REMARK  Name = 71693844
REMARK  6 active torsions:
REMARK  status: ('A' for Active; 'I' for Inactive)
REMARK    1  A    between atoms: O_1  and  C_8
REMARK    2  A    between atoms: O_2  and  C_10
REMARK    3  A    between atoms: N_4  and  C_7
REMARK    4  A    between atoms: C_6  and  C_11
REMARK    5  A    between atoms: C_14  and  C_18
REMARK    6  A    between atoms: C_15  and  C_19
REMARK                            x       y       z     vdW  Elec       q    Type
REMARK                         _______ _______ _______ _____ _____    ______ ____
ROOT
ATOM      6  C   UNL     1      12.644   8.708  22.062  0.00  0.00    +0.044 C 
ATOM      7  C   UNL     1      13.030   7.852  20.835  0.00  0.00    +0.112 C 
ATOM      8  C   UNL     1      12.065   6.669  20.908  0.00  0.00    +0.164 C 
ATOM      9  C   UNL     1      11.179   8.326  22.400  0.00  0.00    +0.044 C 
ATOM     10  C   UNL     1      10.754   7.319  21.333  0.00  0.00    +0.145 C 
ENDROOT
BRANCH   6  11
ATOM     11  C   UNL     1      12.868  10.190  21.844  0.00  0.00    -0.042 A 
ATOM     12  C   UNL     1      11.783  11.067  21.841  0.00  0.00    +0.007 A 
ATOM     13  C   UNL     1      14.160  10.678  21.647  0.00  0.00    +0.004 A 
ATOM     15  C   UNL     1      11.990  12.432  21.641  0.00  0.00    -0.050 A 
ATOM     16  C   UNL     1      14.366  12.043  21.446  0.00  0.00    +0.001 A 
ATOM     17  C   UNL     1      13.281  12.920  21.443  0.00  0.00    +0.003 A 
ATOM     19  C   UNL     1      10.830  13.369  21.637  0.00  0.00    +0.044 C 
ENDBRANCH   6  11
BRANCH   7   4
ATOM      3  O   UNL     1      14.699   7.184  18.596  0.00  0.00    -0.270 OA
ATOM      4  N   UNL     1      14.406   7.427  20.884  0.00  0.00    -0.305 N 
ATOM     14  C   UNL     1      15.136   7.123  19.743  0.00  0.00    +0.246 C 
ATOM     24  H   UNL     1      14.829   7.340  21.802  0.00  0.00    +0.149 HD
BRANCH  14  18
ATOM      5  N   UNL     1      18.424   5.361  19.223  0.00  0.00    -0.263 NA
ATOM     18  C   UNL     1      16.534   6.674  19.964  0.00  0.00    +0.055 A 
ATOM     20  C   UNL     1      17.263   7.114  21.064  0.00  0.00    +0.016 A 
ATOM     21  C   UNL     1      17.155   5.806  19.081  0.00  0.00    +0.123 A 
ATOM     22  C   UNL     1      18.571   6.679  21.245  0.00  0.00    +0.020 A 
ATOM     23  C   UNL     1      19.100   5.811  20.304  0.00  0.00    +0.111 A 
ENDBRANCH  14  18
ENDBRANCH   7   4
BRANCH   8   1
ATOM      1  O   UNL     1      11.928   6.010  19.663  0.00  0.00    -0.387 OA
ATOM     25  H   UNL     1      12.158   6.649  18.968  0.00  0.00    +0.210 HD
ENDBRANCH   8   1
BRANCH  10   2
ATOM      2  O   UNL     1      10.159   8.027  20.249  0.00  0.00    -0.389 OA
ATOM     26  H   UNL     1      10.812   8.672  19.927  0.00  0.00    +0.210 HD
ENDBRANCH  10   2
TORSDOF 5
ENDMDL
MODEL 4
REMARK VINA RESULT:      -6.5     26.286     28.136
REMARK  Name = 71693844
REMARK  6 active torsions:
REMARK  status: ('A' for Active; 'I' for Inactive)
REMARK    1  A    between atoms: O_1  and  C_8
REMARK    2  A    between atoms: O_2  and  C_10
REMARK    3  A    between atoms: N_4  and  C_7
REMARK    4  A    between atoms: C_6  and  C_11
REMARK    5  A    between atoms: C_14  and  C_18
REMARK    6  A    between atoms: C_15  and  C_19
REMARK                            x       y       z     vdW  Elec       q    Type
REMARK                         _______ _______ _______ _____ _____    ______ ____
ROOT
ATOM      6  C   UNL     1      -3.661 -12.843  12.390  0.00  0.00    +0.044 C 
ATOM      7  C   UNL     1      -3.145 -13.122  13.820  0.00  0.00    +0.112 C 
ATOM      8  C   UNL     1      -3.103 -14.648  13.892  0.00  0.00    +0.164 C 
ATOM      9  C   UNL     1      -3.323 -14.111  11.564  0.00  0.00    +0.044 C 
ATOM     10  C   UNL     1      -2.578 -15.044  12.517  0.00  0.00    +0.145 C 
ENDROOT
BRANCH   6  11
ATOM     11  C   UNL     1      -3.118 -11.555  11.806  0.00  0.00    -0.042 A 
ATOM     12  C   UNL     1      -3.840 -10.875  10.825  0.00  0.00    +0.007 A 
ATOM     13  C   UNL     1      -1.896 -11.049  12.249  0.00  0.00    +0.004 A 
ATOM     15  C   UNL     1      -3.341  -9.689  10.288  0.00  0.00    -0.050 A 
ATOM     16  C   UNL     1      -1.396  -9.864  11.711  0.00  0.00    +0.001 A 
ATOM     17  C   UNL     1      -2.119  -9.183  10.730  0.00  0.00    +0.003 A 
ATOM     19  C   UNL     1      -4.113  -8.962   9.239  0.00  0.00    +0.044 C 
ENDBRANCH   6  11
BRANCH   7   4
ATOM      3  O   UNL     1      -2.463 -11.082  15.721  0.00  0.00    -0.270 OA
ATOM      4  N   UNL     1      -4.009 -12.560  14.825  0.00  0.00    -0.305 N 
ATOM     14  C   UNL     1      -3.589 -11.572  15.706  0.00  0.00    +0.246 C 
ATOM     24  H   UNL     1      -4.953 -12.928  14.881  0.00  0.00    +0.149 HD
BRANCH  14  18
ATOM      5  N   UNL     1      -6.620  -9.887  17.177  0.00  0.00    -0.263 NA
ATOM     18  C   UNL     1      -4.593 -11.116  16.701  0.00  0.00    +0.055 A 
ATOM     20  C   UNL     1      -4.480 -11.462  18.043  0.00  0.00    +0.016 A 
ATOM     21  C   UNL     1      -5.672 -10.334  16.322  0.00  0.00    +0.123 A 
ATOM     22  C   UNL     1      -5.435 -11.022  18.952  0.00  0.00    +0.020 A 
ATOM     23  C   UNL     1      -6.476 -10.244  18.472  0.00  0.00    +0.111 A 
ENDBRANCH  14  18
ENDBRANCH   7   4
BRANCH   8   1
ATOM      1  O   UNL     1      -2.248 -15.114  14.918  0.00  0.00    -0.387 OA
ATOM     25  H   UNL     1      -2.780 -15.670  15.512  0.00  0.00    +0.210 HD
ENDBRANCH   8   1
BRANCH  10   2
ATOM      2  O   UNL     1      -1.182 -14.787  12.409  0.00  0.00    -0.389 OA
ATOM     26  H   UNL     1      -1.008 -13.929  12.831  0.00  0.00    +0.210 HD
ENDBRANCH  10   2
TORSDOF 5
ENDMDL
MODEL 5
REMARK VINA RESULT:      -6.5      1.939      2.309
REMARK  Name = 71693844
REMARK  6 active torsions:
REMARK  status: ('A' for Active; 'I' for Inactive)
REMARK    1  A    between atoms: O_1  and  C_8
REMARK    2  A    between atoms: O_2  and  C_10
REMARK    3  A    between atoms: N_4  and  C_7
REMARK    4  A    between atoms: C_6  and  C_11
REMARK    5  A    between atoms: C_14  and  C_18
REMARK    6  A    between atoms: C_15  and  C_19
REMARK                            x       y       z     vdW  Elec       q    Type
REMARK                         _______ _______ _______ _____ _____    ______ ____
ROOT
ATOM      6  C   UNL     1      13.872   9.021  19.191  0.00  0.00    +0.044 C 
ATOM      7  C   UNL     1      12.651   9.168  20.126  0.00  0.00    +0.112 C 
ATOM      8  C   UNL     1      11.506   8.562  19.313  0.00  0.00    +0.164 C 
ATOM      9  C   UNL     1      13.523   7.866  18.217  0.00  0.00    +0.044 C 
ATOM     10  C   UNL     1      12.154   7.350  18.655  0.00  0.00    +0.145 C 
ENDROOT
BRANCH   6  11
ATOM     11  C   UNL     1      15.173   8.832  19.942  0.00  0.00    -0.042 A 
ATOM     12  C   UNL     1      15.902   7.653  19.791  0.00  0.00    +0.007 A 
ATOM     13  C   UNL     1      15.643   9.838  20.787  0.00  0.00    +0.004 A 
ATOM     15  C   UNL     1      17.101   7.479  20.482  0.00  0.00    -0.050 A 
ATOM     16  C   UNL     1      16.841   9.664  21.480  0.00  0.00    +0.001 A 
ATOM     17  C   UNL     1      17.570   8.484  21.328  0.00  0.00    +0.003 A 
ATOM     19  C   UNL     1      17.880   6.218  20.320  0.00  0.00    +0.044 C 
ENDBRANCH   6  11
BRANCH   7   4
ATOM      3  O   UNL     1      11.108  10.120  22.352  0.00  0.00    -0.270 OA
ATOM      4  N   UNL     1      12.396  10.543  20.470  0.00  0.00    -0.305 N 
ATOM     14  C   UNL     1      11.633  10.910  21.571  0.00  0.00    +0.246 C 
ATOM     24  H   UNL     1      12.788  11.252  19.859  0.00  0.00    +0.149 HD
BRANCH  14  18
ATOM      5  N   UNL     1      10.683  14.174  23.192  0.00  0.00    -0.263 NA
ATOM     18  C   UNL     1      11.442  12.368  21.775  0.00  0.00    +0.055 A 
ATOM     20  C   UNL     1      11.820  13.284  20.799  0.00  0.00    +0.016 A 
ATOM     21  C   UNL     1      10.883  12.860  22.944  0.00  0.00    +0.123 A 
ATOM     22  C   UNL     1      11.630  14.644  21.019  0.00  0.00    +0.020 A 
ATOM     23  C   UNL     1      11.063  15.033  22.221  0.00  0.00    +0.111 A 
ENDBRANCH  14  18
ENDBRANCH   7   4
BRANCH   8   1
ATOM      1  O   UNL     1      10.414   8.179  20.128  0.00  0.00    -0.387 OA
ATOM     25  H   UNL     1       9.629   8.129  19.558  0.00  0.00    +0.210 HD
ENDBRANCH   8   1
BRANCH  10   2
ATOM      2  O   UNL     1      12.342   6.297  19.596  0.00  0.00    -0.389 OA
ATOM     26  H   UNL     1      11.488   6.137  20.031  0.00  0.00    +0.210 HD
ENDBRANCH  10   2
TORSDOF 5
ENDMDL
MODEL 6
REMARK VINA RESULT:      -6.3     14.341     16.559
REMARK  Name = 71693844
REMARK  6 active torsions:
REMARK  status: ('A' for Active; 'I' for Inactive)
REMARK    1  A    between atoms: O_1  and  C_8
REMARK    2  A    between atoms: O_2  and  C_10
REMARK    3  A    between atoms: N_4  and  C_7
REMARK    4  A    between atoms: C_6  and  C_11
REMARK    5  A    between atoms: C_14  and  C_18
REMARK    6  A    between atoms: C_15  and  C_19
REMARK                            x       y       z     vdW  Elec       q    Type
REMARK                         _______ _______ _______ _____ _____    ______ ____
ROOT
ATOM      6  C   UNL     1      10.069   6.409   5.098  0.00  0.00    +0.044 C 
ATOM      7  C   UNL     1      11.304   6.293   6.020  0.00  0.00    +0.112 C 
ATOM      8  C   UNL     1      10.698   5.966   7.386  0.00  0.00    +0.164 C 
ATOM      9  C   UNL     1       8.947   5.592   5.790  0.00  0.00    +0.044 C 
ATOM     10  C   UNL     1       9.580   4.990   7.043  0.00  0.00    +0.145 C 
ENDROOT
BRANCH   6  11
ATOM     11  C   UNL     1      10.355   5.990   3.671  0.00  0.00    -0.042 A 
ATOM     12  C   UNL     1      11.212   4.920   3.416  0.00  0.00    +0.007 A 
ATOM     13  C   UNL     1       9.762   6.677   2.611  0.00  0.00    +0.004 A 
ATOM     15  C   UNL     1      11.475   4.535   2.102  0.00  0.00    -0.050 A 
ATOM     16  C   UNL     1      10.026   6.292   1.297  0.00  0.00    +0.001 A 
ATOM     17  C   UNL     1      10.882   5.220   1.042  0.00  0.00    +0.003 A 
ATOM     19  C   UNL     1      12.391   3.390   1.829  0.00  0.00    +0.044 C 
ENDBRANCH   6  11
BRANCH   7   4
ATOM      3  O   UNL     1      13.969   6.615   7.039  0.00  0.00    -0.270 OA
ATOM      4  N   UNL     1      12.071   7.512   6.051  0.00  0.00    -0.305 N 
ATOM     14  C   UNL     1      13.359   7.571   6.566  0.00  0.00    +0.246 C 
ATOM     24  H   UNL     1      11.624   8.347   5.689  0.00  0.00    +0.149 HD
BRANCH  14  18
ATOM      5  N   UNL     1      13.825  11.296   6.880  0.00  0.00    -0.263 NA
ATOM     18  C   UNL     1      14.007   8.908   6.549  0.00  0.00    +0.055 A 
ATOM     20  C   UNL     1      15.347   9.051   6.206  0.00  0.00    +0.016 A 
ATOM     21  C   UNL     1      13.296  10.052   6.875  0.00  0.00    +0.123 A 
ATOM     22  C   UNL     1      15.927  10.314   6.200  0.00  0.00    +0.020 A 
ATOM     23  C   UNL     1      15.130  11.394   6.542  0.00  0.00    +0.111 A 
ENDBRANCH  14  18
ENDBRANCH   7   4
BRANCH   8   1
ATOM      1  O   UNL     1      11.640   5.377   8.263  0.00  0.00    -0.387 OA
ATOM     25  H   UNL     1      11.158   4.757   8.835  0.00  0.00    +0.210 HD
ENDBRANCH   8   1
BRANCH  10   2
ATOM      2  O   UNL     1      10.104   3.706   6.717  0.00  0.00    -0.389 OA
ATOM     26  H   UNL     1       9.816   3.493   5.814  0.00  0.00    +0.210 HD
ENDBRANCH  10   2
TORSDOF 5
ENDMDL
MODEL 7
REMARK VINA RESULT:      -6.2     16.135     20.018
REMARK  Name = 71693844
REMARK  6 active torsions:
REMARK  status: ('A' for Active; 'I' for Inactive)
REMARK    1  A    between atoms: O_1  and  C_8
REMARK    2  A    between atoms: O_2  and  C_10
REMARK    3  A    between atoms: N_4  and  C_7
REMARK    4  A    between atoms: C_6  and  C_11
REMARK    5  A    between atoms: C_14  and  C_18
REMARK    6  A    between atoms: C_15  and  C_19
REMARK                            x       y       z     vdW  Elec       q    Type
REMARK                         _______ _______ _______ _____ _____    ______ ____
ROOT
ATOM      6  C   UNL     1      11.826   7.337   3.313  0.00  0.00    +0.044 C 
ATOM      7  C   UNL     1      12.663   6.115   2.874  0.00  0.00    +0.112 C 
ATOM      8  C   UNL     1      14.087   6.667   2.802  0.00  0.00    +0.164 C 
ATOM      9  C   UNL     1      12.817   8.297   4.020  0.00  0.00    +0.044 C 
ATOM     10  C   UNL     1      14.166   7.579   4.019  0.00  0.00    +0.145 C 
ENDROOT
BRANCH   6  11
ATOM     11  C   UNL     1      10.620   6.959   4.148  0.00  0.00    -0.042 A 
ATOM     12  C   UNL     1      10.772   6.123   5.254  0.00  0.00    +0.007 A 
ATOM     13  C   UNL     1       9.357   7.448   3.811  0.00  0.00    +0.004 A 
ATOM     15  C   UNL     1       9.661   5.776   6.024  0.00  0.00    -0.050 A 
ATOM     16  C   UNL     1       8.247   7.100   4.580  0.00  0.00    +0.001 A 
ATOM     17  C   UNL     1       8.399   6.264   5.687  0.00  0.00    +0.003 A 
ATOM     19  C   UNL     1       9.824   4.882   7.206  0.00  0.00    +0.044 C 
ENDBRANCH   6  11
BRANCH   7   4
ATOM      3  O   UNL     1      13.084   3.452   1.888  0.00  0.00    -0.270 OA
ATOM      4  N   UNL     1      12.226   5.588   1.606  0.00  0.00    -0.305 N 
ATOM     14  C   UNL     1      12.478   4.280   1.213  0.00  0.00    +0.246 C 
ATOM     24  H   UNL     1      11.730   6.222   0.989  0.00  0.00    +0.149 HD
BRANCH  14  18
ATOM      5  N   UNL     1      10.289   4.098  -1.846  0.00  0.00    -0.263 NA
ATOM     18  C   UNL     1      11.984   3.898  -0.134  0.00  0.00    +0.055 A 
ATOM     20  C   UNL     1      12.703   3.021  -0.939  0.00  0.00    +0.016 A 
ATOM     21  C   UNL     1      10.793   4.404  -0.630  0.00  0.00    +0.123 A 
ATOM     22  C   UNL     1      12.217   2.682  -2.197  0.00  0.00    +0.020 A 
ATOM     23  C   UNL     1      11.016   3.243  -2.600  0.00  0.00    +0.111 A 
ENDBRANCH  14  18
ENDBRANCH   7   4
BRANCH   8   1
ATOM      1  O   UNL     1      15.062   5.644   2.866  0.00  0.00    -0.387 OA
ATOM     25  H   UNL     1      15.363   5.470   1.958  0.00  0.00    +0.210 HD
ENDBRANCH   8   1
BRANCH  10   2
ATOM      2  O   UNL     1      14.280   6.821   5.220  0.00  0.00    -0.389 OA
ATOM     26  H   UNL     1      13.759   6.009   5.104  0.00  0.00    +0.210 HD
ENDBRANCH  10   2
TORSDOF 5
ENDMDL
MODEL 8
REMARK VINA RESULT:      -6.0      2.390      4.324
REMARK  Name = 71693844
REMARK  6 active torsions:
REMARK  status: ('A' for Active; 'I' for Inactive)
REMARK    1  A    between atoms: O_1  and  C_8
REMARK    2  A    between atoms: O_2  and  C_10
REMARK    3  A    between atoms: N_4  and  C_7
REMARK    4  A    between atoms: C_6  and  C_11
REMARK    5  A    between atoms: C_14  and  C_18
REMARK    6  A    between atoms: C_15  and  C_19
REMARK                            x       y       z     vdW  Elec       q    Type
REMARK                         _______ _______ _______ _____ _____    ______ ____
ROOT
ATOM      6  C   UNL     1      13.347   8.075  19.983  0.00  0.00    +0.044 C 
ATOM      7  C   UNL     1      13.993   9.047  20.996  0.00  0.00    +0.112 C 
ATOM      8  C   UNL     1      14.724   8.117  21.965  0.00  0.00    +0.164 C 
ATOM      9  C   UNL     1      14.188   6.773  20.052  0.00  0.00    +0.044 C 
ATOM     10  C   UNL     1      15.313   7.055  21.045  0.00  0.00    +0.145 C 
ENDROOT
BRANCH   6  11
ATOM     11  C   UNL     1      13.222   8.665  18.594  0.00  0.00    -0.042 A 
ATOM     12  C   UNL     1      12.022   8.550  17.893  0.00  0.00    +0.007 A 
ATOM     13  C   UNL     1      14.308   9.322  18.016  0.00  0.00    +0.004 A 
ATOM     15  C   UNL     1      11.907   9.095  16.614  0.00  0.00    -0.050 A 
ATOM     16  C   UNL     1      14.193   9.865  16.737  0.00  0.00    +0.001 A 
ATOM     17  C   UNL     1      12.992   9.752  16.035  0.00  0.00    +0.003 A 
ATOM     19  C   UNL     1      10.624   8.972  15.863  0.00  0.00    +0.044 C 
ENDBRANCH   6  11
BRANCH   7   4
ATOM      3  O   UNL     1      13.885  11.915  21.052  0.00  0.00    -0.270 OA
ATOM      4  N   UNL     1      13.010   9.858  21.668  0.00  0.00    -0.305 N 
ATOM     14  C   UNL     1      13.040  11.246  21.640  0.00  0.00    +0.246 C 
ATOM     24  H   UNL     1      12.288   9.371  22.189  0.00  0.00    +0.149 HD
BRANCH  14  18
ATOM      5  N   UNL     1      10.504  11.980  24.326  0.00  0.00    -0.263 NA
ATOM     18  C   UNL     1      11.970  11.937  22.405  0.00  0.00    +0.055 A 
ATOM     20  C   UNL     1      11.436  13.142  21.962  0.00  0.00    +0.016 A 
ATOM     21  C   UNL     1      11.474  11.402  23.583  0.00  0.00    +0.123 A 
ATOM     22  C   UNL     1      10.437  13.767  22.699  0.00  0.00    +0.020 A 
ATOM     23  C   UNL     1      10.010  13.150  23.864  0.00  0.00    +0.111 A 
ENDBRANCH  14  18
ENDBRANCH   7   4
BRANCH   8   1
ATOM      1  O   UNL     1      15.740   8.787  22.688  0.00  0.00    -0.387 OA
ATOM     25  H   UNL     1      16.125   8.148  23.310  0.00  0.00    +0.210 HD
ENDBRANCH   8   1
BRANCH  10   2
ATOM      2  O   UNL     1      16.436   7.563  20.331  0.00  0.00    -0.389 OA
ATOM     26  H   UNL     1      17.228   7.384  20.864  0.00  0.00    +0.210 HD
ENDBRANCH  10   2
TORSDOF 5
ENDMDL
MODEL 9
REMARK VINA RESULT:      -6.0     26.698     28.545
REMARK  Name = 71693844
REMARK  6 active torsions:
REMARK  status: ('A' for Active; 'I' for Inactive)
REMARK    1  A    between atoms: O_1  and  C_8
REMARK    2  A    between atoms: O_2  and  C_10
REMARK    3  A    between atoms: N_4  and  C_7
REMARK    4  A    between atoms: C_6  and  C_11
REMARK    5  A    between atoms: C_14  and  C_18
REMARK    6  A    between atoms: C_15  and  C_19
REMARK                            x       y       z     vdW  Elec       q    Type
REMARK                         _______ _______ _______ _____ _____    ______ ____
ROOT
ATOM      6  C   UNL     1      -4.925 -12.545  15.484  0.00  0.00    +0.044 C 
ATOM      7  C   UNL     1      -5.755 -12.022  16.677  0.00  0.00    +0.112 C 
ATOM      8  C   UNL     1      -6.327 -13.297  17.299  0.00  0.00    +0.164 C 
ATOM      9  C   UNL     1      -4.579 -14.019  15.823  0.00  0.00    +0.044 C 
ATOM     10  C   UNL     1      -5.162 -14.276  17.211  0.00  0.00    +0.145 C 
ENDROOT
BRANCH   6  11
ATOM     11  C   UNL     1      -3.723 -11.678  15.174  0.00  0.00    -0.042 A 
ATOM     12  C   UNL     1      -3.377 -11.412  13.850  0.00  0.00    +0.007 A 
ATOM     13  C   UNL     1      -2.961 -11.145  16.215  0.00  0.00    +0.004 A 
ATOM     15  C   UNL     1      -2.270 -10.612  13.565  0.00  0.00    -0.050 A 
ATOM     16  C   UNL     1      -1.854 -10.346  15.929  0.00  0.00    +0.001 A 
ATOM     17  C   UNL     1      -1.508 -10.079  14.604  0.00  0.00    +0.003 A 
ATOM     19  C   UNL     1      -1.900 -10.328  12.148  0.00  0.00    +0.044 C 
ENDBRANCH   6  11
BRANCH   7   4
ATOM      3  O   UNL     1      -7.123 -10.103  18.317  0.00  0.00    -0.270 OA
ATOM      4  N   UNL     1      -6.794 -11.117  16.257  0.00  0.00    -0.305 N 
ATOM     14  C   UNL     1      -7.401 -10.220  17.126  0.00  0.00    +0.246 C 
ATOM     24  H   UNL     1      -7.085 -11.168  15.287  0.00  0.00    +0.149 HD
BRANCH  14  18
ATOM      5  N   UNL     1      -9.839  -8.790  14.636  0.00  0.00    -0.263 NA
ATOM     18  C   UNL     1      -8.473  -9.373  16.544  0.00  0.00    +0.055 A 
ATOM     20  C   UNL     1      -9.112  -8.401  17.307  0.00  0.00    +0.016 A 
ATOM     21  C   UNL     1      -8.870  -9.527  15.226  0.00  0.00    +0.123 A 
ATOM     22  C   UNL     1     -10.113  -7.624  16.736  0.00  0.00    +0.020 A 
ATOM     23  C   UNL     1     -10.436  -7.856  15.409  0.00  0.00    +0.111 A 
ENDBRANCH  14  18
ENDBRANCH   7   4
BRANCH   8   1
ATOM      1  O   UNL     1      -6.732 -13.104  18.641  0.00  0.00    -0.387 OA
ATOM     25  H   UNL     1      -6.243 -12.339  18.987  0.00  0.00    +0.210 HD
ENDBRANCH   8   1
BRANCH  10   2
ATOM      2  O   UNL     1      -4.168 -13.977  18.187  0.00  0.00    -0.389 OA
ATOM     26  H   UNL     1      -3.621 -13.255  17.835  0.00  0.00    +0.210 HD
ENDBRANCH  10   2
TORSDOF 5
ENDMDL
MODEL 10
REMARK VINA RESULT:      -6.0     26.325     28.993
REMARK  Name = 71693844
REMARK  6 active torsions:
REMARK  status: ('A' for Active; 'I' for Inactive)
REMARK    1  A    between atoms: O_1  and  C_8
REMARK    2  A    between atoms: O_2  and  C_10
REMARK    3  A    between atoms: N_4  and  C_7
REMARK    4  A    between atoms: C_6  and  C_11
REMARK    5  A    between atoms: C_14  and  C_18
REMARK    6  A    between atoms: C_15  and  C_19
REMARK                            x       y       z     vdW  Elec       q    Type
REMARK                         _______ _______ _______ _____ _____    ______ ____
ROOT
ATOM      6  C   UNL     1     -16.354   5.797  22.085  0.00  0.00    +0.044 C 
ATOM      7  C   UNL     1     -14.824   5.586  22.075  0.00  0.00    +0.112 C 
ATOM      8  C   UNL     1     -14.501   5.249  23.531  0.00  0.00    +0.164 C 
ATOM      9  C   UNL     1     -16.880   5.022  23.321  0.00  0.00    +0.044 C 
ATOM     10  C   UNL     1     -15.658   4.346  23.941  0.00  0.00    +0.145 C 
ENDROOT
BRANCH   6  11
ATOM     11  C   UNL     1     -17.014   5.410  20.779  0.00  0.00    -0.042 A 
ATOM     12  C   UNL     1     -16.795   6.173  19.632  0.00  0.00    +0.007 A 
ATOM     13  C   UNL     1     -17.842   4.288  20.722  0.00  0.00    +0.004 A 
ATOM     15  C   UNL     1     -17.402   5.815  18.429  0.00  0.00    -0.050 A 
ATOM     16  C   UNL     1     -18.450   3.931  19.518  0.00  0.00    +0.001 A 
ATOM     17  C   UNL     1     -18.230   4.694  18.371  0.00  0.00    +0.003 A 
ATOM     19  C   UNL     1     -17.167   6.632  17.203  0.00  0.00    +0.044 C 
ENDBRANCH   6  11
BRANCH   7   4
ATOM      3  O   UNL     1     -12.079   5.724  21.244  0.00  0.00    -0.270 OA
ATOM      4  N   UNL     1     -14.119   6.759  21.626  0.00  0.00    -0.305 N 
ATOM     14  C   UNL     1     -12.785   6.730  21.243  0.00  0.00    +0.246 C 
ATOM     24  H   UNL     1     -14.637   7.631  21.612  0.00  0.00    +0.149 HD
BRANCH  14  18
ATOM      5  N   UNL     1     -12.177  10.440  21.013  0.00  0.00    -0.263 NA
ATOM     18  C   UNL     1     -12.196   8.029  20.829  0.00  0.00    +0.055 A 
ATOM     20  C   UNL     1     -11.153   8.084  19.912  0.00  0.00    +0.016 A 
ATOM     21  C   UNL     1     -12.669   9.225  21.346  0.00  0.00    +0.123 A 
ATOM     22  C   UNL     1     -10.620   9.315  19.545  0.00  0.00    +0.020 A 
ATOM     23  C   UNL     1     -11.163  10.452  20.119  0.00  0.00    +0.111 A 
ENDBRANCH  14  18
ENDBRANCH   7   4
BRANCH   8   1
ATOM      1  O   UNL     1     -13.260   4.583  23.665  0.00  0.00    -0.387 OA
ATOM     25  H   UNL     1     -13.121   4.412  24.612  0.00  0.00    +0.210 HD
ENDBRANCH   8   1
BRANCH  10   2
ATOM      2  O   UNL     1     -15.518   3.047  23.375  0.00  0.00    -0.389 OA
ATOM     26  H   UNL     1     -16.175   2.965  22.663  0.00  0.00    +0.210 HD
ENDBRANCH  10   2
TORSDOF 5
ENDMDL
