REMARK  Name = 44715973
REMARK  7 active torsions:
REMARK  status: ('A' for Active; 'I' for Inactive)
REMARK    1  A    between atoms: N_3  and  C_15
REMARK    2  A    between atoms: N_4  and  C_17
REMARK    3  A    between atoms: N_4  and  C_19
REMARK    4  A    between atoms: C_9  and  C_16
REMARK    5  A    between atoms: C_10  and  C_15
REMARK    6  A    between atoms: C_17  and  C_21
REMARK    7  A    between atoms: C_20  and  C_22
REMARK                            x       y       z     vdW  Elec       q    Type
REMARK                         _______ _______ _______ _____ _____    ______ ____
ROOT
ATOM      2  N   UNL     1      -1.818   2.263  -0.852  0.00  0.00    -0.297 NA
ATOM      8  C   UNL     1      -2.191   0.513   1.037  0.00  0.00    +0.005 C 
ATOM      9  C   UNL     1      -3.166   0.289  -0.135  0.00  0.00    +0.092 C 
ATOM     10  C   UNL     1      -0.642   1.356  -0.753  0.00  0.00    +0.078 C 
ATOM     11  C   UNL     1      -0.763   0.415   0.469  0.00  0.00    +0.025 C 
ATOM     12  C   UNL     1      -2.351   1.949   1.569  0.00  0.00    +0.020 C 
ATOM     13  C   UNL     1      -3.019   1.440  -1.148  0.00  0.00    +0.097 C 
ATOM     14  C   UNL     1      -2.057   2.948   0.439  0.00  0.00    +0.085 C 
ENDROOT
BRANCH   9  16
ATOM      1  O   UNL     1      -5.287   1.171   0.414  0.00  0.00    -0.275 OA
ATOM      4  N   UNL     1      -5.015  -1.122   0.680  0.00  0.00    -0.301 N 
ATOM     16  C   UNL     1      -4.583   0.161   0.342  0.00  0.00    +0.220 C 
ATOM     19  C   UNL     1      -6.366  -1.389   1.158  0.00  0.00    +0.132 C 
BRANCH   4  17
ATOM     17  C   UNL     1      -4.146  -2.292   0.579  0.00  0.00    +0.134 C 
BRANCH  17  21
ATOM     21  C   UNL     1      -4.285  -2.887  -0.782  0.00  0.00    -0.016 C 
ATOM     23  C   UNL     1      -4.676  -4.146  -1.009  0.00  0.00    +0.005 C 
ENDBRANCH  17  21
ENDBRANCH   4  17
ENDBRANCH   9  16
BRANCH  10  15
ATOM     15  C   UNL     1       0.681   2.124  -0.747  0.00  0.00    +0.164 C 
BRANCH  15   3
ATOM      3  N   UNL     1       1.859   1.194  -0.832  0.00  0.00    -0.250 N 
ATOM      5  N   UNL     1       1.994   0.352  -1.869  0.00  0.00    -0.065 NA
ATOM      6  N   UNL     1       3.114  -0.336  -1.676  0.00  0.00    -0.128 NA
ATOM     18  C   UNL     1       2.885   1.069   0.052  0.00  0.00    +0.140 A 
ATOM     20  C   UNL     1       3.672   0.091  -0.503  0.00  0.00    +0.131 A 
BRANCH  20  22
ATOM      7  N   UNL     1       5.273   0.143   1.220  0.00  0.00    -0.253 NA
ATOM     22  C   UNL     1       4.889  -0.412   0.049  0.00  0.00    +0.092 A 
ATOM     24  C   UNL     1       5.597  -1.404  -0.609  0.00  0.00    +0.030 A 
ATOM     25  C   UNL     1       6.776  -1.857  -0.027  0.00  0.00    +0.004 A 
ATOM     26  C   UNL     1       6.424  -0.322   1.756  0.00  0.00    +0.111 A 
ATOM     27  C   UNL     1       7.204  -1.311   1.178  0.00  0.00    +0.020 A 
ENDBRANCH  20  22
ENDBRANCH  15   3
ENDBRANCH  10  15
TORSDOF 6
